MODEL 1
REMARK VINA RESULT:    -9.186      0.000      0.000
REMARK INTER + INTRA:         -18.551
REMARK INTER:                 -15.361
REMARK INTRA:                  -3.189
REMARK UNBOUND:                -3.189
REMARK  Name = 
REMARK  14 active torsions:
REMARK  status: ('A' for Active; 'I' for Inactive)
REMARK    1  A    between atoms: C_1  and  O_2
REMARK    2  A    between atoms: O_2  and  C_3
REMARK    3  A    between atoms: C_3  and  C_5
REMARK    4  A    between atoms: C_9  and  O_10
REMARK    5  A    between atoms: C_11  and  C_12
REMARK    6  A    between atoms: C_12  and  C_14
REMARK    7  A    between atoms: C_15  and  O_16
REMARK    8  A    between atoms: C_18  and  C_19
REMARK    9  A    between atoms: C_19  and  O_21
REMARK   10  A    between atoms: O_21  and  C_22
REMARK   11  A    between atoms: C_26  and  C_27
REMARK   12  A    between atoms: C_27  and  C_28
REMARK   13  A    between atoms: C_31  and  O_32
REMARK   14  A    between atoms: C_36  and  O_37
REMARK                            x       y       z     vdW  Elec       q    Type
REMARK                         _______ _______ _______ _____ _____    ______ ____
ROOT
ATOM      1  C   UNL     1      -9.077  -8.280  17.918  0.00  0.00    +0.000 A 
ATOM      2  C   UNL     1      -8.357  -7.264  17.261  0.00  0.00    +0.000 A 
ATOM      3  C   UNL     1      -7.727  -6.230  17.979  0.00  0.00    +0.000 A 
ATOM      4  C   UNL     1      -7.771  -6.212  19.382  0.00  0.00    +0.000 A 
ATOM      5  C   UNL     1      -8.438  -7.246  20.043  0.00  0.00    +0.000 A 
ATOM      6  C   UNL     1      -9.082  -8.257  19.320  0.00  0.00    +0.000 A 
ATOM      7  H   UNL     1      -7.205  -5.446  17.432  0.00  0.00    +0.000 HD
ATOM      8  H   UNL     1      -8.456  -7.279  21.129  0.00  0.00    +0.000 HD
ENDROOT
BRANCH   1   9
ATOM      9  C   UNL     1      -9.855  -9.292  17.125  0.00  0.00    +0.000 C 
ATOM     10  O   UNL     1     -11.079  -9.321  17.258  0.00  0.00    +0.000 OA
BRANCH   9  16
ATOM     11  C   UNL     1      -8.561 -11.473  16.850  0.00  0.00    +0.000 A 
ATOM     12  C   UNL     1      -7.962 -12.428  15.994  0.00  0.00    +0.000 A 
ATOM     13  C   UNL     1      -7.983 -12.279  14.611  0.00  0.00    +0.000 A 
ATOM     14  C   UNL     1      -8.578 -11.157  14.055  0.00  0.00    +0.000 A 
ATOM     15  C   UNL     1      -9.146 -10.187  14.887  0.00  0.00    +0.000 A 
ATOM     16  C   UNL     1      -9.186 -10.341  16.291  0.00  0.00    +0.000 A 
ATOM     17  H   UNL     1      -7.493 -13.323  16.402  0.00  0.00    +0.000 HD
ATOM     18  H   UNL     1      -7.540 -13.041  13.973  0.00  0.00    +0.000 HD
ATOM     19  H   UNL     1      -8.587 -11.048  12.975  0.00  0.00    +0.000 HD
BRANCH  11  20
ATOM     20  C   UNL     1      -8.598 -11.799  18.305  0.00  0.00    +0.000 C 
ATOM     21  O   UNL     1      -8.056 -11.153  19.184  0.00  0.00    +0.000 OA
BRANCH  20  22
ATOM     22  O   UNL     1      -9.431 -12.860  18.494  0.00  0.00    +0.000 OA
BRANCH  22  23
ATOM     23  C   UNL     1      -8.797 -14.079  18.892  0.00  0.00    +0.000 C 
ATOM     24  H   UNL     1      -9.522 -14.661  19.472  0.00  0.00    +0.000 HD
ATOM     25  H   UNL     1      -7.927 -13.897  19.530  0.00  0.00    +0.000 HD
ATOM     26  H   UNL     1      -8.518 -14.651  18.005  0.00  0.00    +0.000 HD
ENDBRANCH  22  23
ENDBRANCH  20  22
ENDBRANCH  11  20
BRANCH  15  27
ATOM     27  O   UNL     1      -9.684  -9.076  14.290  0.00  0.00    +0.000 OA
ATOM     28  H   UNL     1     -10.483  -9.330  13.800  0.00  0.00    +0.000 HD
ENDBRANCH  15  27
ENDBRANCH   9  16
ENDBRANCH   1   9
BRANCH   2  29
ATOM     29  O   UNL     1      -8.251  -7.205  15.893  0.00  0.00    +0.000 OA
ATOM     30  H   UNL     1      -7.476  -6.634  15.678  0.00  0.00    +0.000 HD
ENDBRANCH   2  29
BRANCH   4  31
ATOM     31  C   UNL     1      -7.132  -5.095  20.153  0.00  0.00    +0.000 C 
ATOM     32  O   UNL     1      -5.966  -4.778  20.033  0.00  0.00    +0.000 OA
BRANCH  31  33
ATOM     33  O   UNL     1      -8.051  -4.478  20.972  0.00  0.00    +0.000 OA
BRANCH  33  34
ATOM     34  C   UNL     1      -8.181  -3.062  20.794  0.00  0.00    +0.000 C 
ATOM     35  C   UNL     1      -8.813  -2.376  21.999  0.00  0.00    +0.000 C 
ATOM     36  C   UNL     1      -9.315  -1.035  21.471  0.00  0.00    +0.000 C 
ATOM     37  C   UNL     1      -9.324  -1.145  19.946  0.00  0.00    +0.000 C 
ATOM     38  C   UNL     1      -9.107  -2.636  19.628  0.00  0.00    +0.000 C 
ATOM     39  H   UNL     1      -7.188  -2.629  20.596  0.00  0.00    +0.000 HD
ATOM     40  H   UNL     1      -8.101  -2.246  22.820  0.00  0.00    +0.000 HD
ATOM     41  H   UNL     1      -9.643  -2.975  22.391  0.00  0.00    +0.000 HD
ATOM     42  H   UNL     1      -8.658  -0.216  21.781  0.00  0.00    +0.000 HD
ATOM     43  H   UNL     1     -10.316  -0.821  21.861  0.00  0.00    +0.000 HD
ATOM     44  H   UNL     1      -8.495  -0.559  19.531  0.00  0.00    +0.000 HD
ATOM     45  H   UNL     1     -10.243  -0.722  19.527  0.00  0.00    +0.000 HD
ATOM     46  H   UNL     1      -8.544  -2.739  18.693  0.00  0.00    +0.000 HD
BRANCH  38  47
ATOM     47  C   UNL     1     -10.460  -3.380  19.465  0.00  0.00    +0.000 C 
ATOM     48  H   UNL     1     -11.291  -2.742  19.794  0.00  0.00    +0.000 HD
ATOM     49  H   UNL     1     -10.479  -4.273  20.102  0.00  0.00    +0.000 HD
BRANCH  47  50
ATOM     50  C   UNL     1     -10.697  -3.821  18.020  0.00  0.00    +0.000 A 
ATOM     51  C   UNL     1     -10.536  -2.898  16.976  0.00  0.00    +0.000 A 
ATOM     52  C   UNL     1     -10.916  -3.209  15.668  0.00  0.00    +0.000 A 
ATOM     53  C   UNL     1     -11.399  -4.478  15.380  0.00  0.00    +0.000 A 
ATOM     54  C   UNL     1     -11.490  -5.441  16.377  0.00  0.00    +0.000 A 
ATOM     55  C   UNL     1     -11.147  -5.110  17.700  0.00  0.00    +0.000 A 
ATOM     56  H   UNL     1     -10.143  -1.905  17.181  0.00  0.00    +0.000 HD
ATOM     57  H   UNL     1     -10.852  -2.443  14.905  0.00  0.00    +0.000 HD
ATOM     58  H   UNL     1     -11.853  -6.436  16.133  0.00  0.00    +0.000 HD
ATOM     59  H   UNL     1     -11.266  -5.870  18.471  0.00  0.00    +0.000 HD
BRANCH  53  60
ATOM     60  O   UNL     1     -11.803  -4.806  14.118  0.00  0.00    +0.000 OA
ATOM     61  H   UNL     1     -12.758  -4.993  14.136  0.00  0.00    +0.000 HD
ENDBRANCH  53  60
ENDBRANCH  47  50
ENDBRANCH  38  47
ENDBRANCH  33  34
ENDBRANCH  31  33
ENDBRANCH   4  31
BRANCH   6  62
ATOM     62  O   UNL     1      -9.746  -9.212  20.042  0.00  0.00    +0.000 OA
ATOM     63  H   UNL     1     -10.604  -9.364  19.609  0.00  0.00    +0.000 HD
ENDBRANCH   6  62
TORSDOF 14
ENDMDL
MODEL 2
REMARK VINA RESULT:    -9.116      2.621      9.459
REMARK INTER + INTRA:         -18.435
REMARK INTER:                 -16.826
REMARK INTRA:                  -1.609
REMARK UNBOUND:                -3.189
REMARK  Name = 
REMARK  14 active torsions:
REMARK  status: ('A' for Active; 'I' for Inactive)
REMARK    1  A    between atoms: C_1  and  O_2
REMARK    2  A    between atoms: O_2  and  C_3
REMARK    3  A    between atoms: C_3  and  C_5
REMARK    4  A    between atoms: C_9  and  O_10
REMARK    5  A    between atoms: C_11  and  C_12
REMARK    6  A    between atoms: C_12  and  C_14
REMARK    7  A    between atoms: C_15  and  O_16
REMARK    8  A    between atoms: C_18  and  C_19
REMARK    9  A    between atoms: C_19  and  O_21
REMARK   10  A    between atoms: O_21  and  C_22
REMARK   11  A    between atoms: C_26  and  C_27
REMARK   12  A    between atoms: C_27  and  C_28
REMARK   13  A    between atoms: C_31  and  O_32
REMARK   14  A    between atoms: C_36  and  O_37
REMARK                            x       y       z     vdW  Elec       q    Type
REMARK                         _______ _______ _______ _____ _____    ______ ____
ROOT
ATOM      1  C   UNL     1      -7.200  -3.198  21.358  0.00  0.00    +0.000 A 
ATOM      2  C   UNL     1      -6.035  -3.916  21.023  0.00  0.00    +0.000 A 
ATOM      3  C   UNL     1      -6.058  -4.937  20.055  0.00  0.00    +0.000 A 
ATOM      4  C   UNL     1      -7.245  -5.239  19.369  0.00  0.00    +0.000 A 
ATOM      5  C   UNL     1      -8.392  -4.495  19.659  0.00  0.00    +0.000 A 
ATOM      6  C   UNL     1      -8.366  -3.497  20.640  0.00  0.00    +0.000 A 
ATOM      7  H   UNL     1      -5.143  -5.490  19.846  0.00  0.00    +0.000 HD
ATOM      8  H   UNL     1      -9.315  -4.680  19.116  0.00  0.00    +0.000 HD
ENDROOT
BRANCH   1   9
ATOM      9  C   UNL     1      -7.180  -2.209  22.490  0.00  0.00    +0.000 C 
ATOM     10  O   UNL     1      -6.249  -1.403  22.543  0.00  0.00    +0.000 OA
BRANCH   9  16
ATOM     11  C   UNL     1      -9.138  -1.257  23.816  0.00  0.00    +0.000 A 
ATOM     12  C   UNL     1     -10.048  -1.381  24.894  0.00  0.00    +0.000 A 
ATOM     13  C   UNL     1     -10.012  -2.476  25.753  0.00  0.00    +0.000 A 
ATOM     14  C   UNL     1      -9.046  -3.454  25.571  0.00  0.00    +0.000 A 
ATOM     15  C   UNL     1      -8.120  -3.330  24.532  0.00  0.00    +0.000 A 
ATOM     16  C   UNL     1      -8.168  -2.258  23.613  0.00  0.00    +0.000 A 
ATOM     17  H   UNL     1     -10.822  -0.632  25.059  0.00  0.00    +0.000 HD
ATOM     18  H   UNL     1     -10.739  -2.562  26.558  0.00  0.00    +0.000 HD
ATOM     19  H   UNL     1      -9.024  -4.302  26.248  0.00  0.00    +0.000 HD
BRANCH  11  20
ATOM     20  C   UNL     1      -9.352  -0.115  22.880  0.00  0.00    +0.000 C 
ATOM     21  O   UNL     1      -9.832  -0.201  21.765  0.00  0.00    +0.000 OA
BRANCH  20  22
ATOM     22  O   UNL     1      -9.036   1.043  23.525  0.00  0.00    +0.000 OA
BRANCH  22  23
ATOM     23  C   UNL     1     -10.046   2.055  23.507  0.00  0.00    +0.000 C 
ATOM     24  H   UNL     1     -10.952   1.617  23.071  0.00  0.00    +0.000 HD
ATOM     25  H   UNL     1      -9.757   2.909  22.888  0.00  0.00    +0.000 HD
ATOM     26  H   UNL     1     -10.266   2.368  24.529  0.00  0.00    +0.000 HD
ENDBRANCH  22  23
ENDBRANCH  20  22
ENDBRANCH  11  20
BRANCH  15  27
ATOM     27  O   UNL     1      -7.159  -4.302  24.420  0.00  0.00    +0.000 OA
ATOM     28  H   UNL     1      -6.464  -3.998  23.813  0.00  0.00    +0.000 HD
ENDBRANCH  15  27
ENDBRANCH   9  16
ENDBRANCH   1   9
BRANCH   2  29
ATOM     29  O   UNL     1      -4.827  -3.683  21.633  0.00  0.00    +0.000 OA
ATOM     30  H   UNL     1      -4.864  -4.087  22.532  0.00  0.00    +0.000 HD
ENDBRANCH   2  29
BRANCH   4  31
ATOM     31  C   UNL     1      -7.286  -6.350  18.362  0.00  0.00    +0.000 C 
ATOM     32  O   UNL     1      -6.497  -6.454  17.445  0.00  0.00    +0.000 OA
BRANCH  31  33
ATOM     33  O   UNL     1      -8.306  -7.230  18.646  0.00  0.00    +0.000 OA
BRANCH  33  34
ATOM     34  C   UNL     1      -9.220  -7.481  17.572  0.00  0.00    +0.000 C 
ATOM     35  C   UNL     1     -10.677  -7.357  18.001  0.00  0.00    +0.000 C 
ATOM     36  C   UNL     1     -11.468  -8.109  16.935  0.00  0.00    +0.000 C 
ATOM     37  C   UNL     1     -10.458  -8.962  16.168  0.00  0.00    +0.000 C 
ATOM     38  C   UNL     1      -9.154  -8.913  16.984  0.00  0.00    +0.000 C 
ATOM     39  H   UNL     1      -9.013  -6.781  16.748  0.00  0.00    +0.000 HD
ATOM     40  H   UNL     1     -10.996  -6.313  18.080  0.00  0.00    +0.000 HD
ATOM     41  H   UNL     1     -10.827  -7.808  18.989  0.00  0.00    +0.000 HD
ATOM     42  H   UNL     1     -11.968  -7.417  16.250  0.00  0.00    +0.000 HD
ATOM     43  H   UNL     1     -12.242  -8.730  17.400  0.00  0.00    +0.000 HD
ATOM     44  H   UNL     1     -10.286  -8.524  15.177  0.00  0.00    +0.000 HD
ATOM     45  H   UNL     1     -10.846  -9.972  15.995  0.00  0.00    +0.000 HD
ATOM     46  H   UNL     1      -8.291  -8.963  16.310  0.00  0.00    +0.000 HD
BRANCH  38  47
ATOM     47  C   UNL     1      -9.064 -10.104  17.977  0.00  0.00    +0.000 C 
ATOM     48  H   UNL     1      -9.990 -10.185  18.562  0.00  0.00    +0.000 HD
ATOM     49  H   UNL     1      -8.253  -9.935  18.695  0.00  0.00    +0.000 HD
BRANCH  47  50
ATOM     50  C   UNL     1      -8.798 -11.426  17.257  0.00  0.00    +0.000 A 
ATOM     51  C   UNL     1      -8.625 -11.438  15.865  0.00  0.00    +0.000 A 
ATOM     52  C   UNL     1      -8.561 -12.638  15.153  0.00  0.00    +0.000 A 
ATOM     53  C   UNL     1      -8.600 -13.844  15.840  0.00  0.00    +0.000 A 
ATOM     54  C   UNL     1      -8.685 -13.863  17.226  0.00  0.00    +0.000 A 
ATOM     55  C   UNL     1      -8.792 -12.654  17.935  0.00  0.00    +0.000 A 
ATOM     56  H   UNL     1      -8.575 -10.503  15.313  0.00  0.00    +0.000 HD
ATOM     57  H   UNL     1      -8.509 -12.606  14.071  0.00  0.00    +0.000 HD
ATOM     58  H   UNL     1      -8.696 -14.814  17.752  0.00  0.00    +0.000 HD
ATOM     59  H   UNL     1      -8.899 -12.696  19.018  0.00  0.00    +0.000 HD
BRANCH  53  60
ATOM     60  O   UNL     1      -8.565 -15.035  15.172  0.00  0.00    +0.000 OA
ATOM     61  H   UNL     1      -9.436 -15.187  14.766  0.00  0.00    +0.000 HD
ENDBRANCH  53  60
ENDBRANCH  47  50
ENDBRANCH  38  47
ENDBRANCH  33  34
ENDBRANCH  31  33
ENDBRANCH   4  31
BRANCH   6  62
ATOM     62  O   UNL     1      -9.540  -2.840  20.890  0.00  0.00    +0.000 OA
ATOM     63  H   UNL     1      -9.976  -2.681  20.034  0.00  0.00    +0.000 HD
ENDBRANCH   6  62
TORSDOF 14
ENDMDL
MODEL 3
REMARK VINA RESULT:    -8.991      2.843      9.750
REMARK INTER + INTRA:         -18.225
REMARK INTER:                 -16.455
REMARK INTRA:                  -1.769
REMARK UNBOUND:                -3.189
REMARK  Name = 
REMARK  14 active torsions:
REMARK  status: ('A' for Active; 'I' for Inactive)
REMARK    1  A    between atoms: C_1  and  O_2
REMARK    2  A    between atoms: O_2  and  C_3
REMARK    3  A    between atoms: C_3  and  C_5
REMARK    4  A    between atoms: C_9  and  O_10
REMARK    5  A    between atoms: C_11  and  C_12
REMARK    6  A    between atoms: C_12  and  C_14
REMARK    7  A    between atoms: C_15  and  O_16
REMARK    8  A    between atoms: C_18  and  C_19
REMARK    9  A    between atoms: C_19  and  O_21
REMARK   10  A    between atoms: O_21  and  C_22
REMARK   11  A    between atoms: C_26  and  C_27
REMARK   12  A    between atoms: C_27  and  C_28
REMARK   13  A    between atoms: C_31  and  O_32
REMARK   14  A    between atoms: C_36  and  O_37
REMARK                            x       y       z     vdW  Elec       q    Type
REMARK                         _______ _______ _______ _____ _____    ______ ____
ROOT
ATOM      1  C   UNL     1      -9.285  -2.806  22.399  0.00  0.00    +0.000 A 
ATOM      2  C   UNL     1      -8.177  -3.576  22.803  0.00  0.00    +0.000 A 
ATOM      3  C   UNL     1      -7.475  -4.386  21.891  0.00  0.00    +0.000 A 
ATOM      4  C   UNL     1      -7.846  -4.415  20.537  0.00  0.00    +0.000 A 
ATOM      5  C   UNL     1      -8.911  -3.614  20.118  0.00  0.00    +0.000 A 
ATOM      6  C   UNL     1      -9.618  -2.829  21.038  0.00  0.00    +0.000 A 
ATOM      7  H   UNL     1      -6.643  -4.990  22.249  0.00  0.00    +0.000 HD
ATOM      8  H   UNL     1      -9.196  -3.586  19.070  0.00  0.00    +0.000 HD
ENDROOT
BRANCH   1   9
ATOM      9  C   UNL     1     -10.099  -2.058  23.417  0.00  0.00    +0.000 C 
ATOM     10  O   UNL     1     -11.207  -2.505  23.719  0.00  0.00    +0.000 OA
BRANCH   9  16
ATOM     11  C   UNL     1      -9.827   0.472  23.257  0.00  0.00    +0.000 A 
ATOM     12  C   UNL     1      -9.409   1.687  23.853  0.00  0.00    +0.000 A 
ATOM     13  C   UNL     1      -8.856   1.719  25.129  0.00  0.00    +0.000 A 
ATOM     14  C   UNL     1      -8.680   0.533  25.826  0.00  0.00    +0.000 A 
ATOM     15  C   UNL     1      -9.056  -0.679  25.240  0.00  0.00    +0.000 A 
ATOM     16  C   UNL     1      -9.671  -0.734  23.969  0.00  0.00    +0.000 A 
ATOM     17  H   UNL     1      -9.541   2.636  23.332  0.00  0.00    +0.000 HD
ATOM     18  H   UNL     1      -8.567   2.669  25.575  0.00  0.00    +0.000 HD
ATOM     19  H   UNL     1      -8.244   0.567  26.819  0.00  0.00    +0.000 HD
BRANCH  11  20
ATOM     20  C   UNL     1     -10.529   0.569  21.945  0.00  0.00    +0.000 C 
ATOM     21  O   UNL     1      -9.983   0.688  20.863  0.00  0.00    +0.000 OA
BRANCH  20  22
ATOM     22  O   UNL     1     -11.863   0.382  22.149  0.00  0.00    +0.000 OA
BRANCH  22  23
ATOM     23  C   UNL     1     -12.662   1.569  22.128  0.00  0.00    +0.000 C 
ATOM     24  H   UNL     1     -12.862   1.821  21.081  0.00  0.00    +0.000 HD
ATOM     25  H   UNL     1     -12.144   2.418  22.583  0.00  0.00    +0.000 HD
ATOM     26  H   UNL     1     -13.612   1.376  22.629  0.00  0.00    +0.000 HD
ENDBRANCH  22  23
ENDBRANCH  20  22
ENDBRANCH  11  20
BRANCH  15  27
ATOM     27  O   UNL     1      -8.823  -1.827  25.953  0.00  0.00    +0.000 OA
ATOM     28  H   UNL     1      -9.143  -1.711  26.862  0.00  0.00    +0.000 HD
ENDBRANCH  15  27
ENDBRANCH   9  16
ENDBRANCH   1   9
BRANCH   2  29
ATOM     29  O   UNL     1      -7.735  -3.602  24.103  0.00  0.00    +0.000 OA
ATOM     30  H   UNL     1      -8.504  -3.395  24.685  0.00  0.00    +0.000 HD
ENDBRANCH   2  29
BRANCH   4  31
ATOM     31  C   UNL     1      -7.126  -5.303  19.565  0.00  0.00    +0.000 C 
ATOM     32  O   UNL     1      -5.967  -5.143  19.242  0.00  0.00    +0.000 OA
BRANCH  31  33
ATOM     33  O   UNL     1      -7.947  -6.321  19.132  0.00  0.00    +0.000 OA
BRANCH  33  34
ATOM     34  C   UNL     1      -8.317  -6.268  17.749  0.00  0.00    +0.000 C 
ATOM     35  C   UNL     1      -9.664  -5.592  17.528  0.00  0.00    +0.000 C 
ATOM     36  C   UNL     1     -10.112  -6.050  16.143  0.00  0.00    +0.000 C 
ATOM     37  C   UNL     1      -9.242  -7.253  15.782  0.00  0.00    +0.000 C 
ATOM     38  C   UNL     1      -8.508  -7.650  17.075  0.00  0.00    +0.000 C 
ATOM     39  H   UNL     1      -7.535  -5.736  17.185  0.00  0.00    +0.000 HD
ATOM     40  H   UNL     1      -9.594  -4.501  17.590  0.00  0.00    +0.000 HD
ATOM     41  H   UNL     1     -10.382  -5.906  18.294  0.00  0.00    +0.000 HD
ATOM     42  H   UNL     1      -9.978  -5.257  15.401  0.00  0.00    +0.000 HD
ATOM     43  H   UNL     1     -11.175  -6.315  16.154  0.00  0.00    +0.000 HD
ATOM     44  H   UNL     1      -8.508  -6.959  15.021  0.00  0.00    +0.000 HD
ATOM     45  H   UNL     1      -9.843  -8.054  15.338  0.00  0.00    +0.000 HD
ATOM     46  H   UNL     1      -7.516  -8.049  16.833  0.00  0.00    +0.000 HD
BRANCH  38  47
ATOM     47  C   UNL     1      -9.293  -8.738  17.858  0.00  0.00    +0.000 C 
ATOM     48  H   UNL     1     -10.355  -8.467  17.931  0.00  0.00    +0.000 HD
ATOM     49  H   UNL     1      -8.916  -8.809  18.885  0.00  0.00    +0.000 HD
BRANCH  47  50
ATOM     50  C   UNL     1      -9.162 -10.114  17.205  0.00  0.00    +0.000 A 
ATOM     51  C   UNL     1      -8.840 -11.230  17.992  0.00  0.00    +0.000 A 
ATOM     52  C   UNL     1      -8.534 -12.463  17.411  0.00  0.00    +0.000 A 
ATOM     53  C   UNL     1      -8.616 -12.609  16.033  0.00  0.00    +0.000 A 
ATOM     54  C   UNL     1      -9.014 -11.545  15.234  0.00  0.00    +0.000 A 
ATOM     55  C   UNL     1      -9.280 -10.294  15.819  0.00  0.00    +0.000 A 
ATOM     56  H   UNL     1      -8.788 -11.138  19.073  0.00  0.00    +0.000 HD
ATOM     57  H   UNL     1      -8.211 -13.279  18.047  0.00  0.00    +0.000 HD
ATOM     58  H   UNL     1      -9.091 -11.678  14.158  0.00  0.00    +0.000 HD
ATOM     59  H   UNL     1      -9.550  -9.465  15.167  0.00  0.00    +0.000 HD
BRANCH  53  60
ATOM     60  O   UNL     1      -8.299 -13.793  15.431  0.00  0.00    +0.000 OA
ATOM     61  H   UNL     1      -9.106 -14.333  15.366  0.00  0.00    +0.000 HD
ENDBRANCH  53  60
ENDBRANCH  47  50
ENDBRANCH  38  47
ENDBRANCH  33  34
ENDBRANCH  31  33
ENDBRANCH   4  31
BRANCH   6  62
ATOM     62  O   UNL     1     -10.672  -2.102  20.554  0.00  0.00    +0.000 OA
ATOM     63  H   UNL     1     -11.439  -2.699  20.498  0.00  0.00    +0.000 HD
ENDBRANCH   6  62
TORSDOF 14
ENDMDL
MODEL 4
REMARK VINA RESULT:    -8.849      2.288      8.498
REMARK INTER + INTRA:         -17.988
REMARK INTER:                 -16.287
REMARK INTRA:                  -1.702
REMARK UNBOUND:                -3.189
REMARK  Name = 
REMARK  14 active torsions:
REMARK  status: ('A' for Active; 'I' for Inactive)
REMARK    1  A    between atoms: C_1  and  O_2
REMARK    2  A    between atoms: O_2  and  C_3
REMARK    3  A    between atoms: C_3  and  C_5
REMARK    4  A    between atoms: C_9  and  O_10
REMARK    5  A    between atoms: C_11  and  C_12
REMARK    6  A    between atoms: C_12  and  C_14
REMARK    7  A    between atoms: C_15  and  O_16
REMARK    8  A    between atoms: C_18  and  C_19
REMARK    9  A    between atoms: C_19  and  O_21
REMARK   10  A    between atoms: O_21  and  C_22
REMARK   11  A    between atoms: C_26  and  C_27
REMARK   12  A    between atoms: C_27  and  C_28
REMARK   13  A    between atoms: C_31  and  O_32
REMARK   14  A    between atoms: C_36  and  O_37
REMARK                            x       y       z     vdW  Elec       q    Type
REMARK                         _______ _______ _______ _____ _____    ______ ____
ROOT
ATOM      1  C   UNL     1     -10.830  -1.966  19.613  0.00  0.00    +0.000 A 
ATOM      2  C   UNL     1     -10.101  -1.763  18.425  0.00  0.00    +0.000 A 
ATOM      3  C   UNL     1     -10.330  -2.551  17.282  0.00  0.00    +0.000 A 
ATOM      4  C   UNL     1     -11.326  -3.540  17.289  0.00  0.00    +0.000 A 
ATOM      5  C   UNL     1     -12.089  -3.711  18.447  0.00  0.00    +0.000 A 
ATOM      6  C   UNL     1     -11.838  -2.939  19.587  0.00  0.00    +0.000 A 
ATOM      7  H   UNL     1      -9.725  -2.383  16.392  0.00  0.00    +0.000 HD
ATOM      8  H   UNL     1     -12.893  -4.442  18.469  0.00  0.00    +0.000 HD
ENDROOT
BRANCH   1   9
ATOM      9  C   UNL     1     -10.472  -1.206  20.860  0.00  0.00    +0.000 C 
ATOM     10  O   UNL     1     -10.245   0.001  20.761  0.00  0.00    +0.000 OA
BRANCH   9  16
ATOM     11  C   UNL     1      -9.063  -2.566  22.493  0.00  0.00    +0.000 A 
ATOM     12  C   UNL     1      -8.928  -3.172  23.766  0.00  0.00    +0.000 A 
ATOM     13  C   UNL     1      -9.942  -3.104  24.715  0.00  0.00    +0.000 A 
ATOM     14  C   UNL     1     -11.127  -2.454  24.402  0.00  0.00    +0.000 A 
ATOM     15  C   UNL     1     -11.290  -1.878  23.138  0.00  0.00    +0.000 A 
ATOM     16  C   UNL     1     -10.255  -1.886  22.176  0.00  0.00    +0.000 A 
ATOM     17  H   UNL     1      -8.006  -3.684  24.043  0.00  0.00    +0.000 HD
ATOM     18  H   UNL     1      -9.804  -3.554  25.696  0.00  0.00    +0.000 HD
ATOM     19  H   UNL     1     -11.914  -2.409  25.148  0.00  0.00    +0.000 HD
BRANCH  11  20
ATOM     20  C   UNL     1      -7.864  -2.584  21.605  0.00  0.00    +0.000 C 
ATOM     21  O   UNL     1      -6.832  -1.971  21.805  0.00  0.00    +0.000 OA
BRANCH  20  22
ATOM     22  O   UNL     1      -8.074  -3.488  20.608  0.00  0.00    +0.000 OA
BRANCH  22  23
ATOM     23  C   UNL     1      -7.317  -4.698  20.703  0.00  0.00    +0.000 C 
ATOM     24  H   UNL     1      -6.785  -4.836  19.754  0.00  0.00    +0.000 HD
ATOM     25  H   UNL     1      -7.959  -5.570  20.857  0.00  0.00    +0.000 HD
ATOM     26  H   UNL     1      -6.583  -4.606  21.505  0.00  0.00    +0.000 HD
ENDBRANCH  22  23
ENDBRANCH  20  22
ENDBRANCH  11  20
BRANCH  15  27
ATOM     27  O   UNL     1     -12.495  -1.284  22.863  0.00  0.00    +0.000 OA
ATOM     28  H   UNL     1     -12.803  -1.574  21.988  0.00  0.00    +0.000 HD
ENDBRANCH  15  27
ENDBRANCH   9  16
ENDBRANCH   1   9
BRANCH   2  29
ATOM     29  O   UNL     1      -9.115  -0.813  18.321  0.00  0.00    +0.000 OA
ATOM     30  H   UNL     1      -9.074  -0.528  17.377  0.00  0.00    +0.000 HD
ENDBRANCH   2  29
BRANCH   4  31
ATOM     31  C   UNL     1     -11.553  -4.407  16.086  0.00  0.00    +0.000 C 
ATOM     32  O   UNL     1     -11.731  -3.970  14.967  0.00  0.00    +0.000 OA
BRANCH  31  33
ATOM     33  O   UNL     1     -11.495  -5.740  16.427  0.00  0.00    +0.000 OA
BRANCH  33  34
ATOM     34  C   UNL     1     -10.259  -6.175  17.006  0.00  0.00    +0.000 C 
ATOM     35  C   UNL     1      -9.108  -6.166  16.008  0.00  0.00    +0.000 C 
ATOM     36  C   UNL     1      -8.052  -7.084  16.615  0.00  0.00    +0.000 C 
ATOM     37  C   UNL     1      -8.755  -7.891  17.707  0.00  0.00    +0.000 C 
ATOM     38  C   UNL     1     -10.261  -7.637  17.518  0.00  0.00    +0.000 C 
ATOM     39  H   UNL     1     -10.014  -5.530  17.864  0.00  0.00    +0.000 HD
ATOM     40  H   UNL     1      -8.718  -5.157  15.838  0.00  0.00    +0.000 HD
ATOM     41  H   UNL     1      -9.441  -6.544  15.034  0.00  0.00    +0.000 HD
ATOM     42  H   UNL     1      -7.228  -6.508  17.049  0.00  0.00    +0.000 HD
ATOM     43  H   UNL     1      -7.628  -7.739  15.846  0.00  0.00    +0.000 HD
ATOM     44  H   UNL     1      -8.443  -7.523  18.692  0.00  0.00    +0.000 HD
ATOM     45  H   UNL     1      -8.465  -8.946  17.665  0.00  0.00    +0.000 HD
ATOM     46  H   UNL     1     -10.766  -7.655  18.491  0.00  0.00    +0.000 HD
BRANCH  38  47
ATOM     47  C   UNL     1     -10.907  -8.723  16.615  0.00  0.00    +0.000 C 
ATOM     48  H   UNL     1     -11.191  -8.295  15.644  0.00  0.00    +0.000 HD
ATOM     49  H   UNL     1     -11.831  -9.096  17.075  0.00  0.00    +0.000 HD
BRANCH  47  50
ATOM     50  C   UNL     1      -9.971  -9.911  16.395  0.00  0.00    +0.000 A 
ATOM     51  C   UNL     1      -9.508 -10.202  15.103  0.00  0.00    +0.000 A 
ATOM     52  C   UNL     1      -8.803 -11.378  14.833  0.00  0.00    +0.000 A 
ATOM     53  C   UNL     1      -8.492 -12.243  15.873  0.00  0.00    +0.000 A 
ATOM     54  C   UNL     1      -8.863 -11.940  17.177  0.00  0.00    +0.000 A 
ATOM     55  C   UNL     1      -9.610 -10.777  17.438  0.00  0.00    +0.000 A 
ATOM     56  H   UNL     1      -9.727  -9.527  14.280  0.00  0.00    +0.000 HD
ATOM     57  H   UNL     1      -8.533 -11.606  13.809  0.00  0.00    +0.000 HD
ATOM     58  H   UNL     1      -8.598 -12.618  17.984  0.00  0.00    +0.000 HD
ATOM     59  H   UNL     1      -9.924 -10.583  18.462  0.00  0.00    +0.000 HD
BRANCH  53  60
ATOM     60  O   UNL     1      -7.827 -13.412  15.640  0.00  0.00    +0.000 OA
ATOM     61  H   UNL     1      -8.169 -13.804  14.817  0.00  0.00    +0.000 HD
ENDBRANCH  53  60
ENDBRANCH  47  50
ENDBRANCH  38  47
ENDBRANCH  33  34
ENDBRANCH  31  33
ENDBRANCH   4  31
BRANCH   6  62
ATOM     62  O   UNL     1     -12.604  -3.195  20.692  0.00  0.00    +0.000 OA
ATOM     63  H   UNL     1     -12.770  -4.154  20.719  0.00  0.00    +0.000 HD
ENDBRANCH   6  62
TORSDOF 14
ENDMDL
MODEL 5
REMARK VINA RESULT:    -8.812      3.446      6.554
REMARK INTER + INTRA:         -17.926
REMARK INTER:                 -14.927
REMARK INTRA:                  -2.999
REMARK UNBOUND:                -3.189
REMARK  Name = 
REMARK  14 active torsions:
REMARK  status: ('A' for Active; 'I' for Inactive)
REMARK    1  A    between atoms: C_1  and  O_2
REMARK    2  A    between atoms: O_2  and  C_3
REMARK    3  A    between atoms: C_3  and  C_5
REMARK    4  A    between atoms: C_9  and  O_10
REMARK    5  A    between atoms: C_11  and  C_12
REMARK    6  A    between atoms: C_12  and  C_14
REMARK    7  A    between atoms: C_15  and  O_16
REMARK    8  A    between atoms: C_18  and  C_19
REMARK    9  A    between atoms: C_19  and  O_21
REMARK   10  A    between atoms: O_21  and  C_22
REMARK   11  A    between atoms: C_26  and  C_27
REMARK   12  A    between atoms: C_27  and  C_28
REMARK   13  A    between atoms: C_31  and  O_32
REMARK   14  A    between atoms: C_36  and  O_37
REMARK                            x       y       z     vdW  Elec       q    Type
REMARK                         _______ _______ _______ _____ _____    ______ ____
ROOT
ATOM      1  C   UNL     1     -11.051  -2.785  18.585  0.00  0.00    +0.000 A 
ATOM      2  C   UNL     1     -10.051  -1.818  18.361  0.00  0.00    +0.000 A 
ATOM      3  C   UNL     1      -9.741  -0.847  19.332  0.00  0.00    +0.000 A 
ATOM      4  C   UNL     1     -10.403  -0.844  20.569  0.00  0.00    +0.000 A 
ATOM      5  C   UNL     1     -11.360  -1.831  20.818  0.00  0.00    +0.000 A 
ATOM      6  C   UNL     1     -11.678  -2.779  19.839  0.00  0.00    +0.000 A 
ATOM      7  H   UNL     1      -8.982  -0.099  19.109  0.00  0.00    +0.000 HD
ATOM      8  H   UNL     1     -11.860  -1.877  21.782  0.00  0.00    +0.000 HD
ENDROOT
BRANCH   1   9
ATOM      9  C   UNL     1     -11.457  -3.723  17.483  0.00  0.00    +0.000 C 
ATOM     10  O   UNL     1     -12.623  -3.683  17.085  0.00  0.00    +0.000 OA
BRANCH   9  16
ATOM     11  C   UNL     1     -10.161  -4.850  15.598  0.00  0.00    +0.000 A 
ATOM     12  C   UNL     1      -9.278  -5.873  15.177  0.00  0.00    +0.000 A 
ATOM     13  C   UNL     1      -8.767  -6.808  16.072  0.00  0.00    +0.000 A 
ATOM     14  C   UNL     1      -9.152  -6.757  17.404  0.00  0.00    +0.000 A 
ATOM     15  C   UNL     1     -10.049  -5.774  17.831  0.00  0.00    +0.000 A 
ATOM     16  C   UNL     1     -10.540  -4.781  16.954  0.00  0.00    +0.000 A 
ATOM     17  H   UNL     1      -8.953  -5.934  14.138  0.00  0.00    +0.000 HD
ATOM     18  H   UNL     1      -8.069  -7.568  15.729  0.00  0.00    +0.000 HD
ATOM     19  H   UNL     1      -8.751  -7.493  18.094  0.00  0.00    +0.000 HD
BRANCH  11  20
ATOM     20  C   UNL     1     -10.540  -3.824  14.584  0.00  0.00    +0.000 C 
ATOM     21  O   UNL     1      -9.962  -2.768  14.402  0.00  0.00    +0.000 OA
BRANCH  20  22
ATOM     22  O   UNL     1     -11.556  -4.318  13.823  0.00  0.00    +0.000 OA
BRANCH  22  23
ATOM     23  C   UNL     1     -11.938  -3.510  12.705  0.00  0.00    +0.000 C 
ATOM     24  H   UNL     1     -12.048  -2.479  13.059  0.00  0.00    +0.000 HD
ATOM     25  H   UNL     1     -12.898  -3.823  12.285  0.00  0.00    +0.000 HD
ATOM     26  H   UNL     1     -11.152  -3.539  11.949  0.00  0.00    +0.000 HD
ENDBRANCH  22  23
ENDBRANCH  20  22
ENDBRANCH  11  20
BRANCH  15  27
ATOM     27  O   UNL     1     -10.431  -5.793  19.147  0.00  0.00    +0.000 OA
ATOM     28  H   UNL     1      -9.998  -6.538  19.596  0.00  0.00    +0.000 HD
ENDBRANCH  15  27
ENDBRANCH   9  16
ENDBRANCH   1   9
BRANCH   2  29
ATOM     29  O   UNL     1      -9.343  -1.751  17.186  0.00  0.00    +0.000 OA
ATOM     30  H   UNL     1      -8.426  -2.062  17.372  0.00  0.00    +0.000 HD
ENDBRANCH   2  29
BRANCH   4  31
ATOM     31  C   UNL     1     -10.104   0.210  21.595  0.00  0.00    +0.000 C 
ATOM     32  O   UNL     1     -10.720   1.252  21.687  0.00  0.00    +0.000 OA
BRANCH  31  33
ATOM     33  O   UNL     1      -9.073  -0.188  22.417  0.00  0.00    +0.000 OA
BRANCH  33  34
ATOM     34  C   UNL     1      -9.393  -1.232  23.344  0.00  0.00    +0.000 C 
ATOM     35  C   UNL     1      -9.066  -0.857  24.785  0.00  0.00    +0.000 C 
ATOM     36  C   UNL     1      -8.994  -2.186  25.531  0.00  0.00    +0.000 C 
ATOM     37  C   UNL     1      -8.881  -3.276  24.466  0.00  0.00    +0.000 C 
ATOM     38  C   UNL     1      -8.599  -2.547  23.141  0.00  0.00    +0.000 C 
ATOM     39  H   UNL     1     -10.462  -1.481  23.257  0.00  0.00    +0.000 HD
ATOM     40  H   UNL     1      -9.818  -0.190  25.218  0.00  0.00    +0.000 HD
ATOM     41  H   UNL     1      -8.107  -0.328  24.836  0.00  0.00    +0.000 HD
ATOM     42  H   UNL     1      -9.890  -2.349  26.138  0.00  0.00    +0.000 HD
ATOM     43  H   UNL     1      -8.132  -2.198  26.207  0.00  0.00    +0.000 HD
ATOM     44  H   UNL     1      -9.835  -3.815  24.391  0.00  0.00    +0.000 HD
ATOM     45  H   UNL     1      -8.127  -4.021  24.743  0.00  0.00    +0.000 HD
ATOM     46  H   UNL     1      -9.057  -3.094  22.309  0.00  0.00    +0.000 HD
BRANCH  38  47
ATOM     47  C   UNL     1      -7.073  -2.441  22.870  0.00  0.00    +0.000 C 
ATOM     48  H   UNL     1      -6.508  -2.576  23.802  0.00  0.00    +0.000 HD
ATOM     49  H   UNL     1      -6.825  -1.440  22.495  0.00  0.00    +0.000 HD
BRANCH  47  50
ATOM     50  C   UNL     1      -6.606  -3.466  21.836  0.00  0.00    +0.000 A 
ATOM     51  C   UNL     1      -5.234  -3.637  21.597  0.00  0.00    +0.000 A 
ATOM     52  C   UNL     1      -4.776  -4.426  20.539  0.00  0.00    +0.000 A 
ATOM     53  C   UNL     1      -5.691  -5.112  19.751  0.00  0.00    +0.000 A 
ATOM     54  C   UNL     1      -7.051  -5.029  20.017  0.00  0.00    +0.000 A 
ATOM     55  C   UNL     1      -7.510  -4.200  21.055  0.00  0.00    +0.000 A 
ATOM     56  H   UNL     1      -4.504  -3.122  22.215  0.00  0.00    +0.000 HD
ATOM     57  H   UNL     1      -3.712  -4.469  20.337  0.00  0.00    +0.000 HD
ATOM     58  H   UNL     1      -7.754  -5.585  19.403  0.00  0.00    +0.000 HD
ATOM     59  H   UNL     1      -8.584  -4.120  21.218  0.00  0.00    +0.000 HD
BRANCH  53  60
ATOM     60  O   UNL     1      -5.277  -5.872  18.695  0.00  0.00    +0.000 OA
ATOM     61  H   UNL     1      -5.502  -6.801  18.875  0.00  0.00    +0.000 HD
ENDBRANCH  53  60
ENDBRANCH  47  50
ENDBRANCH  38  47
ENDBRANCH  33  34
ENDBRANCH  31  33
ENDBRANCH   4  31
BRANCH   6  62
ATOM     62  O   UNL     1     -12.653  -3.689  20.147  0.00  0.00    +0.000 OA
ATOM     63  H   UNL     1     -12.512  -3.968  21.069  0.00  0.00    +0.000 HD
ENDBRANCH   6  62
TORSDOF 14
ENDMDL
MODEL 6
REMARK VINA RESULT:    -8.697      2.982      9.551
REMARK INTER + INTRA:         -17.733
REMARK INTER:                 -16.712
REMARK INTRA:                  -1.021
REMARK UNBOUND:                -3.189
REMARK  Name = 
REMARK  14 active torsions:
REMARK  status: ('A' for Active; 'I' for Inactive)
REMARK    1  A    between atoms: C_1  and  O_2
REMARK    2  A    between atoms: O_2  and  C_3
REMARK    3  A    between atoms: C_3  and  C_5
REMARK    4  A    between atoms: C_9  and  O_10
REMARK    5  A    between atoms: C_11  and  C_12
REMARK    6  A    between atoms: C_12  and  C_14
REMARK    7  A    between atoms: C_15  and  O_16
REMARK    8  A    between atoms: C_18  and  C_19
REMARK    9  A    between atoms: C_19  and  O_21
REMARK   10  A    between atoms: O_21  and  C_22
REMARK   11  A    between atoms: C_26  and  C_27
REMARK   12  A    between atoms: C_27  and  C_28
REMARK   13  A    between atoms: C_31  and  O_32
REMARK   14  A    between atoms: C_36  and  O_37
REMARK                            x       y       z     vdW  Elec       q    Type
REMARK                         _______ _______ _______ _____ _____    ______ ____
ROOT
ATOM      1  C   UNL     1      -9.316  -2.534  22.140  0.00  0.00    +0.000 A 
ATOM      2  C   UNL     1      -8.420  -3.488  22.661  0.00  0.00    +0.000 A 
ATOM      3  C   UNL     1      -7.731  -4.382  21.820  0.00  0.00    +0.000 A 
ATOM      4  C   UNL     1      -7.895  -4.316  20.427  0.00  0.00    +0.000 A 
ATOM      5  C   UNL     1      -8.742  -3.338  19.900  0.00  0.00    +0.000 A 
ATOM      6  C   UNL     1      -9.441  -2.469  20.745  0.00  0.00    +0.000 A 
ATOM      7  H   UNL     1      -7.070  -5.125  22.264  0.00  0.00    +0.000 HD
ATOM      8  H   UNL     1      -8.859  -3.238  18.824  0.00  0.00    +0.000 HD
ENDROOT
BRANCH   1   9
ATOM      9  C   UNL     1     -10.141  -1.686  23.066  0.00  0.00    +0.000 C 
ATOM     10  O   UNL     1     -11.355  -1.891  23.119  0.00  0.00    +0.000 OA
BRANCH   9  16
ATOM     11  C   UNL     1      -9.299  -0.570  25.199  0.00  0.00    +0.000 A 
ATOM     12  C   UNL     1      -8.739   0.565  25.835  0.00  0.00    +0.000 A 
ATOM     13  C   UNL     1      -8.435   1.721  25.123  0.00  0.00    +0.000 A 
ATOM     14  C   UNL     1      -8.712   1.779  23.765  0.00  0.00    +0.000 A 
ATOM     15  C   UNL     1      -9.295   0.680  23.128  0.00  0.00    +0.000 A 
ATOM     16  C   UNL     1      -9.564  -0.525  23.816  0.00  0.00    +0.000 A 
ATOM     17  H   UNL     1      -8.505   0.547  26.899  0.00  0.00    +0.000 HD
ATOM     18  H   UNL     1      -7.980   2.570  25.629  0.00  0.00    +0.000 HD
ATOM     19  H   UNL     1      -8.475   2.686  23.219  0.00  0.00    +0.000 HD
BRANCH  11  20
ATOM     20  C   UNL     1      -9.459  -1.799  26.029  0.00  0.00    +0.000 C 
ATOM     21  O   UNL     1     -10.106  -2.781  25.713  0.00  0.00    +0.000 OA
BRANCH  20  22
ATOM     22  O   UNL     1      -8.670  -1.686  27.133  0.00  0.00    +0.000 OA
BRANCH  22  23
ATOM     23  C   UNL     1      -8.033  -2.893  27.562  0.00  0.00    +0.000 C 
ATOM     24  H   UNL     1      -8.301  -3.058  28.612  0.00  0.00    +0.000 HD
ATOM     25  H   UNL     1      -6.943  -2.823  27.503  0.00  0.00    +0.000 HD
ATOM     26  H   UNL     1      -8.404  -3.731  26.970  0.00  0.00    +0.000 HD
ENDBRANCH  22  23
ENDBRANCH  20  22
ENDBRANCH  11  20
BRANCH  15  27
ATOM     27  O   UNL     1      -9.589   0.802  21.794  0.00  0.00    +0.000 OA
ATOM     28  H   UNL     1      -9.465   1.727  21.522  0.00  0.00    +0.000 HD
ENDBRANCH  15  27
ENDBRANCH   9  16
ENDBRANCH   1   9
BRANCH   2  29
ATOM     29  O   UNL     1      -8.187  -3.620  24.008  0.00  0.00    +0.000 OA
ATOM     30  H   UNL     1      -8.736  -4.371  24.334  0.00  0.00    +0.000 HD
ENDBRANCH   2  29
BRANCH   4  31
ATOM     31  C   UNL     1      -7.192  -5.288  19.527  0.00  0.00    +0.000 C 
ATOM     32  O   UNL     1      -6.018  -5.199  19.229  0.00  0.00    +0.000 OA
BRANCH  31  33
ATOM     33  O   UNL     1      -8.047  -6.291  19.127  0.00  0.00    +0.000 OA
BRANCH  33  34
ATOM     34  C   UNL     1      -8.439  -6.253  17.749  0.00  0.00    +0.000 C 
ATOM     35  C   UNL     1      -9.814  -5.628  17.547  0.00  0.00    +0.000 C 
ATOM     36  C   UNL     1     -10.265  -6.104  16.170  0.00  0.00    +0.000 C 
ATOM     37  C   UNL     1      -9.356  -7.274  15.796  0.00  0.00    +0.000 C 
ATOM     38  C   UNL     1      -8.588  -7.642  17.078  0.00  0.00    +0.000 C 
ATOM     39  H   UNL     1      -7.686  -5.693  17.173  0.00  0.00    +0.000 HD
ATOM     40  H   UNL     1      -9.783  -4.536  17.608  0.00  0.00    +0.000 HD
ATOM     41  H   UNL     1     -10.508  -5.968  18.324  0.00  0.00    +0.000 HD
ATOM     42  H   UNL     1     -10.172  -5.307  15.425  0.00  0.00    +0.000 HD
ATOM     43  H   UNL     1     -11.316  -6.409  16.196  0.00  0.00    +0.000 HD
ATOM     44  H   UNL     1      -8.645  -6.953  15.024  0.00  0.00    +0.000 HD
ATOM     45  H   UNL     1      -9.932  -8.098  15.361  0.00  0.00    +0.000 HD
ATOM     46  H   UNL     1      -7.586  -8.004  16.822  0.00  0.00    +0.000 HD
BRANCH  38  47
ATOM     47  C   UNL     1      -9.320  -8.758  17.873  0.00  0.00    +0.000 C 
ATOM     48  H   UNL     1     -10.387  -8.518  17.977  0.00  0.00    +0.000 HD
ATOM     49  H   UNL     1      -8.913  -8.826  18.889  0.00  0.00    +0.000 HD
BRANCH  47  50
ATOM     50  C   UNL     1      -9.167 -10.125  17.205  0.00  0.00    +0.000 A 
ATOM     51  C   UNL     1      -8.869 -11.251  17.986  0.00  0.00    +0.000 A 
ATOM     52  C   UNL     1      -8.544 -12.476  17.398  0.00  0.00    +0.000 A 
ATOM     53  C   UNL     1      -8.583 -12.602  16.016  0.00  0.00    +0.000 A 
ATOM     54  C   UNL     1      -8.958 -11.528  15.220  0.00  0.00    +0.000 A 
ATOM     55  C   UNL     1      -9.243 -10.285  15.814  0.00  0.00    +0.000 A 
ATOM     56  H   UNL     1      -8.850 -11.174  19.070  0.00  0.00    +0.000 HD
ATOM     57  H   UNL     1      -8.240 -13.301  18.032  0.00  0.00    +0.000 HD
ATOM     58  H   UNL     1      -9.001 -11.647  14.141  0.00  0.00    +0.000 HD
ATOM     59  H   UNL     1      -9.494  -9.448  15.166  0.00  0.00    +0.000 HD
BRANCH  53  60
ATOM     60  O   UNL     1      -8.247 -13.778  15.409  0.00  0.00    +0.000 OA
ATOM     61  H   UNL     1      -7.876 -14.378  16.079  0.00  0.00    +0.000 HD
ENDBRANCH  53  60
ENDBRANCH  47  50
ENDBRANCH  38  47
ENDBRANCH  33  34
ENDBRANCH  31  33
ENDBRANCH   4  31
BRANCH   6  62
ATOM     62  O   UNL     1     -10.279  -1.564  20.152  0.00  0.00    +0.000 OA
ATOM     63  H   UNL     1     -10.103  -0.694  20.551  0.00  0.00    +0.000 HD
ENDBRANCH   6  62
TORSDOF 14
ENDMDL
MODEL 7
REMARK VINA RESULT:    -8.602      3.572      9.547
REMARK INTER + INTRA:         -17.574
REMARK INTER:                 -14.179
REMARK INTRA:                  -3.395
REMARK UNBOUND:                -3.189
REMARK  Name = 
REMARK  14 active torsions:
REMARK  status: ('A' for Active; 'I' for Inactive)
REMARK    1  A    between atoms: C_1  and  O_2
REMARK    2  A    between atoms: O_2  and  C_3
REMARK    3  A    between atoms: C_3  and  C_5
REMARK    4  A    between atoms: C_9  and  O_10
REMARK    5  A    between atoms: C_11  and  C_12
REMARK    6  A    between atoms: C_12  and  C_14
REMARK    7  A    between atoms: C_15  and  O_16
REMARK    8  A    between atoms: C_18  and  C_19
REMARK    9  A    between atoms: C_19  and  O_21
REMARK   10  A    between atoms: O_21  and  C_22
REMARK   11  A    between atoms: C_26  and  C_27
REMARK   12  A    between atoms: C_27  and  C_28
REMARK   13  A    between atoms: C_31  and  O_32
REMARK   14  A    between atoms: C_36  and  O_37
REMARK                            x       y       z     vdW  Elec       q    Type
REMARK                         _______ _______ _______ _____ _____    ______ ____
ROOT
ATOM      1  C   UNL     1     -11.082  -0.891  20.882  0.00  0.00    +0.000 A 
ATOM      2  C   UNL     1     -11.666  -2.163  20.723  0.00  0.00    +0.000 A 
ATOM      3  C   UNL     1     -11.477  -2.914  19.548  0.00  0.00    +0.000 A 
ATOM      4  C   UNL     1     -10.665  -2.422  18.514  0.00  0.00    +0.000 A 
ATOM      5  C   UNL     1     -10.040  -1.184  18.687  0.00  0.00    +0.000 A 
ATOM      6  C   UNL     1     -10.252  -0.434  19.849  0.00  0.00    +0.000 A 
ATOM      7  H   UNL     1     -11.970  -3.880  19.451  0.00  0.00    +0.000 HD
ATOM      8  H   UNL     1      -9.374  -0.796  17.920  0.00  0.00    +0.000 HD
ENDROOT
BRANCH   1   9
ATOM      9  C   UNL     1     -11.409  -0.053  22.086  0.00  0.00    +0.000 C 
ATOM     10  O   UNL     1     -12.545   0.416  22.178  0.00  0.00    +0.000 OA
BRANCH   9  16
ATOM     11  C   UNL     1      -9.849  -0.572  24.035  0.00  0.00    +0.000 A 
ATOM     12  C   UNL     1      -8.862  -0.131  24.949  0.00  0.00    +0.000 A 
ATOM     13  C   UNL     1      -8.392   1.178  24.936  0.00  0.00    +0.000 A 
ATOM     14  C   UNL     1      -8.920   2.084  24.028  0.00  0.00    +0.000 A 
ATOM     15  C   UNL     1      -9.919   1.674  23.140  0.00  0.00    +0.000 A 
ATOM     16  C   UNL     1     -10.375   0.337  23.096  0.00  0.00    +0.000 A 
ATOM     17  H   UNL     1      -8.423  -0.821  25.670  0.00  0.00    +0.000 HD
ATOM     18  H   UNL     1      -7.613   1.486  25.631  0.00  0.00    +0.000 HD
ATOM     19  H   UNL     1      -8.550   3.104  24.028  0.00  0.00    +0.000 HD
BRANCH  11  20
ATOM     20  C   UNL     1     -10.181  -2.026  24.048  0.00  0.00    +0.000 C 
ATOM     21  O   UNL     1     -11.240  -2.502  24.415  0.00  0.00    +0.000 OA
BRANCH  20  22
ATOM     22  O   UNL     1      -9.154  -2.714  23.474  0.00  0.00    +0.000 OA
BRANCH  22  23
ATOM     23  C   UNL     1      -8.467  -3.627  24.334  0.00  0.00    +0.000 C 
ATOM     24  H   UNL     1      -8.813  -3.449  25.358  0.00  0.00    +0.000 HD
ATOM     25  H   UNL     1      -7.385  -3.470  24.315  0.00  0.00    +0.000 HD
ATOM     26  H   UNL     1      -8.718  -4.652  24.052  0.00  0.00    +0.000 HD
ENDBRANCH  22  23
ENDBRANCH  20  22
ENDBRANCH  11  20
BRANCH  15  27
ATOM     27  O   UNL     1     -10.438   2.617  22.291  0.00  0.00    +0.000 OA
ATOM     28  H   UNL     1     -10.814   3.346  22.812  0.00  0.00    +0.000 HD
ENDBRANCH  15  27
ENDBRANCH   9  16
ENDBRANCH   1   9
BRANCH   2  29
ATOM     29  O   UNL     1     -12.466  -2.730  21.684  0.00  0.00    +0.000 OA
ATOM     30  H   UNL     1     -12.104  -3.625  21.885  0.00  0.00    +0.000 HD
ENDBRANCH   2  29
BRANCH   4  31
ATOM     31  C   UNL     1     -10.487  -3.200  17.244  0.00  0.00    +0.000 C 
ATOM     32  O   UNL     1     -10.030  -2.726  16.224  0.00  0.00    +0.000 OA
BRANCH  31  33
ATOM     33  O   UNL     1     -10.880  -4.509  17.414  0.00  0.00    +0.000 OA
BRANCH  33  34
ATOM     34  C   UNL     1     -10.118  -5.481  16.686  0.00  0.00    +0.000 C 
ATOM     35  C   UNL     1     -10.856  -6.804  16.527  0.00  0.00    +0.000 C 
ATOM     36  C   UNL     1      -9.769  -7.824  16.198  0.00  0.00    +0.000 C 
ATOM     37  C   UNL     1      -8.437  -7.170  16.562  0.00  0.00    +0.000 C 
ATOM     38  C   UNL     1      -8.790  -5.904  17.362  0.00  0.00    +0.000 C 
ATOM     39  H   UNL     1      -9.864  -5.073  15.695  0.00  0.00    +0.000 HD
ATOM     40  H   UNL     1     -11.619  -6.760  15.744  0.00  0.00    +0.000 HD
ATOM     41  H   UNL     1     -11.372  -7.071  17.457  0.00  0.00    +0.000 HD
ATOM     42  H   UNL     1      -9.779  -8.084  15.135  0.00  0.00    +0.000 HD
ATOM     43  H   UNL     1      -9.928  -8.748  16.765  0.00  0.00    +0.000 HD
ATOM     44  H   UNL     1      -7.905  -6.887  15.645  0.00  0.00    +0.000 HD
ATOM     45  H   UNL     1      -7.785  -7.873  17.092  0.00  0.00    +0.000 HD
ATOM     46  H   UNL     1      -8.047  -5.121  17.168  0.00  0.00    +0.000 HD
BRANCH  38  47
ATOM     47  C   UNL     1      -8.809  -6.188  18.889  0.00  0.00    +0.000 C 
ATOM     48  H   UNL     1      -8.845  -7.270  19.077  0.00  0.00    +0.000 HD
ATOM     49  H   UNL     1      -9.713  -5.761  19.341  0.00  0.00    +0.000 HD
BRANCH  47  50
ATOM     50  C   UNL     1      -7.593  -5.588  19.595  0.00  0.00    +0.000 A 
ATOM     51  C   UNL     1      -7.776  -4.629  20.601  0.00  0.00    +0.000 A 
ATOM     52  C   UNL     1      -6.694  -3.927  21.140  0.00  0.00    +0.000 A 
ATOM     53  C   UNL     1      -5.406  -4.233  20.723  0.00  0.00    +0.000 A 
ATOM     54  C   UNL     1      -5.186  -5.237  19.790  0.00  0.00    +0.000 A 
ATOM     55  C   UNL     1      -6.281  -5.911  19.219  0.00  0.00    +0.000 A 
ATOM     56  H   UNL     1      -8.777  -4.389  20.952  0.00  0.00    +0.000 HD
ATOM     57  H   UNL     1      -6.884  -3.137  21.857  0.00  0.00    +0.000 HD
ATOM     58  H   UNL     1      -4.171  -5.477  19.486  0.00  0.00    +0.000 HD
ATOM     59  H   UNL     1      -6.085  -6.665  18.459  0.00  0.00    +0.000 HD
BRANCH  53  60
ATOM     60  O   UNL     1      -4.329  -3.549  21.211  0.00  0.00    +0.000 OA
ATOM     61  H   UNL     1      -4.027  -2.921  20.533  0.00  0.00    +0.000 HD
ENDBRANCH  53  60
ENDBRANCH  47  50
ENDBRANCH  38  47
ENDBRANCH  33  34
ENDBRANCH  31  33
ENDBRANCH   4  31
BRANCH   6  62
ATOM     62  O   UNL     1      -9.633   0.785  19.924  0.00  0.00    +0.000 OA
ATOM     63  H   UNL     1     -10.325   1.468  19.881  0.00  0.00    +0.000 HD
ENDBRANCH   6  62
TORSDOF 14
ENDMDL
MODEL 8
REMARK VINA RESULT:    -8.559      2.603      9.119
REMARK INTER + INTRA:         -17.503
REMARK INTER:                 -15.913
REMARK INTRA:                  -1.591
REMARK UNBOUND:                -3.189
REMARK  Name = 
REMARK  14 active torsions:
REMARK  status: ('A' for Active; 'I' for Inactive)
REMARK    1  A    between atoms: C_1  and  O_2
REMARK    2  A    between atoms: O_2  and  C_3
REMARK    3  A    between atoms: C_3  and  C_5
REMARK    4  A    between atoms: C_9  and  O_10
REMARK    5  A    between atoms: C_11  and  C_12
REMARK    6  A    between atoms: C_12  and  C_14
REMARK    7  A    between atoms: C_15  and  O_16
REMARK    8  A    between atoms: C_18  and  C_19
REMARK    9  A    between atoms: C_19  and  O_21
REMARK   10  A    between atoms: O_21  and  C_22
REMARK   11  A    between atoms: C_26  and  C_27
REMARK   12  A    between atoms: C_27  and  C_28
REMARK   13  A    between atoms: C_31  and  O_32
REMARK   14  A    between atoms: C_36  and  O_37
REMARK                            x       y       z     vdW  Elec       q    Type
REMARK                         _______ _______ _______ _____ _____    ______ ____
ROOT
ATOM      1  C   UNL     1     -10.529  -1.788  19.012  0.00  0.00    +0.000 A 
ATOM      2  C   UNL     1      -9.926  -1.702  17.742  0.00  0.00    +0.000 A 
ATOM      3  C   UNL     1     -10.263  -2.595  16.709  0.00  0.00    +0.000 A 
ATOM      4  C   UNL     1     -11.244  -3.578  16.912  0.00  0.00    +0.000 A 
ATOM      5  C   UNL     1     -11.885  -3.636  18.152  0.00  0.00    +0.000 A 
ATOM      6  C   UNL     1     -11.527  -2.759  19.182  0.00  0.00    +0.000 A 
ATOM      7  H   UNL     1      -9.752  -2.515  15.750  0.00  0.00    +0.000 HD
ATOM      8  H   UNL     1     -12.676  -4.361  18.326  0.00  0.00    +0.000 HD
ENDROOT
BRANCH   1   9
ATOM      9  C   UNL     1     -10.055  -0.912  20.137  0.00  0.00    +0.000 C 
ATOM     10  O   UNL     1      -9.737   0.249  19.877  0.00  0.00    +0.000 OA
BRANCH   9  16
ATOM     11  C   UNL     1     -10.625  -1.052  22.619  0.00  0.00    +0.000 A 
ATOM     12  C   UNL     1     -10.359  -1.604  23.895  0.00  0.00    +0.000 A 
ATOM     13  C   UNL     1      -9.337  -2.528  24.089  0.00  0.00    +0.000 A 
ATOM     14  C   UNL     1      -8.538  -2.897  23.017  0.00  0.00    +0.000 A 
ATOM     15  C   UNL     1      -8.765  -2.337  21.757  0.00  0.00    +0.000 A 
ATOM     16  C   UNL     1      -9.831  -1.438  21.521  0.00  0.00    +0.000 A 
ATOM     17  H   UNL     1     -10.974  -1.339  24.755  0.00  0.00    +0.000 HD
ATOM     18  H   UNL     1      -9.170  -2.959  25.075  0.00  0.00    +0.000 HD
ATOM     19  H   UNL     1      -7.741  -3.616  23.179  0.00  0.00    +0.000 HD
BRANCH  11  20
ATOM     20  C   UNL     1     -11.826  -0.176  22.499  0.00  0.00    +0.000 C 
ATOM     21  O   UNL     1     -12.938  -0.550  22.172  0.00  0.00    +0.000 OA
BRANCH  20  22
ATOM     22  O   UNL     1     -11.500   1.074  22.928  0.00  0.00    +0.000 OA
BRANCH  22  23
ATOM     23  C   UNL     1     -12.283   2.139  22.381  0.00  0.00    +0.000 C 
ATOM     24  H   UNL     1     -11.684   2.634  21.609  0.00  0.00    +0.000 HD
ATOM     25  H   UNL     1     -12.540   2.887  23.137  0.00  0.00    +0.000 HD
ATOM     26  H   UNL     1     -13.181   1.728  21.917  0.00  0.00    +0.000 HD
ENDBRANCH  22  23
ENDBRANCH  20  22
ENDBRANCH  11  20
BRANCH  15  27
ATOM     27  O   UNL     1      -7.922  -2.702  20.739  0.00  0.00    +0.000 OA
ATOM     28  H   UNL     1      -7.264  -3.331  21.078  0.00  0.00    +0.000 HD
ENDBRANCH  15  27
ENDBRANCH   9  16
ENDBRANCH   1   9
BRANCH   2  29
ATOM     29  O   UNL     1      -8.964  -0.767  17.448  0.00  0.00    +0.000 OA
ATOM     30  H   UNL     1      -9.393  -0.053  16.919  0.00  0.00    +0.000 HD
ENDBRANCH   2  29
BRANCH   4  31
ATOM     31  C   UNL     1     -11.583  -4.557  15.827  0.00  0.00    +0.000 C 
ATOM     32  O   UNL     1     -11.823  -4.233  14.682  0.00  0.00    +0.000 OA
BRANCH  31  33
ATOM     33  O   UNL     1     -11.549  -5.848  16.305  0.00  0.00    +0.000 OA
BRANCH  33  34
ATOM     34  C   UNL     1     -10.302  -6.261  16.876  0.00  0.00    +0.000 C 
ATOM     35  C   UNL     1      -9.155  -6.216  15.874  0.00  0.00    +0.000 C 
ATOM     36  C   UNL     1      -8.076  -7.117  16.469  0.00  0.00    +0.000 C 
ATOM     37  C   UNL     1      -8.757  -7.949  17.555  0.00  0.00    +0.000 C 
ATOM     38  C   UNL     1     -10.269  -7.727  17.375  0.00  0.00    +0.000 C 
ATOM     39  H   UNL     1     -10.068  -5.618  17.740  0.00  0.00    +0.000 HD
ATOM     40  H   UNL     1      -8.788  -5.198  15.712  0.00  0.00    +0.000 HD
ATOM     41  H   UNL     1      -9.483  -6.593  14.898  0.00  0.00    +0.000 HD
ATOM     42  H   UNL     1      -7.264  -6.527  16.905  0.00  0.00    +0.000 HD
ATOM     43  H   UNL     1      -7.640  -7.755  15.692  0.00  0.00    +0.000 HD
ATOM     44  H   UNL     1      -8.449  -7.583  18.543  0.00  0.00    +0.000 HD
ATOM     45  H   UNL     1      -8.443  -8.997  17.502  0.00  0.00    +0.000 HD
ATOM     46  H   UNL     1     -10.770  -7.765  18.349  0.00  0.00    +0.000 HD
BRANCH  38  47
ATOM     47  C   UNL     1     -10.894  -8.819  16.464  0.00  0.00    +0.000 C 
ATOM     48  H   UNL     1     -11.149  -8.398  15.482  0.00  0.00    +0.000 HD
ATOM     49  H   UNL     1     -11.831  -9.184  16.901  0.00  0.00    +0.000 HD
BRANCH  47  50
ATOM     50  C   UNL     1      -9.957 -10.012  16.280  0.00  0.00    +0.000 A 
ATOM     51  C   UNL     1      -9.461 -10.317  15.004  0.00  0.00    +0.000 A 
ATOM     52  C   UNL     1      -8.753 -11.498  14.764  0.00  0.00    +0.000 A 
ATOM     53  C   UNL     1      -8.474 -12.354  15.820  0.00  0.00    +0.000 A 
ATOM     54  C   UNL     1      -8.878 -12.037  17.110  0.00  0.00    +0.000 A 
ATOM     55  C   UNL     1      -9.627 -10.869  17.340  0.00  0.00    +0.000 A 
ATOM     56  H   UNL     1      -9.655  -9.650  14.169  0.00  0.00    +0.000 HD
ATOM     57  H   UNL     1      -8.457 -11.737  13.749  0.00  0.00    +0.000 HD
ATOM     58  H   UNL     1      -8.637 -12.708  17.930  0.00  0.00    +0.000 HD
ATOM     59  H   UNL     1      -9.968 -10.664  18.353  0.00  0.00    +0.000 HD
BRANCH  53  60
ATOM     60  O   UNL     1      -7.806 -13.528  15.616  0.00  0.00    +0.000 OA
ATOM     61  H   UNL     1      -6.898 -13.323  15.334  0.00  0.00    +0.000 HD
ENDBRANCH  53  60
ENDBRANCH  47  50
ENDBRANCH  38  47
ENDBRANCH  33  34
ENDBRANCH  31  33
ENDBRANCH   4  31
BRANCH   6  62
ATOM     62  O   UNL     1     -12.175  -2.906  20.378  0.00  0.00    +0.000 OA
ATOM     63  H   UNL     1     -13.075  -3.225  20.187  0.00  0.00    +0.000 HD
ENDBRANCH   6  62
TORSDOF 14
ENDMDL
MODEL 9
REMARK VINA RESULT:    -8.530      2.971      8.709
REMARK INTER + INTRA:         -17.454
REMARK INTER:                 -14.800
REMARK INTRA:                  -2.654
REMARK UNBOUND:                -3.189
REMARK  Name = 
REMARK  14 active torsions:
REMARK  status: ('A' for Active; 'I' for Inactive)
REMARK    1  A    between atoms: C_1  and  O_2
REMARK    2  A    between atoms: O_2  and  C_3
REMARK    3  A    between atoms: C_3  and  C_5
REMARK    4  A    between atoms: C_9  and  O_10
REMARK    5  A    between atoms: C_11  and  C_12
REMARK    6  A    between atoms: C_12  and  C_14
REMARK    7  A    between atoms: C_15  and  O_16
REMARK    8  A    between atoms: C_18  and  C_19
REMARK    9  A    between atoms: C_19  and  O_21
REMARK   10  A    between atoms: O_21  and  C_22
REMARK   11  A    between atoms: C_26  and  C_27
REMARK   12  A    between atoms: C_27  and  C_28
REMARK   13  A    between atoms: C_31  and  O_32
REMARK   14  A    between atoms: C_36  and  O_37
REMARK                            x       y       z     vdW  Elec       q    Type
REMARK                         _______ _______ _______ _____ _____    ______ ____
ROOT
ATOM      1  C   UNL     1     -10.518  -3.842  15.215  0.00  0.00    +0.000 A 
ATOM      2  C   UNL     1      -9.639  -4.701  14.528  0.00  0.00    +0.000 A 
ATOM      3  C   UNL     1      -9.564  -6.072  14.838  0.00  0.00    +0.000 A 
ATOM      4  C   UNL     1     -10.399  -6.624  15.822  0.00  0.00    +0.000 A 
ATOM      5  C   UNL     1     -11.311  -5.788  16.470  0.00  0.00    +0.000 A 
ATOM      6  C   UNL     1     -11.362  -4.422  16.173  0.00  0.00    +0.000 A 
ATOM      7  H   UNL     1      -8.849  -6.698  14.304  0.00  0.00    +0.000 HD
ATOM      8  H   UNL     1     -11.996  -6.195  17.209  0.00  0.00    +0.000 HD
ENDROOT
BRANCH   1   9
ATOM      9  C   UNL     1     -10.482  -2.361  14.962  0.00  0.00    +0.000 C 
ATOM     10  O   UNL     1      -9.558  -1.709  15.452  0.00  0.00    +0.000 OA
BRANCH   9  16
ATOM     11  C   UNL     1     -11.732  -1.658  12.854  0.00  0.00    +0.000 A 
ATOM     12  C   UNL     1     -12.814  -0.964  12.260  0.00  0.00    +0.000 A 
ATOM     13  C   UNL     1     -13.746  -0.274  13.029  0.00  0.00    +0.000 A 
ATOM     14  C   UNL     1     -13.599  -0.237  14.408  0.00  0.00    +0.000 A 
ATOM     15  C   UNL     1     -12.517  -0.889  15.008  0.00  0.00    +0.000 A 
ATOM     16  C   UNL     1     -11.589  -1.642  14.255  0.00  0.00    +0.000 A 
ATOM     17  H   UNL     1     -12.960  -0.980  11.180  0.00  0.00    +0.000 HD
ATOM     18  H   UNL     1     -14.584   0.228  12.551  0.00  0.00    +0.000 HD
ATOM     19  H   UNL     1     -14.328   0.307  15.000  0.00  0.00    +0.000 HD
BRANCH  11  20
ATOM     20  C   UNL     1     -10.874  -2.474  11.947  0.00  0.00    +0.000 C 
ATOM     21  O   UNL     1      -9.782  -2.140  11.524  0.00  0.00    +0.000 OA
BRANCH  20  22
ATOM     22  O   UNL     1     -11.458  -3.692  11.772  0.00  0.00    +0.000 OA
BRANCH  22  23
ATOM     23  C   UNL     1     -11.854  -3.999  10.432  0.00  0.00    +0.000 C 
ATOM     24  H   UNL     1     -10.966  -3.925   9.794  0.00  0.00    +0.000 HD
ATOM     25  H   UNL     1     -12.597  -3.291  10.054  0.00  0.00    +0.000 HD
ATOM     26  H   UNL     1     -12.232  -5.022  10.389  0.00  0.00    +0.000 HD
ENDBRANCH  22  23
ENDBRANCH  20  22
ENDBRANCH  11  20
BRANCH  15  27
ATOM     27  O   UNL     1     -12.393  -0.787  16.370  0.00  0.00    +0.000 OA
ATOM     28  H   UNL     1     -12.507   0.141  16.634  0.00  0.00    +0.000 HD
ENDBRANCH  15  27
ENDBRANCH   9  16
ENDBRANCH   1   9
BRANCH   2  29
ATOM     29  O   UNL     1      -8.792  -4.253  13.544  0.00  0.00    +0.000 OA
ATOM     30  H   UNL     1      -7.943  -3.996  13.975  0.00  0.00    +0.000 HD
ENDBRANCH   2  29
BRANCH   4  31
ATOM     31  C   UNL     1     -10.300  -8.078  16.182  0.00  0.00    +0.000 C 
ATOM     32  O   UNL     1     -11.092  -8.918  15.807  0.00  0.00    +0.000 OA
BRANCH  31  33
ATOM     33  O   UNL     1      -9.184  -8.314  16.954  0.00  0.00    +0.000 OA
BRANCH  33  34
ATOM     34  C   UNL     1      -9.396  -8.281  18.370  0.00  0.00    +0.000 C 
ATOM     35  C   UNL     1      -8.390  -7.393  19.092  0.00  0.00    +0.000 C 
ATOM     36  C   UNL     1      -8.437  -7.847  20.548  0.00  0.00    +0.000 C 
ATOM     37  C   UNL     1      -9.141  -9.204  20.557  0.00  0.00    +0.000 C 
ATOM     38  C   UNL     1      -9.229  -9.645  19.085  0.00  0.00    +0.000 C 
ATOM     39  H   UNL     1     -10.419  -7.929  18.575  0.00  0.00    +0.000 HD
ATOM     40  H   UNL     1      -8.631  -6.330  18.992  0.00  0.00    +0.000 HD
ATOM     41  H   UNL     1      -7.386  -7.530  18.674  0.00  0.00    +0.000 HD
ATOM     42  H   UNL     1      -8.993  -7.136  21.168  0.00  0.00    +0.000 HD
ATOM     43  H   UNL     1      -7.424  -7.921  20.959  0.00  0.00    +0.000 HD
ATOM     44  H   UNL     1     -10.153  -9.089  20.965  0.00  0.00    +0.000 HD
ATOM     45  H   UNL     1      -8.622  -9.912  21.211  0.00  0.00    +0.000 HD
ATOM     46  H   UNL     1     -10.144 -10.226  18.924  0.00  0.00    +0.000 HD
BRANCH  38  47
ATOM     47  C   UNL     1      -8.016 -10.530  18.688  0.00  0.00    +0.000 C 
ATOM     48  H   UNL     1      -7.542 -10.955  19.583  0.00  0.00    +0.000 HD
ATOM     49  H   UNL     1      -7.252  -9.921  18.188  0.00  0.00    +0.000 HD
BRANCH  47  50
ATOM     50  C   UNL     1      -8.421 -11.659  17.740  0.00  0.00    +0.000 A 
ATOM     51  C   UNL     1      -8.594 -12.958  18.240  0.00  0.00    +0.000 A 
ATOM     52  C   UNL     1      -8.784 -14.045  17.383  0.00  0.00    +0.000 A 
ATOM     53  C   UNL     1      -8.873 -13.830  16.015  0.00  0.00    +0.000 A 
ATOM     54  C   UNL     1      -8.791 -12.544  15.497  0.00  0.00    +0.000 A 
ATOM     55  C   UNL     1      -8.556 -11.458  16.358  0.00  0.00    +0.000 A 
ATOM     56  H   UNL     1      -8.545 -13.143  19.310  0.00  0.00    +0.000 HD
ATOM     57  H   UNL     1      -8.833 -15.044  17.802  0.00  0.00    +0.000 HD
ATOM     58  H   UNL     1      -8.880 -12.389  14.425  0.00  0.00    +0.000 HD
ATOM     59  H   UNL     1      -8.454 -10.465  15.924  0.00  0.00    +0.000 HD
BRANCH  53  60
ATOM     60  O   UNL     1      -9.034 -14.873  15.148  0.00  0.00    +0.000 OA
ATOM     61  H   UNL     1      -9.394 -15.632  15.640  0.00  0.00    +0.000 HD
ENDBRANCH  53  60
ENDBRANCH  47  50
ENDBRANCH  38  47
ENDBRANCH  33  34
ENDBRANCH  31  33
ENDBRANCH   4  31
BRANCH   6  62
ATOM     62  O   UNL     1     -12.257  -3.664  16.880  0.00  0.00    +0.000 OA
ATOM     63  H   UNL     1     -12.185  -2.749  16.558  0.00  0.00    +0.000 HD
ENDBRANCH   6  62
TORSDOF 14
ENDMDL
