MODEL 1
REMARK VINA RESULT:   -10.303      0.000      0.000
REMARK INTER + INTRA:         -13.491
REMARK INTER:                 -13.013
REMARK INTRA:                  -0.479
REMARK UNBOUND:                -0.479
REMARK  Name = 
REMARK  5 active torsions:
REMARK  status: ('A' for Active; 'I' for Inactive)
REMARK    1  A    between atoms: C_1  and  N_2
REMARK    2  A    between atoms: N_2  and  C_3
REMARK    3  A    between atoms: C_3  and  C_4
REMARK    4  A    between atoms: C_4  and  C_5
REMARK    5  A    between atoms: C_5  and  N_6
REMARK                            x       y       z     vdW  Elec       q    Type
REMARK                         _______ _______ _______ _____ _____    ______ ____
ROOT
ATOM      1  N   UNL     1      -9.451  -8.796  16.516  0.00  0.00    +0.000 N 
ATOM      2  C   UNL     1      -9.048  -9.372  17.747  0.00  0.00    +0.000 A 
ATOM      3  C   UNL     1      -8.854 -10.714  18.131  0.00  0.00    +0.000 A 
ATOM      4  C   UNL     1      -8.402 -10.996  19.429  0.00  0.00    +0.000 A 
ATOM      5  C   UNL     1      -8.168  -9.969  20.336  0.00  0.00    +0.000 A 
ATOM      6  C   UNL     1      -8.403  -8.647  19.974  0.00  0.00    +0.000 A 
ATOM      7  C   UNL     1      -8.842  -8.333  18.670  0.00  0.00    +0.000 A 
ATOM      8  C   UNL     1      -9.186  -7.201  17.969  0.00  0.00    +0.000 A 
ATOM      9  C   UNL     1      -9.163  -5.878  18.491  0.00  0.00    +0.000 A 
ATOM     10  C   UNL     1      -9.720  -4.849  17.703  0.00  0.00    +0.000 A 
ATOM     11  C   UNL     1     -10.278  -5.198  16.446  0.00  0.00    +0.000 A 
ATOM     12  C   UNL     1     -10.648  -4.258  15.510  0.00  0.00    +0.000 A 
ATOM     13  C   UNL     1     -11.875  -3.719  15.073  0.00  0.00    +0.000 A 
ATOM     14  C   UNL     1     -11.909  -3.032  13.855  0.00  0.00    +0.000 A 
ATOM     15  C   UNL     1     -10.722  -2.802  13.169  0.00  0.00    +0.000 A 
ATOM     16  C   UNL     1      -9.571  -3.533  13.487  0.00  0.00    +0.000 A 
ATOM     17  C   UNL     1      -9.715  -4.489  14.498  0.00  0.00    +0.000 A 
ATOM     18  N   UNL     1      -9.613  -5.914  14.536  0.00  0.00    +0.000 N 
ATOM     19  C   UNL     1      -9.748  -6.312  15.856  0.00  0.00    +0.000 A 
ATOM     20  C   UNL     1      -9.475  -7.415  16.651  0.00  0.00    +0.000 A 
ATOM     21  C   UNL     1      -9.532  -3.594  18.357  0.00  0.00    +0.000 C 
ATOM     22  O   UNL     1      -9.669  -2.427  18.013  0.00  0.00    +0.000 OA
ATOM     23  N   UNL     1      -9.024  -3.965  19.572  0.00  0.00    +0.000 N 
ATOM     24  C   UNL     1      -8.663  -5.264  19.704  0.00  0.00    +0.000 C 
ATOM     25  O   UNL     1      -7.995  -5.678  20.663  0.00  0.00    +0.000 OA
ATOM     26  H   UNL     1      -9.026 -11.541  17.440  0.00  0.00    +0.000 HD
ATOM     27  H   UNL     1      -8.222 -12.019  19.739  0.00  0.00    +0.000 HD
ATOM     28  H   UNL     1      -7.802 -10.185  21.337  0.00  0.00    +0.000 HD
ATOM     29  H   UNL     1      -8.223  -7.881  20.711  0.00  0.00    +0.000 HD
ATOM     30  H   UNL     1     -12.786  -3.945  15.616  0.00  0.00    +0.000 HD
ATOM     31  H   UNL     1     -12.849  -2.642  13.479  0.00  0.00    +0.000 HD
ATOM     32  H   UNL     1     -10.690  -2.047  12.385  0.00  0.00    +0.000 HD
ATOM     33  H   UNL     1      -8.592  -3.158  13.186  0.00  0.00    +0.000 HD
ATOM     34  H   UNL     1      -9.449  -6.495  13.726  0.00  0.00    +0.000 HD
ATOM     35  H   UNL     1      -8.690  -3.277  20.231  0.00  0.00    +0.000 HD
ENDROOT
BRANCH   1  36
ATOM     36  C   UNL     1      -9.881  -9.589  15.370  0.00  0.00    +0.000 C 
ATOM     37  H   UNL     1     -10.420 -10.465  15.745  0.00  0.00    +0.000 HD
ATOM     38  H   UNL     1     -10.615  -8.998  14.814  0.00  0.00    +0.000 HD
BRANCH  36  39
ATOM     39  C   UNL     1      -8.762  -9.998  14.386  0.00  0.00    +0.000 C 
ATOM     40  H   UNL     1      -9.171 -10.035  13.370  0.00  0.00    +0.000 HD
ATOM     41  H   UNL     1      -7.982  -9.224  14.344  0.00  0.00    +0.000 HD
BRANCH  39  42
ATOM     42  C   UNL     1      -8.113 -11.346  14.719  0.00  0.00    +0.000 C 
ATOM     43  H   UNL     1      -7.515 -11.701  13.870  0.00  0.00    +0.000 HD
ATOM     44  H   UNL     1      -7.403 -11.212  15.543  0.00  0.00    +0.000 HD
BRANCH  42  45
ATOM     45  N   UNL     1      -9.098 -12.364  15.098  0.00  0.00    +0.000 NA
ATOM     46  H   UNL     1      -9.648 -12.014  15.884  0.00  0.00    +0.000 HD
BRANCH  45  47
ATOM     47  C   UNL     1      -8.494 -13.639  15.452  0.00  0.00    +0.000 C 
ATOM     48  H   UNL     1      -9.017 -14.058  16.317  0.00  0.00    +0.000 HD
ATOM     49  H   UNL     1      -7.436 -13.527  15.703  0.00  0.00    +0.000 HD
ATOM     50  H   UNL     1      -8.598 -14.375  14.650  0.00  0.00    +0.000 HD
ENDBRANCH  45  47
ENDBRANCH  42  45
ENDBRANCH  39  42
ENDBRANCH  36  39
ENDBRANCH   1  36
TORSDOF 5
ENDMDL
MODEL 2
REMARK VINA RESULT:    -8.944      2.556      6.397
REMARK INTER + INTRA:         -11.775
REMARK INTER:                 -10.672
REMARK INTRA:                  -1.103
REMARK UNBOUND:                -0.479
REMARK  Name = 
REMARK  5 active torsions:
REMARK  status: ('A' for Active; 'I' for Inactive)
REMARK    1  A    between atoms: C_1  and  N_2
REMARK    2  A    between atoms: N_2  and  C_3
REMARK    3  A    between atoms: C_3  and  C_4
REMARK    4  A    between atoms: C_4  and  C_5
REMARK    5  A    between atoms: C_5  and  N_6
REMARK                            x       y       z     vdW  Elec       q    Type
REMARK                         _______ _______ _______ _____ _____    ______ ____
ROOT
ATOM      1  N   UNL     1     -11.390  -2.570  17.160  0.00  0.00    +0.000 N 
ATOM      2  C   UNL     1     -11.038  -1.476  17.991  0.00  0.00    +0.000 A 
ATOM      3  C   UNL     1     -11.451  -0.128  17.983  0.00  0.00    +0.000 A 
ATOM      4  C   UNL     1     -10.963   0.742  18.971  0.00  0.00    +0.000 A 
ATOM      5  C   UNL     1     -10.067   0.291  19.932  0.00  0.00    +0.000 A 
ATOM      6  C   UNL     1      -9.623  -1.028  19.913  0.00  0.00    +0.000 A 
ATOM      7  C   UNL     1     -10.110  -1.929  18.942  0.00  0.00    +0.000 A 
ATOM      8  C   UNL     1      -9.908  -3.246  18.601  0.00  0.00    +0.000 A 
ATOM      9  C   UNL     1      -9.022  -4.136  19.267  0.00  0.00    +0.000 A 
ATOM     10  C   UNL     1      -8.792  -5.399  18.681  0.00  0.00    +0.000 A 
ATOM     11  C   UNL     1      -9.449  -5.696  17.459  0.00  0.00    +0.000 A 
ATOM     12  C   UNL     1      -9.470  -6.962  16.915  0.00  0.00    +0.000 A 
ATOM     13  C   UNL     1      -8.796  -7.600  15.853  0.00  0.00    +0.000 A 
ATOM     14  C   UNL     1      -9.317  -8.798  15.353  0.00  0.00    +0.000 A 
ATOM     15  C   UNL     1     -10.410  -9.382  15.984  0.00  0.00    +0.000 A 
ATOM     16  C   UNL     1     -11.197  -8.634  16.867  0.00  0.00    +0.000 A 
ATOM     17  C   UNL     1     -10.819  -7.298  17.040  0.00  0.00    +0.000 A 
ATOM     18  N   UNL     1     -11.443  -6.046  16.749  0.00  0.00    +0.000 N 
ATOM     19  C   UNL     1     -10.630  -5.041  17.250  0.00  0.00    +0.000 A 
ATOM     20  C   UNL     1     -10.714  -3.701  17.596  0.00  0.00    +0.000 A 
ATOM     21  C   UNL     1      -7.946  -6.172  19.531  0.00  0.00    +0.000 C 
ATOM     22  O   UNL     1      -7.614  -7.350  19.557  0.00  0.00    +0.000 OA
ATOM     23  N   UNL     1      -7.585  -5.267  20.493  0.00  0.00    +0.000 N 
ATOM     24  C   UNL     1      -8.251  -4.088  20.493  0.00  0.00    +0.000 C 
ATOM     25  O   UNL     1      -8.180  -3.280  21.430  0.00  0.00    +0.000 OA
ATOM     26  H   UNL     1     -12.155   0.254  17.243  0.00  0.00    +0.000 HD
ATOM     27  H   UNL     1     -11.285   1.776  18.999  0.00  0.00    +0.000 HD
ATOM     28  H   UNL     1      -9.701   0.959  20.708  0.00  0.00    +0.000 HD
ATOM     29  H   UNL     1      -8.917  -1.334  20.668  0.00  0.00    +0.000 HD
ATOM     30  H   UNL     1      -7.967  -7.101  15.365  0.00  0.00    +0.000 HD
ATOM     31  H   UNL     1      -8.838  -9.286  14.511  0.00  0.00    +0.000 HD
ATOM     32  H   UNL     1     -10.648 -10.426  15.791  0.00  0.00    +0.000 HD
ATOM     33  H   UNL     1     -11.841  -9.145  17.583  0.00  0.00    +0.000 HD
ATOM     34  H   UNL     1     -12.332  -5.948  16.278  0.00  0.00    +0.000 HD
ATOM     35  H   UNL     1      -7.058  -5.551  21.305  0.00  0.00    +0.000 HD
ENDROOT
BRANCH   1  36
ATOM     36  C   UNL     1     -12.232  -2.432  15.977  0.00  0.00    +0.000 C 
ATOM     37  H   UNL     1     -12.988  -3.222  16.004  0.00  0.00    +0.000 HD
ATOM     38  H   UNL     1     -12.779  -1.487  16.068  0.00  0.00    +0.000 HD
BRANCH  36  39
ATOM     39  C   UNL     1     -11.484  -2.415  14.625  0.00  0.00    +0.000 C 
ATOM     40  H   UNL     1     -11.669  -1.459  14.123  0.00  0.00    +0.000 HD
ATOM     41  H   UNL     1     -10.397  -2.440  14.784  0.00  0.00    +0.000 HD
BRANCH  39  42
ATOM     42  C   UNL     1     -11.881  -3.563  13.691  0.00  0.00    +0.000 C 
ATOM     43  H   UNL     1     -12.924  -3.855  13.868  0.00  0.00    +0.000 HD
ATOM     44  H   UNL     1     -11.846  -3.213  12.653  0.00  0.00    +0.000 HD
BRANCH  42  45
ATOM     45  N   UNL     1     -11.004  -4.729  13.832  0.00  0.00    +0.000 NA
ATOM     46  H   UNL     1     -11.264  -5.237  14.679  0.00  0.00    +0.000 HD
BRANCH  45  47
ATOM     47  C   UNL     1      -9.592  -4.379  13.885  0.00  0.00    +0.000 C 
ATOM     48  H   UNL     1      -9.132  -4.867  14.749  0.00  0.00    +0.000 HD
ATOM     49  H   UNL     1      -9.449  -3.299  13.973  0.00  0.00    +0.000 HD
ATOM     50  H   UNL     1      -9.051  -4.744  13.007  0.00  0.00    +0.000 HD
ENDBRANCH  45  47
ENDBRANCH  42  45
ENDBRANCH  39  42
ENDBRANCH  36  39
ENDBRANCH   1  36
TORSDOF 5
ENDMDL
MODEL 3
REMARK VINA RESULT:    -8.422      3.552      6.988
REMARK INTER + INTRA:         -11.116
REMARK INTER:                 -10.534
REMARK INTRA:                  -0.583
REMARK UNBOUND:                -0.479
REMARK  Name = 
REMARK  5 active torsions:
REMARK  status: ('A' for Active; 'I' for Inactive)
REMARK    1  A    between atoms: C_1  and  N_2
REMARK    2  A    between atoms: N_2  and  C_3
REMARK    3  A    between atoms: C_3  and  C_4
REMARK    4  A    between atoms: C_4  and  C_5
REMARK    5  A    between atoms: C_5  and  N_6
REMARK                            x       y       z     vdW  Elec       q    Type
REMARK                         _______ _______ _______ _____ _____    ______ ____
ROOT
ATOM      1  N   UNL     1      -7.907  -5.597  19.294  0.00  0.00    +0.000 N 
ATOM      2  C   UNL     1      -8.391  -5.959  18.012  0.00  0.00    +0.000 A 
ATOM      3  C   UNL     1      -7.988  -6.968  17.114  0.00  0.00    +0.000 A 
ATOM      4  C   UNL     1      -8.688  -7.129  15.908  0.00  0.00    +0.000 A 
ATOM      5  C   UNL     1      -9.752  -6.295  15.590  0.00  0.00    +0.000 A 
ATOM      6  C   UNL     1     -10.122  -5.270  16.455  0.00  0.00    +0.000 A 
ATOM      7  C   UNL     1      -9.447  -5.094  17.681  0.00  0.00    +0.000 A 
ATOM      8  C   UNL     1      -9.504  -4.226  18.746  0.00  0.00    +0.000 A 
ATOM      9  C   UNL     1     -10.412  -3.139  18.867  0.00  0.00    +0.000 A 
ATOM     10  C   UNL     1     -10.220  -2.234  19.932  0.00  0.00    +0.000 A 
ATOM     11  C   UNL     1      -9.126  -2.457  20.808  0.00  0.00    +0.000 A 
ATOM     12  C   UNL     1      -8.972  -1.773  21.994  0.00  0.00    +0.000 A 
ATOM     13  C   UNL     1      -8.150  -0.714  22.432  0.00  0.00    +0.000 A 
ATOM     14  C   UNL     1      -8.011  -0.499  23.807  0.00  0.00    +0.000 A 
ATOM     15  C   UNL     1      -8.767  -1.255  24.695  0.00  0.00    +0.000 A 
ATOM     16  C   UNL     1      -9.384  -2.437  24.267  0.00  0.00    +0.000 A 
ATOM     17  C   UNL     1      -9.169  -2.789  22.931  0.00  0.00    +0.000 A 
ATOM     18  N   UNL     1      -8.518  -3.887  22.288  0.00  0.00    +0.000 N 
ATOM     19  C   UNL     1      -8.720  -3.758  20.923  0.00  0.00    +0.000 A 
ATOM     20  C   UNL     1      -8.661  -4.536  19.777  0.00  0.00    +0.000 A 
ATOM     21  C   UNL     1     -11.270  -1.267  19.932  0.00  0.00    +0.000 C 
ATOM     22  O   UNL     1     -11.641  -0.413  20.727  0.00  0.00    +0.000 OA
ATOM     23  N   UNL     1     -11.934  -1.551  18.769  0.00  0.00    +0.000 N 
ATOM     24  C   UNL     1     -11.583  -2.696  18.137  0.00  0.00    +0.000 C 
ATOM     25  O   UNL     1     -12.247  -3.178  17.208  0.00  0.00    +0.000 OA
ATOM     26  H   UNL     1      -7.158  -7.640  17.337  0.00  0.00    +0.000 HD
ATOM     27  H   UNL     1      -8.412  -7.914  15.213  0.00  0.00    +0.000 HD
ATOM     28  H   UNL     1     -10.307  -6.429  14.665  0.00  0.00    +0.000 HD
ATOM     29  H   UNL     1     -10.944  -4.635  16.165  0.00  0.00    +0.000 HD
ATOM     30  H   UNL     1      -7.551  -0.166  21.714  0.00  0.00    +0.000 HD
ATOM     31  H   UNL     1      -7.353   0.284  24.168  0.00  0.00    +0.000 HD
ATOM     32  H   UNL     1      -8.881  -0.922  25.725  0.00  0.00    +0.000 HD
ATOM     33  H   UNL     1     -10.207  -2.857  24.846  0.00  0.00    +0.000 HD
ATOM     34  H   UNL     1      -8.026  -4.622  22.776  0.00  0.00    +0.000 HD
ATOM     35  H   UNL     1     -12.802  -1.090  18.537  0.00  0.00    +0.000 HD
ENDROOT
BRANCH   1  36
ATOM     36  C   UNL     1      -6.723  -6.198  19.897  0.00  0.00    +0.000 C 
ATOM     37  H   UNL     1      -6.788  -6.065  20.981  0.00  0.00    +0.000 HD
ATOM     38  H   UNL     1      -6.773  -7.277  19.722  0.00  0.00    +0.000 HD
BRANCH  36  39
ATOM     39  C   UNL     1      -5.368  -5.695  19.349  0.00  0.00    +0.000 C 
ATOM     40  H   UNL     1      -4.913  -6.481  18.738  0.00  0.00    +0.000 HD
ATOM     41  H   UNL     1      -5.519  -4.855  18.656  0.00  0.00    +0.000 HD
BRANCH  39  42
ATOM     42  C   UNL     1      -4.384  -5.270  20.444  0.00  0.00    +0.000 C 
ATOM     43  H   UNL     1      -4.614  -5.787  21.385  0.00  0.00    +0.000 HD
ATOM     44  H   UNL     1      -3.375  -5.596  20.170  0.00  0.00    +0.000 HD
BRANCH  42  45
ATOM     45  N   UNL     1      -4.375  -3.820  20.658  0.00  0.00    +0.000 NA
ATOM     46  H   UNL     1      -3.416  -3.518  20.837  0.00  0.00    +0.000 HD
BRANCH  45  47
ATOM     47  C   UNL     1      -5.233  -3.400  21.757  0.00  0.00    +0.000 C 
ATOM     48  H   UNL     1      -4.846  -2.467  22.179  0.00  0.00    +0.000 HD
ATOM     49  H   UNL     1      -5.270  -4.154  22.548  0.00  0.00    +0.000 HD
ATOM     50  H   UNL     1      -6.249  -3.181  21.418  0.00  0.00    +0.000 HD
ENDBRANCH  45  47
ENDBRANCH  42  45
ENDBRANCH  39  42
ENDBRANCH  36  39
ENDBRANCH   1  36
TORSDOF 5
ENDMDL
MODEL 4
REMARK VINA RESULT:    -8.326      3.264      7.114
REMARK INTER + INTRA:         -10.995
REMARK INTER:                 -10.300
REMARK INTRA:                  -0.696
REMARK UNBOUND:                -0.479
REMARK  Name = 
REMARK  5 active torsions:
REMARK  status: ('A' for Active; 'I' for Inactive)
REMARK    1  A    between atoms: C_1  and  N_2
REMARK    2  A    between atoms: N_2  and  C_3
REMARK    3  A    between atoms: C_3  and  C_4
REMARK    4  A    between atoms: C_4  and  C_5
REMARK    5  A    between atoms: C_5  and  N_6
REMARK                            x       y       z     vdW  Elec       q    Type
REMARK                         _______ _______ _______ _____ _____    ______ ____
ROOT
ATOM      1  N   UNL     1      -8.680  -3.050  21.109  0.00  0.00    +0.000 N 
ATOM      2  C   UNL     1      -9.176  -1.759  21.419  0.00  0.00    +0.000 A 
ATOM      3  C   UNL     1      -8.934  -0.904  22.514  0.00  0.00    +0.000 A 
ATOM      4  C   UNL     1      -9.541   0.361  22.540  0.00  0.00    +0.000 A 
ATOM      5  C   UNL     1     -10.387   0.762  21.514  0.00  0.00    +0.000 A 
ATOM      6  C   UNL     1     -10.663  -0.098  20.456  0.00  0.00    +0.000 A 
ATOM      7  C   UNL     1     -10.055  -1.370  20.395  0.00  0.00    +0.000 A 
ATOM      8  C   UNL     1     -10.086  -2.461  19.559  0.00  0.00    +0.000 A 
ATOM      9  C   UNL     1     -10.864  -2.560  18.373  0.00  0.00    +0.000 A 
ATOM     10  C   UNL     1     -10.927  -3.813  17.728  0.00  0.00    +0.000 A 
ATOM     11  C   UNL     1     -10.221  -4.898  18.309  0.00  0.00    +0.000 A 
ATOM     12  C   UNL     1     -10.035  -6.098  17.657  0.00  0.00    +0.000 A 
ATOM     13  C   UNL     1     -10.609  -7.382  17.755  0.00  0.00    +0.000 A 
ATOM     14  C   UNL     1      -9.936  -8.462  17.174  0.00  0.00    +0.000 A 
ATOM     15  C   UNL     1      -8.788  -8.227  16.425  0.00  0.00    +0.000 A 
ATOM     16  C   UNL     1      -8.113  -7.005  16.534  0.00  0.00    +0.000 A 
ATOM     17  C   UNL     1      -8.656  -6.086  17.438  0.00  0.00    +0.000 A 
ATOM     18  N   UNL     1      -8.188  -5.494  18.652  0.00  0.00    +0.000 N 
ATOM     19  C   UNL     1      -9.127  -4.557  19.054  0.00  0.00    +0.000 A 
ATOM     20  C   UNL     1      -9.216  -3.459  19.895  0.00  0.00    +0.000 A 
ATOM     21  C   UNL     1     -11.682  -3.692  16.523  0.00  0.00    +0.000 C 
ATOM     22  O   UNL     1     -11.866  -4.421  15.557  0.00  0.00    +0.000 OA
ATOM     23  N   UNL     1     -12.167  -2.414  16.604  0.00  0.00    +0.000 N 
ATOM     24  C   UNL     1     -11.653  -1.634  17.585  0.00  0.00    +0.000 C 
ATOM     25  O   UNL     1     -11.838  -0.410  17.631  0.00  0.00    +0.000 OA
ATOM     26  H   UNL     1      -8.272  -1.191  23.332  0.00  0.00    +0.000 HD
ATOM     27  H   UNL     1      -9.350   1.045  23.359  0.00  0.00    +0.000 HD
ATOM     28  H   UNL     1     -10.845   1.748  21.525  0.00  0.00    +0.000 HD
ATOM     29  H   UNL     1     -11.337   0.246  19.687  0.00  0.00    +0.000 HD
ATOM     30  H   UNL     1     -11.486  -7.534  18.373  0.00  0.00    +0.000 HD
ATOM     31  H   UNL     1     -10.337  -9.465  17.269  0.00  0.00    +0.000 HD
ATOM     32  H   UNL     1      -8.418  -8.996  15.749  0.00  0.00    +0.000 HD
ATOM     33  H   UNL     1      -7.420  -6.699  15.750  0.00  0.00    +0.000 HD
ATOM     34  H   UNL     1      -7.312  -5.727  19.097  0.00  0.00    +0.000 HD
ATOM     35  H   UNL     1     -12.667  -1.995  15.834  0.00  0.00    +0.000 HD
ENDROOT
BRANCH   1  36
ATOM     36  C   UNL     1      -7.844  -3.821  22.022  0.00  0.00    +0.000 C 
ATOM     37  H   UNL     1      -8.411  -3.990  22.942  0.00  0.00    +0.000 HD
ATOM     38  H   UNL     1      -7.690  -4.810  21.576  0.00  0.00    +0.000 HD
BRANCH  36  39
ATOM     39  C   UNL     1      -6.453  -3.219  22.322  0.00  0.00    +0.000 C 
ATOM     40  H   UNL     1      -6.508  -2.128  22.242  0.00  0.00    +0.000 HD
ATOM     41  H   UNL     1      -6.166  -3.408  23.366  0.00  0.00    +0.000 HD
BRANCH  39  42
ATOM     42  C   UNL     1      -5.347  -3.739  21.397  0.00  0.00    +0.000 C 
ATOM     43  H   UNL     1      -4.924  -2.914  20.808  0.00  0.00    +0.000 HD
ATOM     44  H   UNL     1      -4.519  -4.121  22.003  0.00  0.00    +0.000 HD
BRANCH  42  45
ATOM     45  N   UNL     1      -5.817  -4.802  20.504  0.00  0.00    +0.000 NA
ATOM     46  H   UNL     1      -6.447  -5.415  21.023  0.00  0.00    +0.000 HD
BRANCH  45  47
ATOM     47  C   UNL     1      -4.733  -5.587  19.930  0.00  0.00    +0.000 C 
ATOM     48  H   UNL     1      -3.970  -5.760  20.694  0.00  0.00    +0.000 HD
ATOM     49  H   UNL     1      -4.272  -5.075  19.082  0.00  0.00    +0.000 HD
ATOM     50  H   UNL     1      -5.074  -6.576  19.612  0.00  0.00    +0.000 HD
ENDBRANCH  45  47
ENDBRANCH  42  45
ENDBRANCH  39  42
ENDBRANCH  36  39
ENDBRANCH   1  36
TORSDOF 5
ENDMDL
MODEL 5
REMARK VINA RESULT:    -8.315      2.388      4.731
REMARK INTER + INTRA:         -10.981
REMARK INTER:                 -10.220
REMARK INTRA:                  -0.761
REMARK UNBOUND:                -0.479
REMARK  Name = 
REMARK  5 active torsions:
REMARK  status: ('A' for Active; 'I' for Inactive)
REMARK    1  A    between atoms: C_1  and  N_2
REMARK    2  A    between atoms: N_2  and  C_3
REMARK    3  A    between atoms: C_3  and  C_4
REMARK    4  A    between atoms: C_4  and  C_5
REMARK    5  A    between atoms: C_5  and  N_6
REMARK                            x       y       z     vdW  Elec       q    Type
REMARK                         _______ _______ _______ _____ _____    ______ ____
ROOT
ATOM      1  N   UNL     1     -10.770  -5.528  16.358  0.00  0.00    +0.000 N 
ATOM      2  C   UNL     1     -10.375  -6.873  16.567  0.00  0.00    +0.000 A 
ATOM      3  C   UNL     1     -10.711  -8.061  15.886  0.00  0.00    +0.000 A 
ATOM      4  C   UNL     1     -10.125  -9.271  16.292  0.00  0.00    +0.000 A 
ATOM      5  C   UNL     1      -9.241  -9.305  17.363  0.00  0.00    +0.000 A 
ATOM      6  C   UNL     1      -8.944  -8.141  18.065  0.00  0.00    +0.000 A 
ATOM      7  C   UNL     1      -9.505  -6.908  17.670  0.00  0.00    +0.000 A 
ATOM      8  C   UNL     1      -9.470  -5.603  18.099  0.00  0.00    +0.000 A 
ATOM      9  C   UNL     1      -8.732  -5.131  19.219  0.00  0.00    +0.000 A 
ATOM     10  C   UNL     1      -8.947  -3.801  19.638  0.00  0.00    +0.000 A 
ATOM     11  C   UNL     1      -9.895  -3.022  18.924  0.00  0.00    +0.000 A 
ATOM     12  C   UNL     1     -10.027  -1.662  19.105  0.00  0.00    +0.000 A 
ATOM     13  C   UNL     1     -10.951  -0.832  19.772  0.00  0.00    +0.000 A 
ATOM     14  C   UNL     1     -10.976   0.530  19.457  0.00  0.00    +0.000 A 
ATOM     15  C   UNL     1     -10.023   1.047  18.587  0.00  0.00    +0.000 A 
ATOM     16  C   UNL     1      -9.280   0.189  17.766  0.00  0.00    +0.000 A 
ATOM     17  C   UNL     1      -9.579  -1.173  17.877  0.00  0.00    +0.000 A 
ATOM     18  N   UNL     1     -10.117  -2.146  16.978  0.00  0.00    +0.000 N 
ATOM     19  C   UNL     1     -10.083  -3.375  17.617  0.00  0.00    +0.000 A 
ATOM     20  C   UNL     1     -10.142  -4.723  17.298  0.00  0.00    +0.000 A 
ATOM     21  C   UNL     1      -8.064  -3.491  20.715  0.00  0.00    +0.000 C 
ATOM     22  O   UNL     1      -7.747  -2.454  21.285  0.00  0.00    +0.000 OA
ATOM     23  N   UNL     1      -7.491  -4.704  20.987  0.00  0.00    +0.000 N 
ATOM     24  C   UNL     1      -7.727  -5.696  20.096  0.00  0.00    +0.000 C 
ATOM     25  O   UNL     1      -7.098  -6.765  20.103  0.00  0.00    +0.000 OA
ATOM     26  H   UNL     1     -11.399  -8.065  15.040  0.00  0.00    +0.000 HD
ATOM     27  H   UNL     1     -10.349 -10.193  15.768  0.00  0.00    +0.000 HD
ATOM     28  H   UNL     1      -8.773 -10.238  17.668  0.00  0.00    +0.000 HD
ATOM     29  H   UNL     1      -8.264  -8.213  18.899  0.00  0.00    +0.000 HD
ATOM     30  H   UNL     1     -11.700  -1.273  20.420  0.00  0.00    +0.000 HD
ATOM     31  H   UNL     1     -11.704   1.181  19.929  0.00  0.00    +0.000 HD
ATOM     32  H   UNL     1      -9.854   2.121  18.548  0.00  0.00    +0.000 HD
ATOM     33  H   UNL     1      -8.346   0.538  17.325  0.00  0.00    +0.000 HD
ATOM     34  H   UNL     1     -10.436  -1.941  16.042  0.00  0.00    +0.000 HD
ATOM     35  H   UNL     1      -6.734  -4.787  21.649  0.00  0.00    +0.000 HD
ENDROOT
BRANCH   1  36
ATOM     36  C   UNL     1     -11.778  -5.139  15.379  0.00  0.00    +0.000 C 
ATOM     37  H   UNL     1     -12.217  -6.050  14.961  0.00  0.00    +0.000 HD
ATOM     38  H   UNL     1     -12.587  -4.633  15.917  0.00  0.00    +0.000 HD
BRANCH  36  39
ATOM     39  C   UNL     1     -11.290  -4.187  14.263  0.00  0.00    +0.000 C 
ATOM     40  H   UNL     1     -12.101  -4.030  13.543  0.00  0.00    +0.000 HD
ATOM     41  H   UNL     1     -11.080  -3.188  14.670  0.00  0.00    +0.000 HD
BRANCH  39  42
ATOM     42  C   UNL     1     -10.048  -4.697  13.523  0.00  0.00    +0.000 C 
ATOM     43  H   UNL     1      -9.877  -5.757  13.752  0.00  0.00    +0.000 HD
ATOM     44  H   UNL     1     -10.228  -4.656  12.443  0.00  0.00    +0.000 HD
BRANCH  42  45
ATOM     45  N   UNL     1      -8.848  -3.917  13.837  0.00  0.00    +0.000 NA
ATOM     46  H   UNL     1      -8.749  -3.858  14.853  0.00  0.00    +0.000 HD
BRANCH  45  47
ATOM     47  C   UNL     1      -8.873  -2.577  13.270  0.00  0.00    +0.000 C 
ATOM     48  H   UNL     1      -8.537  -1.860  14.025  0.00  0.00    +0.000 HD
ATOM     49  H   UNL     1      -9.878  -2.297  12.944  0.00  0.00    +0.000 HD
ATOM     50  H   UNL     1      -8.180  -2.479  12.430  0.00  0.00    +0.000 HD
ENDBRANCH  45  47
ENDBRANCH  42  45
ENDBRANCH  39  42
ENDBRANCH  36  39
ENDBRANCH   1  36
TORSDOF 5
ENDMDL
MODEL 6
REMARK VINA RESULT:    -8.148      4.561      8.176
REMARK INTER + INTRA:         -10.771
REMARK INTER:                  -9.964
REMARK INTRA:                  -0.807
REMARK UNBOUND:                -0.479
REMARK  Name = 
REMARK  5 active torsions:
REMARK  status: ('A' for Active; 'I' for Inactive)
REMARK    1  A    between atoms: C_1  and  N_2
REMARK    2  A    between atoms: N_2  and  C_3
REMARK    3  A    between atoms: C_3  and  C_4
REMARK    4  A    between atoms: C_4  and  C_5
REMARK    5  A    between atoms: C_5  and  N_6
REMARK                            x       y       z     vdW  Elec       q    Type
REMARK                         _______ _______ _______ _____ _____    ______ ____
ROOT
ATOM      1  N   UNL     1     -10.181  -1.251  19.490  0.00  0.00    +0.000 N 
ATOM      2  C   UNL     1     -11.085  -0.456  20.238  0.00  0.00    +0.000 A 
ATOM      3  C   UNL     1     -12.032   0.508  19.837  0.00  0.00    +0.000 A 
ATOM      4  C   UNL     1     -12.837   1.121  20.809  0.00  0.00    +0.000 A 
ATOM      5  C   UNL     1     -12.692   0.800  22.154  0.00  0.00    +0.000 A 
ATOM      6  C   UNL     1     -11.727  -0.117  22.555  0.00  0.00    +0.000 A 
ATOM      7  C   UNL     1     -10.914  -0.761  21.598  0.00  0.00    +0.000 A 
ATOM      8  C   UNL     1      -9.884  -1.672  21.602  0.00  0.00    +0.000 A 
ATOM      9  C   UNL     1      -9.326  -2.269  22.765  0.00  0.00    +0.000 A 
ATOM     10  C   UNL     1      -8.155  -3.042  22.613  0.00  0.00    +0.000 A 
ATOM     11  C   UNL     1      -7.602  -3.165  21.311  0.00  0.00    +0.000 A 
ATOM     12  C   UNL     1      -6.599  -4.061  21.012  0.00  0.00    +0.000 A 
ATOM     13  C   UNL     1      -5.210  -3.961  20.789  0.00  0.00    +0.000 A 
ATOM     14  C   UNL     1      -4.555  -5.026  20.162  0.00  0.00    +0.000 A 
ATOM     15  C   UNL     1      -5.261  -6.191  19.880  0.00  0.00    +0.000 A 
ATOM     16  C   UNL     1      -6.661  -6.186  19.888  0.00  0.00    +0.000 A 
ATOM     17  C   UNL     1      -7.265  -4.956  20.173  0.00  0.00    +0.000 A 
ATOM     18  N   UNL     1      -8.103  -4.068  19.430  0.00  0.00    +0.000 N 
ATOM     19  C   UNL     1      -8.491  -3.044  20.280  0.00  0.00    +0.000 A 
ATOM     20  C   UNL     1      -9.468  -2.064  20.361  0.00  0.00    +0.000 A 
ATOM     21  C   UNL     1      -7.797  -3.618  23.868  0.00  0.00    +0.000 C 
ATOM     22  O   UNL     1      -6.998  -4.479  24.212  0.00  0.00    +0.000 OA
ATOM     23  N   UNL     1      -8.678  -3.022  24.730  0.00  0.00    +0.000 N 
ATOM     24  C   UNL     1      -9.683  -2.309  24.169  0.00  0.00    +0.000 C 
ATOM     25  O   UNL     1     -10.661  -1.908  24.816  0.00  0.00    +0.000 OA
ATOM     26  H   UNL     1     -12.170   0.778  18.789  0.00  0.00    +0.000 HD
ATOM     27  H   UNL     1     -13.589   1.847  20.522  0.00  0.00    +0.000 HD
ATOM     28  H   UNL     1     -13.327   1.261  22.906  0.00  0.00    +0.000 HD
ATOM     29  H   UNL     1     -11.637  -0.328  23.609  0.00  0.00    +0.000 HD
ATOM     30  H   UNL     1      -4.698  -3.028  20.992  0.00  0.00    +0.000 HD
ATOM     31  H   UNL     1      -3.494  -4.956  19.945  0.00  0.00    +0.000 HD
ATOM     32  H   UNL     1      -4.720  -7.108  19.656  0.00  0.00    +0.000 HD
ATOM     33  H   UNL     1      -7.204  -7.127  19.976  0.00  0.00    +0.000 HD
ATOM     34  H   UNL     1      -8.364  -4.206  18.464  0.00  0.00    +0.000 HD
ATOM     35  H   UNL     1      -8.737  -3.307  25.696  0.00  0.00    +0.000 HD
ENDROOT
BRANCH   1  36
ATOM     36  C   UNL     1      -9.990  -1.099  18.052  0.00  0.00    +0.000 C 
ATOM     37  H   UNL     1     -10.499  -0.184  17.736  0.00  0.00    +0.000 HD
ATOM     38  H   UNL     1      -8.923  -0.928  17.875  0.00  0.00    +0.000 HD
BRANCH  36  39
ATOM     39  C   UNL     1     -10.422  -2.308  17.191  0.00  0.00    +0.000 C 
ATOM     40  H   UNL     1     -10.332  -2.046  16.131  0.00  0.00    +0.000 HD
ATOM     41  H   UNL     1      -9.728  -3.149  17.330  0.00  0.00    +0.000 HD
BRANCH  39  42
ATOM     42  C   UNL     1     -11.851  -2.784  17.475  0.00  0.00    +0.000 C 
ATOM     43  H   UNL     1     -12.407  -2.011  18.021  0.00  0.00    +0.000 HD
ATOM     44  H   UNL     1     -12.384  -2.915  16.527  0.00  0.00    +0.000 HD
BRANCH  42  45
ATOM     45  N   UNL     1     -11.883  -4.046  18.220  0.00  0.00    +0.000 NA
ATOM     46  H   UNL     1     -11.595  -3.867  19.184  0.00  0.00    +0.000 HD
BRANCH  45  47
ATOM     47  C   UNL     1     -11.034  -5.075  17.638  0.00  0.00    +0.000 C 
ATOM     48  H   UNL     1     -11.660  -5.895  17.276  0.00  0.00    +0.000 HD
ATOM     49  H   UNL     1     -10.325  -5.471  18.369  0.00  0.00    +0.000 HD
ATOM     50  H   UNL     1     -10.487  -4.705  16.768  0.00  0.00    +0.000 HD
ENDBRANCH  45  47
ENDBRANCH  42  45
ENDBRANCH  39  42
ENDBRANCH  36  39
ENDBRANCH   1  36
TORSDOF 5
ENDMDL
MODEL 7
REMARK VINA RESULT:    -8.010      3.088      8.050
REMARK INTER + INTRA:         -10.596
REMARK INTER:                  -9.686
REMARK INTRA:                  -0.910
REMARK UNBOUND:                -0.479
REMARK  Name = 
REMARK  5 active torsions:
REMARK  status: ('A' for Active; 'I' for Inactive)
REMARK    1  A    between atoms: C_1  and  N_2
REMARK    2  A    between atoms: N_2  and  C_3
REMARK    3  A    between atoms: C_3  and  C_4
REMARK    4  A    between atoms: C_4  and  C_5
REMARK    5  A    between atoms: C_5  and  N_6
REMARK                            x       y       z     vdW  Elec       q    Type
REMARK                         _______ _______ _______ _____ _____    ______ ____
ROOT
ATOM      1  N   UNL     1     -10.928  -1.834  18.877  0.00  0.00    +0.000 N 
ATOM      2  C   UNL     1     -11.411  -0.940  17.889  0.00  0.00    +0.000 A 
ATOM      3  C   UNL     1     -11.982   0.345  17.992  0.00  0.00    +0.000 A 
ATOM      4  C   UNL     1     -12.338   1.031  16.820  0.00  0.00    +0.000 A 
ATOM      5  C   UNL     1     -12.152   0.446  15.573  0.00  0.00    +0.000 A 
ATOM      6  C   UNL     1     -11.631  -0.840  15.472  0.00  0.00    +0.000 A 
ATOM      7  C   UNL     1     -11.250  -1.547  16.633  0.00  0.00    +0.000 A 
ATOM      8  C   UNL     1     -10.737  -2.787  16.933  0.00  0.00    +0.000 A 
ATOM      9  C   UNL     1     -10.420  -3.793  15.979  0.00  0.00    +0.000 A 
ATOM     10  C   UNL     1     -10.076  -5.074  16.461  0.00  0.00    +0.000 A 
ATOM     11  C   UNL     1     -10.081  -5.282  17.865  0.00  0.00    +0.000 A 
ATOM     12  C   UNL     1      -9.558  -6.415  18.450  0.00  0.00    +0.000 A 
ATOM     13  C   UNL     1     -10.106  -7.582  19.020  0.00  0.00    +0.000 A 
ATOM     14  C   UNL     1      -9.292  -8.372  19.838  0.00  0.00    +0.000 A 
ATOM     15  C   UNL     1      -7.946  -8.051  19.975  0.00  0.00    +0.000 A 
ATOM     16  C   UNL     1      -7.482  -6.783  19.605  0.00  0.00    +0.000 A 
ATOM     17  C   UNL     1      -8.451  -5.896  19.123  0.00  0.00    +0.000 A 
ATOM     18  N   UNL     1      -8.969  -4.647  19.587  0.00  0.00    +0.000 N 
ATOM     19  C   UNL     1      -9.846  -4.170  18.625  0.00  0.00    +0.000 A 
ATOM     20  C   UNL     1     -10.445  -2.976  18.254  0.00  0.00    +0.000 A 
ATOM     21  C   UNL     1      -9.717  -5.914  15.365  0.00  0.00    +0.000 C 
ATOM     22  O   UNL     1      -9.191  -7.016  15.275  0.00  0.00    +0.000 OA
ATOM     23  N   UNL     1     -10.027  -5.138  14.281  0.00  0.00    +0.000 N 
ATOM     24  C   UNL     1     -10.333  -3.843  14.534  0.00  0.00    +0.000 C 
ATOM     25  O   UNL     1     -10.415  -2.989  13.639  0.00  0.00    +0.000 OA
ATOM     26  H   UNL     1     -12.138   0.831  18.956  0.00  0.00    +0.000 HD
ATOM     27  H   UNL     1     -12.755   2.029  16.873  0.00  0.00    +0.000 HD
ATOM     28  H   UNL     1     -12.411   0.982  14.663  0.00  0.00    +0.000 HD
ATOM     29  H   UNL     1     -11.516  -1.264  14.487  0.00  0.00    +0.000 HD
ATOM     30  H   UNL     1     -11.166  -7.785  18.919  0.00  0.00    +0.000 HD
ATOM     31  H   UNL     1      -9.701  -9.254  20.320  0.00  0.00    +0.000 HD
ATOM     32  H   UNL     1      -7.252  -8.792  20.369  0.00  0.00    +0.000 HD
ATOM     33  H   UNL     1      -6.419  -6.629  19.418  0.00  0.00    +0.000 HD
ATOM     34  H   UNL     1      -8.705  -4.209  20.458  0.00  0.00    +0.000 HD
ATOM     35  H   UNL     1      -9.786  -5.428  13.345  0.00  0.00    +0.000 HD
ENDROOT
BRANCH   1  36
ATOM     36  C   UNL     1     -11.064  -1.586  20.309  0.00  0.00    +0.000 C 
ATOM     37  H   UNL     1     -12.042  -1.128  20.484  0.00  0.00    +0.000 HD
ATOM     38  H   UNL     1     -11.090  -2.558  20.813  0.00  0.00    +0.000 HD
BRANCH  36  39
ATOM     39  C   UNL     1      -9.930  -0.754  20.951  0.00  0.00    +0.000 C 
ATOM     40  H   UNL     1      -9.524  -0.062  20.205  0.00  0.00    +0.000 HD
ATOM     41  H   UNL     1     -10.328  -0.106  21.745  0.00  0.00    +0.000 HD
BRANCH  39  42
ATOM     42  C   UNL     1      -8.792  -1.607  21.523  0.00  0.00    +0.000 C 
ATOM     43  H   UNL     1      -8.044  -1.812  20.746  0.00  0.00    +0.000 HD
ATOM     44  H   UNL     1      -8.265  -1.036  22.294  0.00  0.00    +0.000 HD
BRANCH  42  45
ATOM     45  N   UNL     1      -9.271  -2.865  22.102  0.00  0.00    +0.000 NA
ATOM     46  H   UNL     1     -10.264  -2.770  22.323  0.00  0.00    +0.000 HD
BRANCH  45  47
ATOM     47  C   UNL     1      -8.541  -3.258  23.298  0.00  0.00    +0.000 C 
ATOM     48  H   UNL     1      -9.170  -3.088  24.177  0.00  0.00    +0.000 HD
ATOM     49  H   UNL     1      -7.617  -2.684  23.412  0.00  0.00    +0.000 HD
ATOM     50  H   UNL     1      -8.304  -4.325  23.297  0.00  0.00    +0.000 HD
ENDBRANCH  45  47
ENDBRANCH  42  45
ENDBRANCH  39  42
ENDBRANCH  36  39
ENDBRANCH   1  36
TORSDOF 5
ENDMDL
MODEL 8
REMARK VINA RESULT:    -7.912      2.945      6.091
REMARK INTER + INTRA:         -10.472
REMARK INTER:                  -9.536
REMARK INTRA:                  -0.936
REMARK UNBOUND:                -0.479
REMARK  Name = 
REMARK  5 active torsions:
REMARK  status: ('A' for Active; 'I' for Inactive)
REMARK    1  A    between atoms: C_1  and  N_2
REMARK    2  A    between atoms: N_2  and  C_3
REMARK    3  A    between atoms: C_3  and  C_4
REMARK    4  A    between atoms: C_4  and  C_5
REMARK    5  A    between atoms: C_5  and  N_6
REMARK                            x       y       z     vdW  Elec       q    Type
REMARK                         _______ _______ _______ _____ _____    ______ ____
ROOT
ATOM      1  N   UNL     1      -8.985  -5.724  19.076  0.00  0.00    +0.000 N 
ATOM      2  C   UNL     1      -9.139  -6.784  18.147  0.00  0.00    +0.000 A 
ATOM      3  C   UNL     1      -8.684  -8.118  18.170  0.00  0.00    +0.000 A 
ATOM      4  C   UNL     1      -9.027  -8.975  17.113  0.00  0.00    +0.000 A 
ATOM      5  C   UNL     1      -9.785  -8.513  16.044  0.00  0.00    +0.000 A 
ATOM      6  C   UNL     1     -10.195  -7.185  15.998  0.00  0.00    +0.000 A 
ATOM      7  C   UNL     1      -9.880  -6.304  17.054  0.00  0.00    +0.000 A 
ATOM      8  C   UNL     1     -10.081  -4.978  17.353  0.00  0.00    +0.000 A 
ATOM      9  C   UNL     1     -10.773  -4.050  16.526  0.00  0.00    +0.000 A 
ATOM     10  C   UNL     1     -10.734  -2.687  16.889  0.00  0.00    +0.000 A 
ATOM     11  C   UNL     1      -9.996  -2.326  18.046  0.00  0.00    +0.000 A 
ATOM     12  C   UNL     1     -10.067  -1.070  18.611  0.00  0.00    +0.000 A 
ATOM     13  C   UNL     1      -9.227   0.062  18.625  0.00  0.00    +0.000 A 
ATOM     14  C   UNL     1      -9.451   1.049  19.591  0.00  0.00    +0.000 A 
ATOM     15  C   UNL     1     -10.555   0.944  20.430  0.00  0.00    +0.000 A 
ATOM     16  C   UNL     1     -11.227  -0.277  20.561  0.00  0.00    +0.000 A 
ATOM     17  C   UNL     1     -10.705  -1.344  19.822  0.00  0.00    +0.000 A 
ATOM     18  N   UNL     1     -10.108  -2.595  20.172  0.00  0.00    +0.000 N 
ATOM     19  C   UNL     1      -9.883  -3.299  19.000  0.00  0.00    +0.000 A 
ATOM     20  C   UNL     1      -9.641  -4.601  18.590  0.00  0.00    +0.000 A 
ATOM     21  C   UNL     1     -11.546  -1.932  15.991  0.00  0.00    +0.000 C 
ATOM     22  O   UNL     1     -11.968  -0.782  15.987  0.00  0.00    +0.000 OA
ATOM     23  N   UNL     1     -11.888  -2.862  15.047  0.00  0.00    +0.000 N 
ATOM     24  C   UNL     1     -11.585  -4.150  15.331  0.00  0.00    +0.000 C 
ATOM     25  O   UNL     1     -12.030  -5.102  14.674  0.00  0.00    +0.000 OA
ATOM     26  H   UNL     1      -8.090  -8.510  18.997  0.00  0.00    +0.000 HD
ATOM     27  H   UNL     1      -8.710 -10.012  17.121  0.00  0.00    +0.000 HD
ATOM     28  H   UNL     1     -10.066  -9.180  15.233  0.00  0.00    +0.000 HD
ATOM     29  H   UNL     1     -10.770  -6.863  15.144  0.00  0.00    +0.000 HD
ATOM     30  H   UNL     1      -8.358   0.096  17.979  0.00  0.00    +0.000 HD
ATOM     31  H   UNL     1      -8.794   1.910  19.647  0.00  0.00    +0.000 HD
ATOM     32  H   UNL     1     -10.897   1.817  20.983  0.00  0.00    +0.000 HD
ATOM     33  H   UNL     1     -12.244  -0.295  20.955  0.00  0.00    +0.000 HD
ATOM     34  H   UNL     1      -9.918  -2.889  21.120  0.00  0.00    +0.000 HD
ATOM     35  H   UNL     1     -12.554  -2.647  14.319  0.00  0.00    +0.000 HD
ENDROOT
BRANCH   1  36
ATOM     36  C   UNL     1      -8.153  -5.826  20.269  0.00  0.00    +0.000 C 
ATOM     37  H   UNL     1      -8.791  -5.671  21.144  0.00  0.00    +0.000 HD
ATOM     38  H   UNL     1      -7.795  -6.859  20.337  0.00  0.00    +0.000 HD
BRANCH  36  39
ATOM     39  C   UNL     1      -6.918  -4.898  20.302  0.00  0.00    +0.000 C 
ATOM     40  H   UNL     1      -6.011  -5.507  20.374  0.00  0.00    +0.000 HD
ATOM     41  H   UNL     1      -6.816  -4.356  19.351  0.00  0.00    +0.000 HD
BRANCH  39  42
ATOM     42  C   UNL     1      -6.942  -3.887  21.454  0.00  0.00    +0.000 C 
ATOM     43  H   UNL     1      -6.104  -4.070  22.139  0.00  0.00    +0.000 HD
ATOM     44  H   UNL     1      -6.779  -2.880  21.055  0.00  0.00    +0.000 HD
BRANCH  42  45
ATOM     45  N   UNL     1      -8.207  -3.909  22.194  0.00  0.00    +0.000 NA
ATOM     46  H   UNL     1      -8.871  -3.285  21.731  0.00  0.00    +0.000 HD
BRANCH  45  47
ATOM     47  C   UNL     1      -8.060  -3.519  23.588  0.00  0.00    +0.000 C 
ATOM     48  H   UNL     1      -8.694  -2.650  23.788  0.00  0.00    +0.000 HD
ATOM     49  H   UNL     1      -7.025  -3.261  23.827  0.00  0.00    +0.000 HD
ATOM     50  H   UNL     1      -8.402  -4.305  24.267  0.00  0.00    +0.000 HD
ENDBRANCH  45  47
ENDBRANCH  42  45
ENDBRANCH  39  42
ENDBRANCH  36  39
ENDBRANCH   1  36
TORSDOF 5
ENDMDL
MODEL 9
REMARK VINA RESULT:    -7.896      3.248      6.375
REMARK INTER + INTRA:         -10.452
REMARK INTER:                  -9.628
REMARK INTRA:                  -0.824
REMARK UNBOUND:                -0.479
REMARK  Name = 
REMARK  5 active torsions:
REMARK  status: ('A' for Active; 'I' for Inactive)
REMARK    1  A    between atoms: C_1  and  N_2
REMARK    2  A    between atoms: N_2  and  C_3
REMARK    3  A    between atoms: C_3  and  C_4
REMARK    4  A    between atoms: C_4  and  C_5
REMARK    5  A    between atoms: C_5  and  N_6
REMARK                            x       y       z     vdW  Elec       q    Type
REMARK                         _______ _______ _______ _____ _____    ______ ____
ROOT
ATOM      1  N   UNL     1     -10.923  -4.082  17.811  0.00  0.00    +0.000 N 
ATOM      2  C   UNL     1     -10.239  -5.292  17.535  0.00  0.00    +0.000 A 
ATOM      3  C   UNL     1     -10.509  -6.329  16.618  0.00  0.00    +0.000 A 
ATOM      4  C   UNL     1      -9.619  -7.411  16.528  0.00  0.00    +0.000 A 
ATOM      5  C   UNL     1      -8.497  -7.475  17.346  0.00  0.00    +0.000 A 
ATOM      6  C   UNL     1      -8.255  -6.476  18.283  0.00  0.00    +0.000 A 
ATOM      7  C   UNL     1      -9.123  -5.368  18.385  0.00  0.00    +0.000 A 
ATOM      8  C   UNL     1      -9.226  -4.238  19.161  0.00  0.00    +0.000 A 
ATOM      9  C   UNL     1      -8.325  -3.876  20.200  0.00  0.00    +0.000 A 
ATOM     10  C   UNL     1      -8.673  -2.784  21.023  0.00  0.00    +0.000 A 
ATOM     11  C   UNL     1      -9.904  -2.124  20.770  0.00  0.00    +0.000 A 
ATOM     12  C   UNL     1     -10.240  -0.925  21.362  0.00  0.00    +0.000 A 
ATOM     13  C   UNL     1     -11.099  -0.541  22.412  0.00  0.00    +0.000 A 
ATOM     14  C   UNL     1     -11.463   0.805  22.521  0.00  0.00    +0.000 A 
ATOM     15  C   UNL     1     -10.884   1.738  21.668  0.00  0.00    +0.000 A 
ATOM     16  C   UNL     1     -10.232   1.319  20.502  0.00  0.00    +0.000 A 
ATOM     17  C   UNL     1     -10.227  -0.060  20.268  0.00  0.00    +0.000 A 
ATOM     18  N   UNL     1     -10.786  -0.893  19.249  0.00  0.00    +0.000 N 
ATOM     19  C   UNL     1     -10.354  -2.190  19.481  0.00  0.00    +0.000 A 
ATOM     20  C   UNL     1     -10.237  -3.392  18.801  0.00  0.00    +0.000 A 
ATOM     21  C   UNL     1      -7.616  -2.527  21.946  0.00  0.00    +0.000 C 
ATOM     22  O   UNL     1      -7.365  -1.611  22.719  0.00  0.00    +0.000 OA
ATOM     23  N   UNL     1      -6.772  -3.584  21.733  0.00  0.00    +0.000 N 
ATOM     24  C   UNL     1      -7.039  -4.361  20.656  0.00  0.00    +0.000 C 
ATOM     25  O   UNL     1      -6.239  -5.205  20.227  0.00  0.00    +0.000 OA
ATOM     26  H   UNL     1     -11.380  -6.304  15.961  0.00  0.00    +0.000 HD
ATOM     27  H   UNL     1      -9.793  -8.206  15.813  0.00  0.00    +0.000 HD
ATOM     28  H   UNL     1      -7.798  -8.304  17.266  0.00  0.00    +0.000 HD
ATOM     29  H   UNL     1      -7.381  -6.571  18.908  0.00  0.00    +0.000 HD
ATOM     30  H   UNL     1     -11.556  -1.299  23.038  0.00  0.00    +0.000 HD
ATOM     31  H   UNL     1     -12.153   1.118  23.296  0.00  0.00    +0.000 HD
ATOM     32  H   UNL     1     -10.938   2.797  21.912  0.00  0.00    +0.000 HD
ATOM     33  H   UNL     1      -9.528   1.988  20.007  0.00  0.00    +0.000 HD
ATOM     34  H   UNL     1     -11.370  -0.559  18.496  0.00  0.00    +0.000 HD
ATOM     35  H   UNL     1      -5.868  -3.628  22.178  0.00  0.00    +0.000 HD
ENDROOT
BRANCH   1  36
ATOM     36  C   UNL     1     -12.206  -3.738  17.208  0.00  0.00    +0.000 C 
ATOM     37  H   UNL     1     -12.626  -4.644  16.762  0.00  0.00    +0.000 HD
ATOM     38  H   UNL     1     -12.888  -3.456  18.017  0.00  0.00    +0.000 HD
BRANCH  36  39
ATOM     39  C   UNL     1     -12.174  -2.574  16.192  0.00  0.00    +0.000 C 
ATOM     40  H   UNL     1     -13.200  -2.307  15.917  0.00  0.00    +0.000 HD
ATOM     41  H   UNL     1     -11.764  -1.666  16.657  0.00  0.00    +0.000 HD
BRANCH  39  42
ATOM     42  C   UNL     1     -11.375  -2.890  14.922  0.00  0.00    +0.000 C 
ATOM     43  H   UNL     1     -11.435  -3.962  14.692  0.00  0.00    +0.000 HD
ATOM     44  H   UNL     1     -11.836  -2.381  14.069  0.00  0.00    +0.000 HD
BRANCH  42  45
ATOM     45  N   UNL     1      -9.972  -2.478  15.025  0.00  0.00    +0.000 NA
ATOM     46  H   UNL     1      -9.449  -3.206  15.513  0.00  0.00    +0.000 HD
BRANCH  45  47
ATOM     47  C   UNL     1      -9.799  -1.207  15.713  0.00  0.00    +0.000 C 
ATOM     48  H   UNL     1      -9.409  -0.466  15.009  0.00  0.00    +0.000 HD
ATOM     49  H   UNL     1      -9.104  -1.295  16.552  0.00  0.00    +0.000 HD
ATOM     50  H   UNL     1     -10.751  -0.808  16.075  0.00  0.00    +0.000 HD
ENDBRANCH  45  47
ENDBRANCH  42  45
ENDBRANCH  39  42
ENDBRANCH  36  39
ENDBRANCH   1  36
TORSDOF 5
ENDMDL
