MODEL 1
REMARK VINA RESULT:   -10.864      0.000      0.000
REMARK INTER + INTRA:         -15.742
REMARK INTER:                 -14.992
REMARK INTRA:                  -0.750
REMARK UNBOUND:                -0.750
REMARK  Name = 
REMARK  7 active torsions:
REMARK  status: ('A' for Active; 'I' for Inactive)
REMARK    1  A    between atoms: C_1  and  N_2
REMARK    2  A    between atoms: N_5  and  C_6
REMARK    3  A    between atoms: C_6  and  C_7
REMARK    4  A    between atoms: C_10  and  C_11
REMARK    5  A    between atoms: N_13  and  C_14
REMARK    6  A    between atoms: C_18  and  N_19
REMARK    7  A    between atoms: C_24  and  C_25
REMARK                            x       y       z     vdW  Elec       q    Type
REMARK                         _______ _______ _______ _____ _____    ______ ____
ROOT
ATOM      1  C   UNL     1      -8.069  -3.079  23.067  0.00  0.00    +0.000 C 
ATOM      2  O   UNL     1      -8.114  -4.144  23.674  0.00  0.00    +0.000 OA
ATOM      3  N   UNL     1      -7.722  -2.902  21.737  0.00  0.00    +0.000 N 
ATOM      4  H   UNL     1      -7.515  -1.961  21.432  0.00  0.00    +0.000 HD
ENDROOT
BRANCH   1   8
ATOM      5  C   UNL     1      -8.810   0.573  25.203  0.00  0.00    +0.000 A 
ATOM      6  C   UNL     1      -8.256   0.578  23.914  0.00  0.00    +0.000 A 
ATOM      7  C   UNL     1      -8.035  -0.616  23.232  0.00  0.00    +0.000 A 
ATOM      8  C   UNL     1      -8.346  -1.838  23.835  0.00  0.00    +0.000 A 
ATOM      9  C   UNL     1      -8.860  -1.859  25.137  0.00  0.00    +0.000 A 
ATOM     10  C   UNL     1      -9.106  -0.657  25.809  0.00  0.00    +0.000 A 
ATOM     11  H   UNL     1      -8.000   1.513  23.425  0.00  0.00    +0.000 HD
ATOM     12  H   UNL     1      -7.619  -0.590  22.226  0.00  0.00    +0.000 HD
ATOM     13  H   UNL     1      -9.046  -2.796  25.653  0.00  0.00    +0.000 HD
ATOM     14  H   UNL     1      -9.516  -0.682  26.816  0.00  0.00    +0.000 HD
BRANCH   5  15
ATOM     15  C   UNL     1      -9.071   1.881  25.924  0.00  0.00    +0.000 C 
ATOM     16  H   UNL     1      -9.926   1.712  26.593  0.00  0.00    +0.000 HD
ATOM     17  H   UNL     1      -8.223   2.087  26.588  0.00  0.00    +0.000 HD
BRANCH  15  21
ATOM     18  N   UNL     1      -9.589   5.457  26.779  0.00  0.00    +0.000 NA
ATOM     19  C   UNL     1      -8.293   4.859  26.411  0.00  0.00    +0.000 C 
ATOM     20  C   UNL     1      -8.379   4.098  25.068  0.00  0.00    +0.000 C 
ATOM     21  N   UNL     1      -9.389   3.017  25.040  0.00  0.00    +0.000 NA
ATOM     22  C   UNL     1     -10.686   3.624  25.433  0.00  0.00    +0.000 C 
ATOM     23  C   UNL     1     -10.656   4.440  26.753  0.00  0.00    +0.000 C 
ATOM     24  H   UNL     1      -7.945   4.186  27.203  0.00  0.00    +0.000 HD
ATOM     25  H   UNL     1      -7.541   5.649  26.310  0.00  0.00    +0.000 HD
ATOM     26  H   UNL     1      -7.389   3.725  24.783  0.00  0.00    +0.000 HD
ATOM     27  H   UNL     1      -8.633   4.818  24.279  0.00  0.00    +0.000 HD
ATOM     28  H   UNL     1     -11.460   2.850  25.498  0.00  0.00    +0.000 HD
ATOM     29  H   UNL     1     -11.006   4.290  24.620  0.00  0.00    +0.000 HD
ATOM     30  H   UNL     1     -10.548   3.750  27.599  0.00  0.00    +0.000 HD
ATOM     31  H   UNL     1     -11.627   4.938  26.869  0.00  0.00    +0.000 HD
BRANCH  18  32
ATOM     32  C   UNL     1      -9.507   6.108  28.084  0.00  0.00    +0.000 C 
ATOM     33  H   UNL     1      -8.712   6.861  28.090  0.00  0.00    +0.000 HD
ATOM     34  H   UNL     1      -9.308   5.395  28.892  0.00  0.00    +0.000 HD
ATOM     35  H   UNL     1     -10.442   6.633  28.308  0.00  0.00    +0.000 HD
ENDBRANCH  18  32
ENDBRANCH  15  21
ENDBRANCH   5  15
ENDBRANCH   1   8
BRANCH   3  36
ATOM     36  C   UNL     1      -7.459  -3.934  20.809  0.00  0.00    +0.000 A 
ATOM     37  C   UNL     1      -6.280  -4.680  20.830  0.00  0.00    +0.000 A 
ATOM     38  C   UNL     1      -6.053  -5.668  19.881  0.00  0.00    +0.000 A 
ATOM     39  C   UNL     1      -7.006  -5.911  18.898  0.00  0.00    +0.000 A 
ATOM     40  C   UNL     1      -8.203  -5.184  18.841  0.00  0.00    +0.000 A 
ATOM     41  C   UNL     1      -8.425  -4.205  19.825  0.00  0.00    +0.000 A 
ATOM     42  H   UNL     1      -5.515  -4.525  21.584  0.00  0.00    +0.000 HD
ATOM     43  H   UNL     1      -5.130  -6.240  19.899  0.00  0.00    +0.000 HD
ATOM     44  H   UNL     1      -6.794  -6.692  18.172  0.00  0.00    +0.000 HD
ATOM     45  H   UNL     1      -9.340  -3.622  19.791  0.00  0.00    +0.000 HD
BRANCH  40  46
ATOM     46  N   UNL     1      -9.116  -5.340  17.787  0.00  0.00    +0.000 N 
ATOM     47  C   UNL     1      -9.695  -6.503  17.281  0.00  0.00    +0.000 A 
ATOM     48  N   UNL     1     -10.643  -6.370  16.347  0.00  0.00    +0.000 NA
ATOM     49  C   UNL     1     -11.163  -7.508  15.849  0.00  0.00    +0.000 A 
ATOM     50  C   UNL     1     -10.758  -8.769  16.222  0.00  0.00    +0.000 A 
ATOM     51  C   UNL     1      -9.766  -8.825  17.175  0.00  0.00    +0.000 A 
ATOM     52  N   UNL     1      -9.250  -7.697  17.697  0.00  0.00    +0.000 NA
ATOM     53  H   UNL     1      -9.340  -4.544  17.211  0.00  0.00    +0.000 HD
ATOM     54  H   UNL     1     -11.941  -7.373  15.101  0.00  0.00    +0.000 HD
ATOM     55  H   UNL     1     -11.186  -9.649  15.761  0.00  0.00    +0.000 HD
BRANCH  51  56
ATOM     56  C   UNL     1      -9.160 -10.067  17.682  0.00  0.00    +0.000 A 
ATOM     57  C   UNL     1      -9.176 -11.252  16.925  0.00  0.00    +0.000 A 
ATOM     58  C   UNL     1      -8.617 -12.429  17.416  0.00  0.00    +0.000 A 
ATOM     59  C   UNL     1      -8.038 -12.398  18.673  0.00  0.00    +0.000 A 
ATOM     60  N   UNL     1      -7.977 -11.288  19.437  0.00  0.00    +0.000 NA
ATOM     61  C   UNL     1      -8.527 -10.160  18.921  0.00  0.00    +0.000 A 
ATOM     62  H   UNL     1      -9.634 -11.263  15.934  0.00  0.00    +0.000 HD
ATOM     63  H   UNL     1      -8.636 -13.342  16.833  0.00  0.00    +0.000 HD
ATOM     64  H   UNL     1      -7.597 -13.290  19.106  0.00  0.00    +0.000 HD
ATOM     65  H   UNL     1      -8.420  -9.294  19.568  0.00  0.00    +0.000 HD
ENDBRANCH  51  56
ENDBRANCH  40  46
ENDBRANCH   3  36
TORSDOF 7
ENDMDL
MODEL 2
REMARK VINA RESULT:    -9.806      2.082      4.162
REMARK INTER + INTRA:         -14.282
REMARK INTER:                 -13.453
REMARK INTRA:                  -0.829
REMARK UNBOUND:                -0.750
REMARK  Name = 
REMARK  7 active torsions:
REMARK  status: ('A' for Active; 'I' for Inactive)
REMARK    1  A    between atoms: C_1  and  N_2
REMARK    2  A    between atoms: N_5  and  C_6
REMARK    3  A    between atoms: C_6  and  C_7
REMARK    4  A    between atoms: C_10  and  C_11
REMARK    5  A    between atoms: N_13  and  C_14
REMARK    6  A    between atoms: C_18  and  N_19
REMARK    7  A    between atoms: C_24  and  C_25
REMARK                            x       y       z     vdW  Elec       q    Type
REMARK                         _______ _______ _______ _____ _____    ______ ____
ROOT
ATOM      1  C   UNL     1      -7.750  -3.168  23.172  0.00  0.00    +0.000 C 
ATOM      2  O   UNL     1      -8.088  -4.235  23.676  0.00  0.00    +0.000 OA
ATOM      3  N   UNL     1      -6.969  -3.001  22.039  0.00  0.00    +0.000 N 
ATOM      4  H   UNL     1      -6.591  -2.080  21.868  0.00  0.00    +0.000 HD
ENDROOT
BRANCH   1   8
ATOM      5  C   UNL     1      -8.854   0.503  25.110  0.00  0.00    +0.000 A 
ATOM      6  C   UNL     1      -8.164   0.498  23.888  0.00  0.00    +0.000 A 
ATOM      7  C   UNL     1      -7.827  -0.702  23.268  0.00  0.00    +0.000 A 
ATOM      8  C   UNL     1      -8.155  -1.920  23.870  0.00  0.00    +0.000 A 
ATOM      9  C   UNL     1      -8.805  -1.930  25.110  0.00  0.00    +0.000 A 
ATOM     10  C   UNL     1      -9.168  -0.723  25.716  0.00  0.00    +0.000 A 
ATOM     11  H   UNL     1      -7.891   1.431  23.402  0.00  0.00    +0.000 HD
ATOM     12  H   UNL     1      -7.306  -0.684  22.313  0.00  0.00    +0.000 HD
ATOM     13  H   UNL     1      -9.011  -2.861  25.630  0.00  0.00    +0.000 HD
ATOM     14  H   UNL     1      -9.682  -0.739  26.674  0.00  0.00    +0.000 HD
BRANCH   5  15
ATOM     15  C   UNL     1      -9.239   1.816  25.761  0.00  0.00    +0.000 C 
ATOM     16  H   UNL     1     -10.224   1.667  26.224  0.00  0.00    +0.000 HD
ATOM     17  H   UNL     1      -8.555   2.005  26.596  0.00  0.00    +0.000 HD
BRANCH  15  21
ATOM     18  N   UNL     1      -9.596   5.436  26.509  0.00  0.00    +0.000 NA
ATOM     19  C   UNL     1      -8.311   4.733  26.345  0.00  0.00    +0.000 C 
ATOM     20  C   UNL     1      -8.253   3.959  25.008  0.00  0.00    +0.000 C 
ATOM     21  N   UNL     1      -9.330   2.958  24.833  0.00  0.00    +0.000 NA
ATOM     22  C   UNL     1     -10.619   3.671  25.022  0.00  0.00    +0.000 C 
ATOM     23  C   UNL     1     -10.724   4.504  26.328  0.00  0.00    +0.000 C 
ATOM     24  H   UNL     1      -8.140   4.049  27.184  0.00  0.00    +0.000 HD
ATOM     25  H   UNL     1      -7.491   5.461  26.355  0.00  0.00    +0.000 HD
ATOM     26  H   UNL     1      -7.264   3.505  24.879  0.00  0.00    +0.000 HD
ATOM     27  H   UNL     1      -8.328   4.683  24.186  0.00  0.00    +0.000 HD
ATOM     28  H   UNL     1     -11.453   2.960  24.973  0.00  0.00    +0.000 HD
ATOM     29  H   UNL     1     -10.760   4.345  24.166  0.00  0.00    +0.000 HD
ATOM     30  H   UNL     1     -10.800   3.823  27.184  0.00  0.00    +0.000 HD
ATOM     31  H   UNL     1     -11.658   5.078  26.292  0.00  0.00    +0.000 HD
BRANCH  18  32
ATOM     32  C   UNL     1      -9.660   6.101  27.808  0.00  0.00    +0.000 C 
ATOM     33  H   UNL     1      -8.812   5.805  28.435  0.00  0.00    +0.000 HD
ATOM     34  H   UNL     1     -10.584   5.866  28.349  0.00  0.00    +0.000 HD
ATOM     35  H   UNL     1      -9.598   7.187  27.685  0.00  0.00    +0.000 HD
ENDBRANCH  18  32
ENDBRANCH  15  21
ENDBRANCH   5  15
ENDBRANCH   1   8
BRANCH   3  36
ATOM     36  C   UNL     1      -6.506  -4.037  21.197  0.00  0.00    +0.000 A 
ATOM     37  C   UNL     1      -5.174  -4.139  20.796  0.00  0.00    +0.000 A 
ATOM     38  C   UNL     1      -4.770  -5.160  19.945  0.00  0.00    +0.000 A 
ATOM     39  C   UNL     1      -5.702  -6.083  19.485  0.00  0.00    +0.000 A 
ATOM     40  C   UNL     1      -7.051  -6.015  19.864  0.00  0.00    +0.000 A 
ATOM     41  C   UNL     1      -7.435  -4.990  20.745  0.00  0.00    +0.000 A 
ATOM     42  H   UNL     1      -4.415  -3.443  21.138  0.00  0.00    +0.000 HD
ATOM     43  H   UNL     1      -3.733  -5.229  19.631  0.00  0.00    +0.000 HD
ATOM     44  H   UNL     1      -5.350  -6.868  18.821  0.00  0.00    +0.000 HD
ATOM     45  H   UNL     1      -8.476  -4.912  21.040  0.00  0.00    +0.000 HD
BRANCH  40  46
ATOM     46  N   UNL     1      -8.019  -6.868  19.314  0.00  0.00    +0.000 N 
ATOM     47  C   UNL     1      -9.107  -6.564  18.495  0.00  0.00    +0.000 A 
ATOM     48  N   UNL     1      -9.811  -7.584  17.994  0.00  0.00    +0.000 NA
ATOM     49  C   UNL     1     -10.877  -7.264  17.234  0.00  0.00    +0.000 A 
ATOM     50  C   UNL     1     -11.284  -5.975  16.981  0.00  0.00    +0.000 A 
ATOM     51  C   UNL     1     -10.519  -4.980  17.546  0.00  0.00    +0.000 A 
ATOM     52  N   UNL     1      -9.440  -5.282  18.290  0.00  0.00    +0.000 NA
ATOM     53  H   UNL     1      -8.040  -7.834  19.600  0.00  0.00    +0.000 HD
ATOM     54  H   UNL     1     -11.425  -8.110  16.827  0.00  0.00    +0.000 HD
ATOM     55  H   UNL     1     -12.170  -5.778  16.394  0.00  0.00    +0.000 HD
BRANCH  51  56
ATOM     56  C   UNL     1     -10.803  -3.540  17.436  0.00  0.00    +0.000 A 
ATOM     57  C   UNL     1     -11.949  -3.067  16.770  0.00  0.00    +0.000 A 
ATOM     58  C   UNL     1     -12.204  -1.704  16.654  0.00  0.00    +0.000 A 
ATOM     59  C   UNL     1     -11.297  -0.822  17.217  0.00  0.00    +0.000 A 
ATOM     60  N   UNL     1     -10.191  -1.216  17.882  0.00  0.00    +0.000 NA
ATOM     61  C   UNL     1      -9.981  -2.554  17.980  0.00  0.00    +0.000 A 
ATOM     62  H   UNL     1     -12.657  -3.773  16.332  0.00  0.00    +0.000 HD
ATOM     63  H   UNL     1     -13.084  -1.343  16.135  0.00  0.00    +0.000 HD
ATOM     64  H   UNL     1     -11.444   0.250  17.147  0.00  0.00    +0.000 HD
ATOM     65  H   UNL     1      -9.093  -2.808  18.552  0.00  0.00    +0.000 HD
ENDBRANCH  51  56
ENDBRANCH  40  46
ENDBRANCH   3  36
TORSDOF 7
ENDMDL
MODEL 3
REMARK VINA RESULT:    -9.617      6.389      7.722
REMARK INTER + INTRA:         -14.022
REMARK INTER:                 -13.428
REMARK INTRA:                  -0.594
REMARK UNBOUND:                -0.750
REMARK  Name = 
REMARK  7 active torsions:
REMARK  status: ('A' for Active; 'I' for Inactive)
REMARK    1  A    between atoms: C_1  and  N_2
REMARK    2  A    between atoms: N_5  and  C_6
REMARK    3  A    between atoms: C_6  and  C_7
REMARK    4  A    between atoms: C_10  and  C_11
REMARK    5  A    between atoms: N_13  and  C_14
REMARK    6  A    between atoms: C_18  and  N_19
REMARK    7  A    between atoms: C_24  and  C_25
REMARK                            x       y       z     vdW  Elec       q    Type
REMARK                         _______ _______ _______ _____ _____    ______ ____
ROOT
ATOM      1  C   UNL     1     -11.089  -1.664  16.555  0.00  0.00    +0.000 C 
ATOM      2  O   UNL     1      -9.911  -1.330  16.634  0.00  0.00    +0.000 OA
ATOM      3  N   UNL     1     -11.574  -2.953  16.408  0.00  0.00    +0.000 N 
ATOM      4  H   UNL     1     -12.542  -3.058  16.137  0.00  0.00    +0.000 HD
ENDROOT
BRANCH   1   8
ATOM      5  C   UNL     1     -13.983   1.510  16.635  0.00  0.00    +0.000 A 
ATOM      6  C   UNL     1     -12.834   1.546  17.438  0.00  0.00    +0.000 A 
ATOM      7  C   UNL     1     -11.900   0.514  17.389  0.00  0.00    +0.000 A 
ATOM      8  C   UNL     1     -12.110  -0.583  16.550  0.00  0.00    +0.000 A 
ATOM      9  C   UNL     1     -13.273  -0.653  15.774  0.00  0.00    +0.000 A 
ATOM     10  C   UNL     1     -14.196   0.398  15.805  0.00  0.00    +0.000 A 
ATOM     11  H   UNL     1     -12.649   2.385  18.104  0.00  0.00    +0.000 HD
ATOM     12  H   UNL     1     -11.007   0.569  18.008  0.00  0.00    +0.000 HD
ATOM     13  H   UNL     1     -13.492  -1.526  15.166  0.00  0.00    +0.000 HD
ATOM     14  H   UNL     1     -15.092   0.341  15.192  0.00  0.00    +0.000 HD
BRANCH   5  15
ATOM     15  C   UNL     1     -14.978   2.652  16.678  0.00  0.00    +0.000 C 
ATOM     16  H   UNL     1     -15.565   2.600  15.750  0.00  0.00    +0.000 HD
ATOM     17  H   UNL     1     -15.696   2.459  17.483  0.00  0.00    +0.000 HD
BRANCH  15  21
ATOM     18  N   UNL     1     -16.096   5.852  15.161  0.00  0.00    +0.000 NA
ATOM     19  C   UNL     1     -16.493   5.370  16.496  0.00  0.00    +0.000 C 
ATOM     20  C   UNL     1     -15.262   5.015  17.361  0.00  0.00    +0.000 C 
ATOM     21  N   UNL     1     -14.371   3.992  16.768  0.00  0.00    +0.000 NA
ATOM     22  C   UNL     1     -13.994   4.477  15.416  0.00  0.00    +0.000 C 
ATOM     23  C   UNL     1     -15.185   4.891  14.511  0.00  0.00    +0.000 C 
ATOM     24  H   UNL     1     -17.153   4.500  16.406  0.00  0.00    +0.000 HD
ATOM     25  H   UNL     1     -17.062   6.150  17.013  0.00  0.00    +0.000 HD
ATOM     26  H   UNL     1     -15.581   4.727  18.369  0.00  0.00    +0.000 HD
ATOM     27  H   UNL     1     -14.673   5.929  17.515  0.00  0.00    +0.000 HD
ATOM     28  H   UNL     1     -13.388   3.722  14.901  0.00  0.00    +0.000 HD
ATOM     29  H   UNL     1     -13.333   5.346  15.542  0.00  0.00    +0.000 HD
ATOM     30  H   UNL     1     -15.733   3.992  14.204  0.00  0.00    +0.000 HD
ATOM     31  H   UNL     1     -14.779   5.346  13.599  0.00  0.00    +0.000 HD
BRANCH  18  32
ATOM     32  C   UNL     1     -17.271   6.112  14.333  0.00  0.00    +0.000 C 
ATOM     33  H   UNL     1     -17.959   6.794  14.845  0.00  0.00    +0.000 HD
ATOM     34  H   UNL     1     -17.818   5.195  14.089  0.00  0.00    +0.000 HD
ATOM     35  H   UNL     1     -16.979   6.601  13.398  0.00  0.00    +0.000 HD
ENDBRANCH  18  32
ENDBRANCH  15  21
ENDBRANCH   5  15
ENDBRANCH   1   8
BRANCH   3  36
ATOM     36  C   UNL     1     -10.797  -4.134  16.427  0.00  0.00    +0.000 A 
ATOM     37  C   UNL     1     -10.346  -4.754  15.262  0.00  0.00    +0.000 A 
ATOM     38  C   UNL     1      -9.607  -5.928  15.329  0.00  0.00    +0.000 A 
ATOM     39  C   UNL     1      -9.319  -6.491  16.567  0.00  0.00    +0.000 A 
ATOM     40  C   UNL     1      -9.753  -5.899  17.761  0.00  0.00    +0.000 A 
ATOM     41  C   UNL     1     -10.479  -4.699  17.674  0.00  0.00    +0.000 A 
ATOM     42  H   UNL     1     -10.545  -4.344  14.277  0.00  0.00    +0.000 HD
ATOM     43  H   UNL     1      -9.267  -6.410  14.418  0.00  0.00    +0.000 HD
ATOM     44  H   UNL     1      -8.739  -7.411  16.580  0.00  0.00    +0.000 HD
ATOM     45  H   UNL     1     -10.835  -4.231  18.586  0.00  0.00    +0.000 HD
BRANCH  40  46
ATOM     46  N   UNL     1      -9.570  -6.520  19.006  0.00  0.00    +0.000 N 
ATOM     47  C   UNL     1      -9.178  -7.827  19.295  0.00  0.00    +0.000 A 
ATOM     48  N   UNL     1      -8.949  -8.138  20.575  0.00  0.00    +0.000 NA
ATOM     49  C   UNL     1      -8.605  -9.415  20.834  0.00  0.00    +0.000 A 
ATOM     50  C   UNL     1      -8.510 -10.397  19.875  0.00  0.00    +0.000 A 
ATOM     51  C   UNL     1      -8.778 -10.004  18.582  0.00  0.00    +0.000 A 
ATOM     52  N   UNL     1      -9.103  -8.728  18.306  0.00  0.00    +0.000 NA
ATOM     53  H   UNL     1      -9.844  -6.031  19.843  0.00  0.00    +0.000 HD
ATOM     54  H   UNL     1      -8.411  -9.639  21.880  0.00  0.00    +0.000 HD
ATOM     55  H   UNL     1      -8.266 -11.415  20.144  0.00  0.00    +0.000 HD
BRANCH  51  56
ATOM     56  C   UNL     1      -8.775 -10.902  17.416  0.00  0.00    +0.000 A 
ATOM     57  C   UNL     1      -9.090 -10.432  16.128  0.00  0.00    +0.000 A 
ATOM     58  C   UNL     1      -9.102 -11.289  15.031  0.00  0.00    +0.000 A 
ATOM     59  C   UNL     1      -8.789 -12.621  15.244  0.00  0.00    +0.000 A 
ATOM     60  N   UNL     1      -8.460 -13.125  16.451  0.00  0.00    +0.000 NA
ATOM     61  C   UNL     1      -8.454 -12.256  17.494  0.00  0.00    +0.000 A 
ATOM     62  H   UNL     1      -9.334  -9.379  15.974  0.00  0.00    +0.000 HD
ATOM     63  H   UNL     1      -9.352 -10.926  14.041  0.00  0.00    +0.000 HD
ATOM     64  H   UNL     1      -8.793 -13.332  14.424  0.00  0.00    +0.000 HD
ATOM     65  H   UNL     1      -8.152 -12.714  18.433  0.00  0.00    +0.000 HD
ENDBRANCH  51  56
ENDBRANCH  40  46
ENDBRANCH   3  36
TORSDOF 7
ENDMDL
MODEL 4
REMARK VINA RESULT:    -9.615      2.752     11.143
REMARK INTER + INTRA:         -14.018
REMARK INTER:                 -12.952
REMARK INTRA:                  -1.066
REMARK UNBOUND:                -0.750
REMARK  Name = 
REMARK  7 active torsions:
REMARK  status: ('A' for Active; 'I' for Inactive)
REMARK    1  A    between atoms: C_1  and  N_2
REMARK    2  A    between atoms: N_5  and  C_6
REMARK    3  A    between atoms: C_6  and  C_7
REMARK    4  A    between atoms: C_10  and  C_11
REMARK    5  A    between atoms: N_13  and  C_14
REMARK    6  A    between atoms: C_18  and  N_19
REMARK    7  A    between atoms: C_24  and  C_25
REMARK                            x       y       z     vdW  Elec       q    Type
REMARK                         _______ _______ _______ _____ _____    ______ ____
ROOT
ATOM      1  C   UNL     1      -7.441  -3.729  21.567  0.00  0.00    +0.000 C 
ATOM      2  O   UNL     1      -6.348  -3.220  21.795  0.00  0.00    +0.000 OA
ATOM      3  N   UNL     1      -8.582  -3.618  22.345  0.00  0.00    +0.000 N 
ATOM      4  H   UNL     1      -9.338  -4.261  22.157  0.00  0.00    +0.000 HD
ENDROOT
BRANCH   1   8
ATOM      5  C   UNL     1      -7.885  -6.252  18.119  0.00  0.00    +0.000 A 
ATOM      6  C   UNL     1      -8.938  -5.447  18.577  0.00  0.00    +0.000 A 
ATOM      7  C   UNL     1      -8.771  -4.625  19.689  0.00  0.00    +0.000 A 
ATOM      8  C   UNL     1      -7.553  -4.610  20.375  0.00  0.00    +0.000 A 
ATOM      9  C   UNL     1      -6.508  -5.440  19.954  0.00  0.00    +0.000 A 
ATOM     10  C   UNL     1      -6.670  -6.244  18.820  0.00  0.00    +0.000 A 
ATOM     11  H   UNL     1      -9.896  -5.444  18.067  0.00  0.00    +0.000 HD
ATOM     12  H   UNL     1      -9.595  -3.995  20.019  0.00  0.00    +0.000 HD
ATOM     13  H   UNL     1      -5.576  -5.497  20.509  0.00  0.00    +0.000 HD
ATOM     14  H   UNL     1      -5.849  -6.878  18.493  0.00  0.00    +0.000 HD
BRANCH   5  15
ATOM     15  C   UNL     1      -8.071  -7.122  16.892  0.00  0.00    +0.000 C 
ATOM     16  H   UNL     1      -7.790  -6.512  16.022  0.00  0.00    +0.000 HD
ATOM     17  H   UNL     1      -7.334  -7.932  16.924  0.00  0.00    +0.000 HD
BRANCH  15  21
ATOM     18  N   UNL     1      -9.240 -10.491  15.857  0.00  0.00    +0.000 NA
ATOM     19  C   UNL     1      -9.040 -10.062  17.252  0.00  0.00    +0.000 C 
ATOM     20  C   UNL     1      -9.807  -8.755  17.560  0.00  0.00    +0.000 C 
ATOM     21  N   UNL     1      -9.446  -7.613  16.690  0.00  0.00    +0.000 NA
ATOM     22  C   UNL     1      -9.629  -8.062  15.287  0.00  0.00    +0.000 C 
ATOM     23  C   UNL     1      -8.918  -9.394  14.925  0.00  0.00    +0.000 C 
ATOM     24  H   UNL     1      -7.973  -9.930  17.461  0.00  0.00    +0.000 HD
ATOM     25  H   UNL     1      -9.404 -10.841  17.931  0.00  0.00    +0.000 HD
ATOM     26  H   UNL     1      -9.700  -8.497  18.619  0.00  0.00    +0.000 HD
ATOM     27  H   UNL     1     -10.881  -8.948  17.436  0.00  0.00    +0.000 HD
ATOM     28  H   UNL     1      -9.308  -7.275  14.594  0.00  0.00    +0.000 HD
ATOM     29  H   UNL     1     -10.707  -8.184  15.110  0.00  0.00    +0.000 HD
ATOM     30  H   UNL     1      -7.835  -9.226  14.891  0.00  0.00    +0.000 HD
ATOM     31  H   UNL     1      -9.229  -9.683  13.913  0.00  0.00    +0.000 HD
BRANCH  18  32
ATOM     32  C   UNL     1      -8.451 -11.684  15.564  0.00  0.00    +0.000 C 
ATOM     33  H   UNL     1      -8.884 -12.563  16.053  0.00  0.00    +0.000 HD
ATOM     34  H   UNL     1      -7.411 -11.587  15.895  0.00  0.00    +0.000 HD
ATOM     35  H   UNL     1      -8.452 -11.890  14.488  0.00  0.00    +0.000 HD
ENDBRANCH  18  32
ENDBRANCH  15  21
ENDBRANCH   5  15
ENDBRANCH   1   8
BRANCH   3  36
ATOM     36  C   UNL     1      -8.720  -2.807  23.495  0.00  0.00    +0.000 A 
ATOM     37  C   UNL     1      -8.676  -3.326  24.789  0.00  0.00    +0.000 A 
ATOM     38  C   UNL     1      -8.843  -2.494  25.888  0.00  0.00    +0.000 A 
ATOM     39  C   UNL     1      -9.061  -1.134  25.697  0.00  0.00    +0.000 A 
ATOM     40  C   UNL     1      -9.112  -0.573  24.412  0.00  0.00    +0.000 A 
ATOM     41  C   UNL     1      -8.916  -1.427  23.314  0.00  0.00    +0.000 A 
ATOM     42  H   UNL     1      -8.503  -4.379  24.980  0.00  0.00    +0.000 HD
ATOM     43  H   UNL     1      -8.816  -2.905  26.892  0.00  0.00    +0.000 HD
ATOM     44  H   UNL     1      -9.187  -0.514  26.580  0.00  0.00    +0.000 HD
ATOM     45  H   UNL     1      -8.965  -1.015  22.311  0.00  0.00    +0.000 HD
BRANCH  40  46
ATOM     46  N   UNL     1      -9.448   0.774  24.205  0.00  0.00    +0.000 N 
ATOM     47  C   UNL     1     -10.127   1.364  23.139  0.00  0.00    +0.000 A 
ATOM     48  N   UNL     1     -10.438   2.660  23.243  0.00  0.00    +0.000 NA
ATOM     49  C   UNL     1     -11.064   3.216  22.187  0.00  0.00    +0.000 A 
ATOM     50  C   UNL     1     -11.364   2.541  21.026  0.00  0.00    +0.000 A 
ATOM     51  C   UNL     1     -10.997   1.215  20.989  0.00  0.00    +0.000 A 
ATOM     52  N   UNL     1     -10.390   0.640  22.042  0.00  0.00    +0.000 NA
ATOM     53  H   UNL     1      -9.081   1.472  24.832  0.00  0.00    +0.000 HD
ATOM     54  H   UNL     1     -11.318   4.267  22.301  0.00  0.00    +0.000 HD
ATOM     55  H   UNL     1     -11.835   3.048  20.195  0.00  0.00    +0.000 HD
BRANCH  51  56
ATOM     56  C   UNL     1     -11.186   0.326  19.831  0.00  0.00    +0.000 A 
ATOM     57  C   UNL     1     -10.965  -1.060  19.927  0.00  0.00    +0.000 A 
ATOM     58  C   UNL     1     -11.129  -1.894  18.824  0.00  0.00    +0.000 A 
ATOM     59  C   UNL     1     -11.522  -1.320  17.627  0.00  0.00    +0.000 A 
ATOM     60  N   UNL     1     -11.766  -0.001  17.479  0.00  0.00    +0.000 NA
ATOM     61  C   UNL     1     -11.602   0.778  18.579  0.00  0.00    +0.000 A 
ATOM     62  H   UNL     1     -10.657  -1.501  20.877  0.00  0.00    +0.000 HD
ATOM     63  H   UNL     1     -10.952  -2.961  18.900  0.00  0.00    +0.000 HD
ATOM     64  H   UNL     1     -11.655  -1.924  16.736  0.00  0.00    +0.000 HD
ATOM     65  H   UNL     1     -11.842   1.823  18.405  0.00  0.00    +0.000 HD
ENDBRANCH  51  56
ENDBRANCH  40  46
ENDBRANCH   3  36
TORSDOF 7
ENDMDL
MODEL 5
REMARK VINA RESULT:    -9.559      7.174      8.487
REMARK INTER + INTRA:         -13.941
REMARK INTER:                 -13.834
REMARK INTRA:                  -0.108
REMARK UNBOUND:                -0.750
REMARK  Name = 
REMARK  7 active torsions:
REMARK  status: ('A' for Active; 'I' for Inactive)
REMARK    1  A    between atoms: C_1  and  N_2
REMARK    2  A    between atoms: N_5  and  C_6
REMARK    3  A    between atoms: C_6  and  C_7
REMARK    4  A    between atoms: C_10  and  C_11
REMARK    5  A    between atoms: N_13  and  C_14
REMARK    6  A    between atoms: C_18  and  N_19
REMARK    7  A    between atoms: C_24  and  C_25
REMARK                            x       y       z     vdW  Elec       q    Type
REMARK                         _______ _______ _______ _____ _____    ______ ____
ROOT
ATOM      1  C   UNL     1     -11.862  -2.818  14.565  0.00  0.00    +0.000 C 
ATOM      2  O   UNL     1     -11.920  -3.438  13.508  0.00  0.00    +0.000 OA
ATOM      3  N   UNL     1     -11.233  -3.228  15.729  0.00  0.00    +0.000 N 
ATOM      4  H   UNL     1     -11.450  -2.724  16.578  0.00  0.00    +0.000 HD
ENDROOT
BRANCH   1   8
ATOM      5  C   UNL     1     -13.924   0.949  14.677  0.00  0.00    +0.000 A 
ATOM      6  C   UNL     1     -13.315   0.482  13.503  0.00  0.00    +0.000 A 
ATOM      7  C   UNL     1     -12.663  -0.748  13.482  0.00  0.00    +0.000 A 
ATOM      8  C   UNL     1     -12.590  -1.524  14.642  0.00  0.00    +0.000 A 
ATOM      9  C   UNL     1     -13.156  -1.051  15.832  0.00  0.00    +0.000 A 
ATOM     10  C   UNL     1     -13.834   0.172  15.842  0.00  0.00    +0.000 A 
ATOM     11  H   UNL     1     -13.352   1.068  12.589  0.00  0.00    +0.000 HD
ATOM     12  H   UNL     1     -12.211  -1.100  12.557  0.00  0.00    +0.000 HD
ATOM     13  H   UNL     1     -13.054  -1.603  16.762  0.00  0.00    +0.000 HD
ATOM     14  H   UNL     1     -14.281   0.528  16.768  0.00  0.00    +0.000 HD
BRANCH   5  15
ATOM     15  C   UNL     1     -14.654   2.277  14.680  0.00  0.00    +0.000 C 
ATOM     16  H   UNL     1     -13.903   3.055  14.873  0.00  0.00    +0.000 HD
ATOM     17  H   UNL     1     -15.020   2.475  13.666  0.00  0.00    +0.000 HD
BRANCH  15  21
ATOM     18  N   UNL     1     -16.944   5.114  15.385  0.00  0.00    +0.000 NA
ATOM     19  C   UNL     1     -17.235   4.009  14.454  0.00  0.00    +0.000 C 
ATOM     20  C   UNL     1     -17.062   2.632  15.134  0.00  0.00    +0.000 C 
ATOM     21  N   UNL     1     -15.714   2.392  15.698  0.00  0.00    +0.000 NA
ATOM     22  C   UNL     1     -15.421   3.521  16.617  0.00  0.00    +0.000 C 
ATOM     23  C   UNL     1     -15.619   4.934  16.006  0.00  0.00    +0.000 C 
ATOM     24  H   UNL     1     -16.591   4.076  13.570  0.00  0.00    +0.000 HD
ATOM     25  H   UNL     1     -18.270   4.090  14.102  0.00  0.00    +0.000 HD
ATOM     26  H   UNL     1     -17.352   1.832  14.444  0.00  0.00    +0.000 HD
ATOM     27  H   UNL     1     -17.789   2.558  15.955  0.00  0.00    +0.000 HD
ATOM     28  H   UNL     1     -14.402   3.431  17.011  0.00  0.00    +0.000 HD
ATOM     29  H   UNL     1     -16.081   3.424  17.491  0.00  0.00    +0.000 HD
ATOM     30  H   UNL     1     -14.824   5.124  15.274  0.00  0.00    +0.000 HD
ATOM     31  H   UNL     1     -15.497   5.673  16.808  0.00  0.00    +0.000 HD
BRANCH  18  32
ATOM     32  C   UNL     1     -17.041   6.403  14.706  0.00  0.00    +0.000 C 
ATOM     33  H   UNL     1     -16.895   7.225  15.415  0.00  0.00    +0.000 HD
ATOM     34  H   UNL     1     -18.012   6.543  14.216  0.00  0.00    +0.000 HD
ATOM     35  H   UNL     1     -16.256   6.497  13.948  0.00  0.00    +0.000 HD
ENDBRANCH  18  32
ENDBRANCH  15  21
ENDBRANCH   5  15
ENDBRANCH   1   8
BRANCH   3  36
ATOM     36  C   UNL     1     -10.451  -4.396  15.877  0.00  0.00    +0.000 A 
ATOM     37  C   UNL     1      -9.920  -5.086  14.787  0.00  0.00    +0.000 A 
ATOM     38  C   UNL     1      -9.179  -6.245  14.979  0.00  0.00    +0.000 A 
ATOM     39  C   UNL     1      -8.970  -6.723  16.268  0.00  0.00    +0.000 A 
ATOM     40  C   UNL     1      -9.487  -6.059  17.390  0.00  0.00    +0.000 A 
ATOM     41  C   UNL     1     -10.212  -4.875  17.176  0.00  0.00    +0.000 A 
ATOM     42  H   UNL     1     -10.056  -4.743  13.767  0.00  0.00    +0.000 HD
ATOM     43  H   UNL     1      -8.776  -6.782  14.126  0.00  0.00    +0.000 HD
ATOM     44  H   UNL     1      -8.386  -7.633  16.380  0.00  0.00    +0.000 HD
ATOM     45  H   UNL     1     -10.631  -4.353  18.030  0.00  0.00    +0.000 HD
BRANCH  40  46
ATOM     46  N   UNL     1      -9.382  -6.596  18.682  0.00  0.00    +0.000 N 
ATOM     47  C   UNL     1      -9.055  -7.893  19.079  0.00  0.00    +0.000 A 
ATOM     48  N   UNL     1      -8.894  -8.119  20.387  0.00  0.00    +0.000 NA
ATOM     49  C   UNL     1      -8.613  -9.386  20.750  0.00  0.00    +0.000 A 
ATOM     50  C   UNL     1      -8.515 -10.437  19.867  0.00  0.00    +0.000 A 
ATOM     51  C   UNL     1      -8.711 -10.127  18.539  0.00  0.00    +0.000 A 
ATOM     52  N   UNL     1      -8.973  -8.864  18.160  0.00  0.00    +0.000 NA
ATOM     53  H   UNL     1      -9.673  -6.039  19.469  0.00  0.00    +0.000 HD
ATOM     54  H   UNL     1      -8.473  -9.542  21.816  0.00  0.00    +0.000 HD
ATOM     55  H   UNL     1      -8.323 -11.441  20.218  0.00  0.00    +0.000 HD
BRANCH  51  56
ATOM     56  C   UNL     1      -8.692 -11.106  17.440  0.00  0.00    +0.000 A 
ATOM     57  C   UNL     1      -8.856 -10.707  16.101  0.00  0.00    +0.000 A 
ATOM     58  C   UNL     1      -8.855 -11.639  15.066  0.00  0.00    +0.000 A 
ATOM     59  C   UNL     1      -8.682 -12.973  15.393  0.00  0.00    +0.000 A 
ATOM     60  N   UNL     1      -8.502 -13.413  16.656  0.00  0.00    +0.000 NA
ATOM     61  C   UNL     1      -8.503 -12.473  17.636  0.00  0.00    +0.000 A 
ATOM     62  H   UNL     1      -8.990  -9.652  15.856  0.00  0.00    +0.000 HD
ATOM     63  H   UNL     1      -8.987 -11.330  14.036  0.00  0.00    +0.000 HD
ATOM     64  H   UNL     1      -8.682 -13.740  14.626  0.00  0.00    +0.000 HD
ATOM     65  H   UNL     1      -8.323 -12.885  18.625  0.00  0.00    +0.000 HD
ENDBRANCH  51  56
ENDBRANCH  40  46
ENDBRANCH   3  36
TORSDOF 7
ENDMDL
MODEL 6
REMARK VINA RESULT:    -9.367      3.198     11.512
REMARK INTER + INTRA:         -13.676
REMARK INTER:                 -12.944
REMARK INTRA:                  -0.733
REMARK UNBOUND:                -0.750
REMARK  Name = 
REMARK  7 active torsions:
REMARK  status: ('A' for Active; 'I' for Inactive)
REMARK    1  A    between atoms: C_1  and  N_2
REMARK    2  A    between atoms: N_5  and  C_6
REMARK    3  A    between atoms: C_6  and  C_7
REMARK    4  A    between atoms: C_10  and  C_11
REMARK    5  A    between atoms: N_13  and  C_14
REMARK    6  A    between atoms: C_18  and  N_19
REMARK    7  A    between atoms: C_24  and  C_25
REMARK                            x       y       z     vdW  Elec       q    Type
REMARK                         _______ _______ _______ _____ _____    ______ ____
ROOT
ATOM      1  C   UNL     1     -11.264  -3.323  18.222  0.00  0.00    +0.000 C 
ATOM      2  O   UNL     1     -12.050  -3.529  19.141  0.00  0.00    +0.000 OA
ATOM      3  N   UNL     1     -10.926  -2.091  17.685  0.00  0.00    +0.000 N 
ATOM      4  H   UNL     1     -10.442  -2.087  16.798  0.00  0.00    +0.000 HD
ENDROOT
BRANCH   1   8
ATOM      5  C   UNL     1      -9.460  -6.782  16.423  0.00  0.00    +0.000 A 
ATOM      6  C   UNL     1      -9.528  -6.632  17.816  0.00  0.00    +0.000 A 
ATOM      7  C   UNL     1     -10.129  -5.510  18.381  0.00  0.00    +0.000 A 
ATOM      8  C   UNL     1     -10.654  -4.507  17.562  0.00  0.00    +0.000 A 
ATOM      9  C   UNL     1     -10.554  -4.623  16.170  0.00  0.00    +0.000 A 
ATOM     10  C   UNL     1      -9.975  -5.764  15.605  0.00  0.00    +0.000 A 
ATOM     11  H   UNL     1      -9.122  -7.394  18.475  0.00  0.00    +0.000 HD
ATOM     12  H   UNL     1     -10.186  -5.421  19.464  0.00  0.00    +0.000 HD
ATOM     13  H   UNL     1     -10.893  -3.827  15.513  0.00  0.00    +0.000 HD
ATOM     14  H   UNL     1      -9.911  -5.851  14.523  0.00  0.00    +0.000 HD
BRANCH   5  15
ATOM     15  C   UNL     1      -8.827  -8.020  15.820  0.00  0.00    +0.000 C 
ATOM     16  H   UNL     1      -8.089  -7.676  15.083  0.00  0.00    +0.000 HD
ATOM     17  H   UNL     1      -8.243  -8.526  16.597  0.00  0.00    +0.000 HD
BRANCH  15  21
ATOM     18  N   UNL     1      -9.148 -11.711  16.071  0.00  0.00    +0.000 NA
ATOM     19  C   UNL     1      -9.869 -10.744  16.918  0.00  0.00    +0.000 C 
ATOM     20  C   UNL     1     -10.629  -9.700  16.069  0.00  0.00    +0.000 C 
ATOM     21  N   UNL     1      -9.773  -8.925  15.142  0.00  0.00    +0.000 NA
ATOM     22  C   UNL     1      -9.036  -9.907  14.308  0.00  0.00    +0.000 C 
ATOM     23  C   UNL     1      -8.286 -11.010  15.102  0.00  0.00    +0.000 C 
ATOM     24  H   UNL     1      -9.173 -10.241  17.599  0.00  0.00    +0.000 HD
ATOM     25  H   UNL     1     -10.597 -11.275  17.541  0.00  0.00    +0.000 HD
ATOM     26  H   UNL     1     -11.212  -9.038  16.719  0.00  0.00    +0.000 HD
ATOM     27  H   UNL     1     -11.385 -10.226  15.470  0.00  0.00    +0.000 HD
ATOM     28  H   UNL     1      -8.331  -9.387  13.648  0.00  0.00    +0.000 HD
ATOM     29  H   UNL     1      -9.760 -10.391  13.638  0.00  0.00    +0.000 HD
ATOM     30  H   UNL     1      -7.423 -10.564  15.610  0.00  0.00    +0.000 HD
ATOM     31  H   UNL     1      -7.891 -11.739  14.383  0.00  0.00    +0.000 HD
BRANCH  18  32
ATOM     32  C   UNL     1      -8.378 -12.644  16.889  0.00  0.00    +0.000 C 
ATOM     33  H   UNL     1      -8.954 -13.556  17.081  0.00  0.00    +0.000 HD
ATOM     34  H   UNL     1      -8.093 -12.211  17.855  0.00  0.00    +0.000 HD
ATOM     35  H   UNL     1      -7.467 -12.951  16.365  0.00  0.00    +0.000 HD
ENDBRANCH  18  32
ENDBRANCH  15  21
ENDBRANCH   5  15
ENDBRANCH   1   8
BRANCH   3  36
ATOM     36  C   UNL     1     -11.350  -0.835  18.174  0.00  0.00    +0.000 A 
ATOM     37  C   UNL     1     -11.891   0.149  17.346  0.00  0.00    +0.000 A 
ATOM     38  C   UNL     1     -12.269   1.380  17.867  0.00  0.00    +0.000 A 
ATOM     39  C   UNL     1     -12.103   1.634  19.223  0.00  0.00    +0.000 A 
ATOM     40  C   UNL     1     -11.563   0.672  20.089  0.00  0.00    +0.000 A 
ATOM     41  C   UNL     1     -11.209  -0.575  19.548  0.00  0.00    +0.000 A 
ATOM     42  H   UNL     1     -12.042  -0.013  16.284  0.00  0.00    +0.000 HD
ATOM     43  H   UNL     1     -12.682   2.143  17.215  0.00  0.00    +0.000 HD
ATOM     44  H   UNL     1     -12.410   2.608  19.595  0.00  0.00    +0.000 HD
ATOM     45  H   UNL     1     -10.777  -1.329  20.199  0.00  0.00    +0.000 HD
BRANCH  40  46
ATOM     46  N   UNL     1     -11.281   0.960  21.433  0.00  0.00    +0.000 N 
ATOM     47  C   UNL     1     -10.263   0.470  22.251  0.00  0.00    +0.000 A 
ATOM     48  N   UNL     1     -10.133   1.006  23.469  0.00  0.00    +0.000 NA
ATOM     49  C   UNL     1      -9.164   0.493  24.252  0.00  0.00    +0.000 A 
ATOM     50  C   UNL     1      -8.342  -0.547  23.882  0.00  0.00    +0.000 A 
ATOM     51  C   UNL     1      -8.549  -1.056  22.620  0.00  0.00    +0.000 A 
ATOM     52  N   UNL     1      -9.499  -0.542  21.818  0.00  0.00    +0.000 NA
ATOM     53  H   UNL     1     -11.936   1.514  21.963  0.00  0.00    +0.000 HD
ATOM     54  H   UNL     1      -9.069   0.954  25.232  0.00  0.00    +0.000 HD
ATOM     55  H   UNL     1      -7.605  -0.943  24.566  0.00  0.00    +0.000 HD
BRANCH  51  56
ATOM     56  C   UNL     1      -7.812  -2.193  22.044  0.00  0.00    +0.000 A 
ATOM     57  C   UNL     1      -6.508  -2.510  22.466  0.00  0.00    +0.000 A 
ATOM     58  C   UNL     1      -5.808  -3.576  21.907  0.00  0.00    +0.000 A 
ATOM     59  C   UNL     1      -6.436  -4.321  20.923  0.00  0.00    +0.000 A 
ATOM     60  N   UNL     1      -7.690  -4.076  20.492  0.00  0.00    +0.000 NA
ATOM     61  C   UNL     1      -8.342  -3.033  21.066  0.00  0.00    +0.000 A 
ATOM     62  H   UNL     1      -6.024  -1.916  23.244  0.00  0.00    +0.000 HD
ATOM     63  H   UNL     1      -4.801  -3.814  22.229  0.00  0.00    +0.000 HD
ATOM     64  H   UNL     1      -5.932  -5.156  20.448  0.00  0.00    +0.000 HD
ATOM     65  H   UNL     1      -9.357  -2.905  20.699  0.00  0.00    +0.000 HD
ENDBRANCH  51  56
ENDBRANCH  40  46
ENDBRANCH   3  36
TORSDOF 7
ENDMDL
MODEL 7
REMARK VINA RESULT:    -9.308      5.574      7.285
REMARK INTER + INTRA:         -13.595
REMARK INTER:                 -12.527
REMARK INTRA:                  -1.068
REMARK UNBOUND:                -0.750
REMARK  Name = 
REMARK  7 active torsions:
REMARK  status: ('A' for Active; 'I' for Inactive)
REMARK    1  A    between atoms: C_1  and  N_2
REMARK    2  A    between atoms: N_5  and  C_6
REMARK    3  A    between atoms: C_6  and  C_7
REMARK    4  A    between atoms: C_10  and  C_11
REMARK    5  A    between atoms: N_13  and  C_14
REMARK    6  A    between atoms: C_18  and  N_19
REMARK    7  A    between atoms: C_24  and  C_25
REMARK                            x       y       z     vdW  Elec       q    Type
REMARK                         _______ _______ _______ _____ _____    ______ ____
ROOT
ATOM      1  C   UNL     1     -11.395  -0.683  21.029  0.00  0.00    +0.000 C 
ATOM      2  O   UNL     1     -11.446  -1.728  20.388  0.00  0.00    +0.000 OA
ATOM      3  N   UNL     1     -10.778  -0.498  22.256  0.00  0.00    +0.000 N 
ATOM      4  H   UNL     1     -11.001   0.346  22.766  0.00  0.00    +0.000 HD
ENDROOT
BRANCH   1   8
ATOM      5  C   UNL     1     -13.409   2.719  19.351  0.00  0.00    +0.000 A 
ATOM      6  C   UNL     1     -12.466   1.988  18.613  0.00  0.00    +0.000 A 
ATOM      7  C   UNL     1     -11.833   0.880  19.169  0.00  0.00    +0.000 A 
ATOM      8  C   UNL     1     -12.117   0.495  20.483  0.00  0.00    +0.000 A 
ATOM      9  C   UNL     1     -13.024   1.240  21.245  0.00  0.00    +0.000 A 
ATOM     10  C   UNL     1     -13.679   2.336  20.674  0.00  0.00    +0.000 A 
ATOM     11  H   UNL     1     -12.223   2.270  17.592  0.00  0.00    +0.000 HD
ATOM     12  H   UNL     1     -11.117   0.317  18.574  0.00  0.00    +0.000 HD
ATOM     13  H   UNL     1     -13.210   1.003  22.288  0.00  0.00    +0.000 HD
ATOM     14  H   UNL     1     -14.390   2.904  21.270  0.00  0.00    +0.000 HD
BRANCH   5  15
ATOM     15  C   UNL     1     -14.111   3.907  18.725  0.00  0.00    +0.000 C 
ATOM     16  H   UNL     1     -15.187   3.774  18.904  0.00  0.00    +0.000 HD
ATOM     17  H   UNL     1     -13.836   4.809  19.284  0.00  0.00    +0.000 HD
BRANCH  15  21
ATOM     18  N   UNL     1     -16.162   5.711  16.209  0.00  0.00    +0.000 NA
ATOM     19  C   UNL     1     -15.041   6.303  16.962  0.00  0.00    +0.000 C 
ATOM     20  C   UNL     1     -13.756   5.456  16.826  0.00  0.00    +0.000 C 
ATOM     21  N   UNL     1     -13.897   4.052  17.273  0.00  0.00    +0.000 NA
ATOM     22  C   UNL     1     -15.041   3.472  16.526  0.00  0.00    +0.000 C 
ATOM     23  C   UNL     1     -16.353   4.299  16.587  0.00  0.00    +0.000 C 
ATOM     24  H   UNL     1     -15.309   6.414  18.019  0.00  0.00    +0.000 HD
ATOM     25  H   UNL     1     -14.833   7.308  16.578  0.00  0.00    +0.000 HD
ATOM     26  H   UNL     1     -12.922   5.953  17.335  0.00  0.00    +0.000 HD
ATOM     27  H   UNL     1     -13.459   5.445  15.768  0.00  0.00    +0.000 HD
ATOM     28  H   UNL     1     -15.236   2.449  16.870  0.00  0.00    +0.000 HD
ATOM     29  H   UNL     1     -14.741   3.372  15.474  0.00  0.00    +0.000 HD
ATOM     30  H   UNL     1     -16.777   4.226  17.595  0.00  0.00    +0.000 HD
ATOM     31  H   UNL     1     -17.077   3.841  15.902  0.00  0.00    +0.000 HD
BRANCH  18  32
ATOM     32  C   UNL     1     -17.385   6.484  16.409  0.00  0.00    +0.000 C 
ATOM     33  H   UNL     1     -17.190   7.359  17.038  0.00  0.00    +0.000 HD
ATOM     34  H   UNL     1     -18.178   5.893  16.882  0.00  0.00    +0.000 HD
ATOM     35  H   UNL     1     -17.760   6.861  15.451  0.00  0.00    +0.000 HD
ENDBRANCH  18  32
ENDBRANCH  15  21
ENDBRANCH   5  15
ENDBRANCH   1   8
BRANCH   3  36
ATOM     36  C   UNL     1     -10.003  -1.459  22.943  0.00  0.00    +0.000 A 
ATOM     37  C   UNL     1     -10.397  -2.009  24.163  0.00  0.00    +0.000 A 
ATOM     38  C   UNL     1      -9.590  -2.932  24.815  0.00  0.00    +0.000 A 
ATOM     39  C   UNL     1      -8.376  -3.307  24.249  0.00  0.00    +0.000 A 
ATOM     40  C   UNL     1      -7.943  -2.778  23.025  0.00  0.00    +0.000 A 
ATOM     41  C   UNL     1      -8.785  -1.864  22.369  0.00  0.00    +0.000 A 
ATOM     42  H   UNL     1     -11.339  -1.747  24.635  0.00  0.00    +0.000 HD
ATOM     43  H   UNL     1      -9.899  -3.349  25.768  0.00  0.00    +0.000 HD
ATOM     44  H   UNL     1      -7.771  -4.031  24.788  0.00  0.00    +0.000 HD
ATOM     45  H   UNL     1      -8.463  -1.434  21.426  0.00  0.00    +0.000 HD
BRANCH  40  46
ATOM     46  N   UNL     1      -6.671  -3.059  22.505  0.00  0.00    +0.000 N 
ATOM     47  C   UNL     1      -6.310  -3.891  21.445  0.00  0.00    +0.000 A 
ATOM     48  N   UNL     1      -5.030  -3.887  21.060  0.00  0.00    +0.000 NA
ATOM     49  C   UNL     1      -4.699  -4.723  20.057  0.00  0.00    +0.000 A 
ATOM     50  C   UNL     1      -5.584  -5.582  19.445  0.00  0.00    +0.000 A 
ATOM     51  C   UNL     1      -6.880  -5.540  19.908  0.00  0.00    +0.000 A 
ATOM     52  N   UNL     1      -7.230  -4.696  20.895  0.00  0.00    +0.000 NA
ATOM     53  H   UNL     1      -5.856  -2.721  22.993  0.00  0.00    +0.000 HD
ATOM     54  H   UNL     1      -3.656  -4.692  19.754  0.00  0.00    +0.000 HD
ATOM     55  H   UNL     1      -5.254  -6.258  18.669  0.00  0.00    +0.000 HD
BRANCH  51  56
ATOM     56  C   UNL     1      -7.970  -6.401  19.423  0.00  0.00    +0.000 A 
ATOM     57  C   UNL     1      -8.138  -7.713  19.902  0.00  0.00    +0.000 A 
ATOM     58  C   UNL     1      -9.161  -8.529  19.427  0.00  0.00    +0.000 A 
ATOM     59  C   UNL     1     -10.015  -8.010  18.469  0.00  0.00    +0.000 A 
ATOM     60  N   UNL     1      -9.915  -6.755  17.985  0.00  0.00    +0.000 NA
ATOM     61  C   UNL     1      -8.909  -5.988  18.478  0.00  0.00    +0.000 A 
ATOM     62  H   UNL     1      -7.459  -8.110  20.659  0.00  0.00    +0.000 HD
ATOM     63  H   UNL     1      -9.284  -9.541  19.794  0.00  0.00    +0.000 HD
ATOM     64  H   UNL     1     -10.822  -8.607  18.059  0.00  0.00    +0.000 HD
ATOM     65  H   UNL     1      -8.899  -4.980  18.072  0.00  0.00    +0.000 HD
ENDBRANCH  51  56
ENDBRANCH  40  46
ENDBRANCH   3  36
TORSDOF 7
ENDMDL
MODEL 8
REMARK VINA RESULT:    -9.243      7.355      9.411
REMARK INTER + INTRA:         -13.505
REMARK INTER:                 -13.189
REMARK INTRA:                  -0.317
REMARK UNBOUND:                -0.750
REMARK  Name = 
REMARK  7 active torsions:
REMARK  status: ('A' for Active; 'I' for Inactive)
REMARK    1  A    between atoms: C_1  and  N_2
REMARK    2  A    between atoms: N_5  and  C_6
REMARK    3  A    between atoms: C_6  and  C_7
REMARK    4  A    between atoms: C_10  and  C_11
REMARK    5  A    between atoms: N_13  and  C_14
REMARK    6  A    between atoms: C_18  and  N_19
REMARK    7  A    between atoms: C_24  and  C_25
REMARK                            x       y       z     vdW  Elec       q    Type
REMARK                         _______ _______ _______ _____ _____    ______ ____
ROOT
ATOM      1  C   UNL     1     -11.197  -1.970  15.145  0.00  0.00    +0.000 C 
ATOM      2  O   UNL     1     -10.054  -1.543  15.017  0.00  0.00    +0.000 OA
ATOM      3  N   UNL     1     -11.566  -3.289  15.360  0.00  0.00    +0.000 N 
ATOM      4  H   UNL     1     -12.539  -3.527  15.226  0.00  0.00    +0.000 HD
ENDROOT
BRANCH   1   8
ATOM      5  C   UNL     1     -14.383   0.856  14.590  0.00  0.00    +0.000 A 
ATOM      6  C   UNL     1     -13.536   0.491  13.534  0.00  0.00    +0.000 A 
ATOM      7  C   UNL     1     -12.516  -0.437  13.730  0.00  0.00    +0.000 A 
ATOM      8  C   UNL     1     -12.314  -1.002  14.992  0.00  0.00    +0.000 A 
ATOM      9  C   UNL     1     -13.125  -0.615  16.065  0.00  0.00    +0.000 A 
ATOM     10  C   UNL     1     -14.166   0.297  15.858  0.00  0.00    +0.000 A 
ATOM     11  H   UNL     1     -13.667   0.920  12.544  0.00  0.00    +0.000 HD
ATOM     12  H   UNL     1     -11.880  -0.719  12.893  0.00  0.00    +0.000 HD
ATOM     13  H   UNL     1     -12.945  -0.987  17.069  0.00  0.00    +0.000 HD
ATOM     14  H   UNL     1     -14.798   0.584  16.695  0.00  0.00    +0.000 HD
BRANCH   5  15
ATOM     15  C   UNL     1     -15.506   1.848  14.357  0.00  0.00    +0.000 C 
ATOM     16  H   UNL     1     -16.440   1.348  14.651  0.00  0.00    +0.000 HD
ATOM     17  H   UNL     1     -15.390   2.677  15.064  0.00  0.00    +0.000 HD
BRANCH  15  21
ATOM     18  N   UNL     1     -18.581   2.419  12.356  0.00  0.00    +0.000 NA
ATOM     19  C   UNL     1     -17.908   3.443  13.175  0.00  0.00    +0.000 C 
ATOM     20  C   UNL     1     -16.409   3.562  12.817  0.00  0.00    +0.000 C 
ATOM     21  N   UNL     1     -15.642   2.305  12.963  0.00  0.00    +0.000 NA
ATOM     22  C   UNL     1     -16.340   1.275  12.152  0.00  0.00    +0.000 C 
ATOM     23  C   UNL     1     -17.860   1.136  12.433  0.00  0.00    +0.000 C 
ATOM     24  H   UNL     1     -18.023   3.215  14.240  0.00  0.00    +0.000 HD
ATOM     25  H   UNL     1     -18.380   4.417  13.004  0.00  0.00    +0.000 HD
ATOM     26  H   UNL     1     -15.949   4.376  13.388  0.00  0.00    +0.000 HD
ATOM     27  H   UNL     1     -16.328   3.888  11.771  0.00  0.00    +0.000 HD
ATOM     28  H   UNL     1     -15.853   0.301  12.279  0.00  0.00    +0.000 HD
ATOM     29  H   UNL     1     -16.204   1.532  11.092  0.00  0.00    +0.000 HD
ATOM     30  H   UNL     1     -18.002   0.675  13.418  0.00  0.00    +0.000 HD
ATOM     31  H   UNL     1     -18.282   0.444  11.694  0.00  0.00    +0.000 HD
BRANCH  18  32
ATOM     32  C   UNL     1     -19.977   2.269  12.758  0.00  0.00    +0.000 C 
ATOM     33  H   UNL     1     -20.523   1.656  12.033  0.00  0.00    +0.000 HD
ATOM     34  H   UNL     1     -20.490   3.234  12.844  0.00  0.00    +0.000 HD
ATOM     35  H   UNL     1     -20.044   1.754  13.722  0.00  0.00    +0.000 HD
ENDBRANCH  18  32
ENDBRANCH  15  21
ENDBRANCH   5  15
ENDBRANCH   1   8
BRANCH   3  36
ATOM     36  C   UNL     1     -10.680  -4.368  15.575  0.00  0.00    +0.000 A 
ATOM     37  C   UNL     1     -10.038  -5.033  14.530  0.00  0.00    +0.000 A 
ATOM     38  C   UNL     1      -9.195  -6.106  14.788  0.00  0.00    +0.000 A 
ATOM     39  C   UNL     1      -8.995  -6.525  16.099  0.00  0.00    +0.000 A 
ATOM     40  C   UNL     1      -9.621  -5.884  17.178  0.00  0.00    +0.000 A 
ATOM     41  C   UNL     1     -10.451  -4.785  16.898  0.00  0.00    +0.000 A 
ATOM     42  H   UNL     1     -10.164  -4.733  13.495  0.00  0.00    +0.000 HD
ATOM     43  H   UNL     1      -8.705  -6.623  13.970  0.00  0.00    +0.000 HD
ATOM     44  H   UNL     1      -8.329  -7.368  16.263  0.00  0.00    +0.000 HD
ATOM     45  H   UNL     1     -10.955  -4.283  17.717  0.00  0.00    +0.000 HD
BRANCH  40  46
ATOM     46  N   UNL     1      -9.519  -6.371  18.489  0.00  0.00    +0.000 N 
ATOM     47  C   UNL     1      -9.175  -7.647  18.937  0.00  0.00    +0.000 A 
ATOM     48  N   UNL     1      -9.021  -7.822  20.253  0.00  0.00    +0.000 NA
ATOM     49  C   UNL     1      -8.723  -9.070  20.665  0.00  0.00    +0.000 A 
ATOM     50  C   UNL     1      -8.601 -10.151  19.822  0.00  0.00    +0.000 A 
ATOM     51  C   UNL     1      -8.790  -9.894  18.482  0.00  0.00    +0.000 A 
ATOM     52  N   UNL     1      -9.069  -8.650  18.054  0.00  0.00    +0.000 NA
ATOM     53  H   UNL     1      -9.826  -5.790  19.253  0.00  0.00    +0.000 HD
ATOM     54  H   UNL     1      -8.590  -9.185  21.737  0.00  0.00    +0.000 HD
ATOM     55  H   UNL     1      -8.395 -11.139  20.211  0.00  0.00    +0.000 HD
BRANCH  51  56
ATOM     56  C   UNL     1      -8.746 -10.912  17.420  0.00  0.00    +0.000 A 
ATOM     57  C   UNL     1      -8.951 -10.572  16.070  0.00  0.00    +0.000 A 
ATOM     58  C   UNL     1      -8.925 -11.541  15.071  0.00  0.00    +0.000 A 
ATOM     59  C   UNL     1      -8.687 -12.853  15.444  0.00  0.00    +0.000 A 
ATOM     60  N   UNL     1      -8.467 -13.236  16.718  0.00  0.00    +0.000 NA
ATOM     61  C   UNL     1      -8.493 -12.261  17.663  0.00  0.00    +0.000 A 
ATOM     62  H   UNL     1      -9.136  -9.534  15.789  0.00  0.00    +0.000 HD
ATOM     63  H   UNL     1      -9.089 -11.278  14.033  0.00  0.00    +0.000 HD
ATOM     64  H   UNL     1      -8.667 -13.648  14.706  0.00  0.00    +0.000 HD
ATOM     65  H   UNL     1      -8.278 -12.626  18.664  0.00  0.00    +0.000 HD
ENDBRANCH  51  56
ENDBRANCH  40  46
ENDBRANCH   3  36
TORSDOF 7
ENDMDL
MODEL 9
REMARK VINA RESULT:    -9.206      2.893     11.345
REMARK INTER + INTRA:         -13.454
REMARK INTER:                 -12.690
REMARK INTRA:                  -0.764
REMARK UNBOUND:                -0.750
REMARK  Name = 
REMARK  7 active torsions:
REMARK  status: ('A' for Active; 'I' for Inactive)
REMARK    1  A    between atoms: C_1  and  N_2
REMARK    2  A    between atoms: N_5  and  C_6
REMARK    3  A    between atoms: C_6  and  C_7
REMARK    4  A    between atoms: C_10  and  C_11
REMARK    5  A    between atoms: N_13  and  C_14
REMARK    6  A    between atoms: C_18  and  N_19
REMARK    7  A    between atoms: C_24  and  C_25
REMARK                            x       y       z     vdW  Elec       q    Type
REMARK                         _______ _______ _______ _____ _____    ______ ____
ROOT
ATOM      1  C   UNL     1      -9.809  -1.609  19.456  0.00  0.00    +0.000 C 
ATOM      2  O   UNL     1      -8.858  -1.024  19.964  0.00  0.00    +0.000 OA
ATOM      3  N   UNL     1     -11.100  -1.126  19.321  0.00  0.00    +0.000 N 
ATOM      4  H   UNL     1     -11.824  -1.791  19.087  0.00  0.00    +0.000 HD
ENDROOT
BRANCH   1   8
ATOM      5  C   UNL     1      -9.269  -5.630  18.044  0.00  0.00    +0.000 A 
ATOM      6  C   UNL     1     -10.218  -4.773  17.468  0.00  0.00    +0.000 A 
ATOM      7  C   UNL     1     -10.370  -3.468  17.931  0.00  0.00    +0.000 A 
ATOM      8  C   UNL     1      -9.588  -3.004  18.992  0.00  0.00    +0.000 A 
ATOM      9  C   UNL     1      -8.666  -3.862  19.604  0.00  0.00    +0.000 A 
ATOM     10  C   UNL     1      -8.497  -5.163  19.119  0.00  0.00    +0.000 A 
ATOM     11  H   UNL     1     -10.843  -5.111  16.646  0.00  0.00    +0.000 HD
ATOM     12  H   UNL     1     -11.101  -2.814  17.460  0.00  0.00    +0.000 HD
ATOM     13  H   UNL     1      -8.096  -3.547  20.473  0.00  0.00    +0.000 HD
ATOM     14  H   UNL     1      -7.772  -5.820  19.593  0.00  0.00    +0.000 HD
BRANCH   5  15
ATOM     15  C   UNL     1      -9.095  -7.040  17.514  0.00  0.00    +0.000 C 
ATOM     16  H   UNL     1      -9.133  -6.976  16.418  0.00  0.00    +0.000 HD
ATOM     17  H   UNL     1      -8.079  -7.377  17.747  0.00  0.00    +0.000 HD
BRANCH  15  21
ATOM     18  N   UNL     1      -9.667 -10.553  16.457  0.00  0.00    +0.000 NA
ATOM     19  C   UNL     1      -8.814 -10.142  17.586  0.00  0.00    +0.000 C 
ATOM     20  C   UNL     1      -9.576  -9.227  18.571  0.00  0.00    +0.000 C 
ATOM     21  N   UNL     1     -10.126  -7.995  17.961  0.00  0.00    +0.000 NA
ATOM     22  C   UNL     1     -10.965  -8.417  16.811  0.00  0.00    +0.000 C 
ATOM     23  C   UNL     1     -10.270  -9.375  15.807  0.00  0.00    +0.000 C 
ATOM     24  H   UNL     1      -7.914  -9.635  17.220  0.00  0.00    +0.000 HD
ATOM     25  H   UNL     1      -8.479 -11.031  18.133  0.00  0.00    +0.000 HD
ATOM     26  H   UNL     1      -8.945  -8.994  19.435  0.00  0.00    +0.000 HD
ATOM     27  H   UNL     1     -10.415  -9.796  18.994  0.00  0.00    +0.000 HD
ATOM     28  H   UNL     1     -11.343  -7.537  16.277  0.00  0.00    +0.000 HD
ATOM     29  H   UNL     1     -11.857  -8.919  17.212  0.00  0.00    +0.000 HD
ATOM     30  H   UNL     1      -9.512  -8.817  15.244  0.00  0.00    +0.000 HD
ATOM     31  H   UNL     1     -11.021  -9.713  15.082  0.00  0.00    +0.000 HD
BRANCH  18  32
ATOM     32  C   UNL     1      -8.910 -11.356  15.500  0.00  0.00    +0.000 C 
ATOM     33  H   UNL     1      -8.414 -12.192  16.006  0.00  0.00    +0.000 HD
ATOM     34  H   UNL     1      -8.145 -10.770  14.979  0.00  0.00    +0.000 HD
ATOM     35  H   UNL     1      -9.580 -11.794  14.752  0.00  0.00    +0.000 HD
ENDBRANCH  18  32
ENDBRANCH  15  21
ENDBRANCH   5  15
ENDBRANCH   1   8
BRANCH   3  36
ATOM     36  C   UNL     1     -11.531   0.179  19.654  0.00  0.00    +0.000 A 
ATOM     37  C   UNL     1     -12.137   1.028  18.728  0.00  0.00    +0.000 A 
ATOM     38  C   UNL     1     -12.520   2.312  19.093  0.00  0.00    +0.000 A 
ATOM     39  C   UNL     1     -12.293   2.755  20.391  0.00  0.00    +0.000 A 
ATOM     40  C   UNL     1     -11.687   1.933  21.352  0.00  0.00    +0.000 A 
ATOM     41  C   UNL     1     -11.329   0.629  20.969  0.00  0.00    +0.000 A 
ATOM     42  H   UNL     1     -12.337   0.717  17.707  0.00  0.00    +0.000 HD
ATOM     43  H   UNL     1     -12.984   2.970  18.365  0.00  0.00    +0.000 HD
ATOM     44  H   UNL     1     -12.606   3.766  20.641  0.00  0.00    +0.000 HD
ATOM     45  H   UNL     1     -10.847  -0.019  21.695  0.00  0.00    +0.000 HD
BRANCH  40  46
ATOM     46  N   UNL     1     -11.347   2.410  22.627  0.00  0.00    +0.000 N 
ATOM     47  C   UNL     1     -10.410   1.919  23.536  0.00  0.00    +0.000 A 
ATOM     48  N   UNL     1     -10.181   2.638  24.640  0.00  0.00    +0.000 NA
ATOM     49  C   UNL     1      -9.297   2.126  25.520  0.00  0.00    +0.000 A 
ATOM     50  C   UNL     1      -8.659   0.918  25.357  0.00  0.00    +0.000 A 
ATOM     51  C   UNL     1      -8.960   0.229  24.204  0.00  0.00    +0.000 A 
ATOM     52  N   UNL     1      -9.824   0.736  23.306  0.00  0.00    +0.000 NA
ATOM     53  H   UNL     1     -11.897   3.148  23.037  0.00  0.00    +0.000 HD
ATOM     54  H   UNL     1      -9.118   2.735  26.402  0.00  0.00    +0.000 HD
ATOM     55  H   UNL     1      -7.986   0.539  26.114  0.00  0.00    +0.000 HD
BRANCH  51  56
ATOM     56  C   UNL     1      -8.422  -1.096  23.856  0.00  0.00    +0.000 A 
ATOM     57  C   UNL     1      -7.385  -1.243  22.916  0.00  0.00    +0.000 A 
ATOM     58  C   UNL     1      -6.892  -2.500  22.578  0.00  0.00    +0.000 A 
ATOM     59  C   UNL     1      -7.449  -3.605  23.198  0.00  0.00    +0.000 A 
ATOM     60  N   UNL     1      -8.431  -3.526  24.118  0.00  0.00    +0.000 NA
ATOM     61  C   UNL     1      -8.881  -2.282  24.426  0.00  0.00    +0.000 A 
ATOM     62  H   UNL     1      -6.953  -0.363  22.435  0.00  0.00    +0.000 HD
ATOM     63  H   UNL     1      -6.097  -2.610  21.849  0.00  0.00    +0.000 HD
ATOM     64  H   UNL     1      -7.107  -4.608  22.963  0.00  0.00    +0.000 HD
ATOM     65  H   UNL     1      -9.649  -2.281  25.195  0.00  0.00    +0.000 HD
ENDBRANCH  51  56
ENDBRANCH  40  46
ENDBRANCH   3  36
TORSDOF 7
ENDMDL
