REMARK  Name = 
REMARK  3 active torsions:
REMARK  status: ('A' for Active; 'I' for Inactive)
REMARK    1  A    between atoms: C_1  and  N_2
REMARK    2  A    between atoms: C_4  and  C_5
REMARK    3  A    between atoms: C_6  and  C_7
REMARK                            x       y       z     vdW  Elec       q    Type
REMARK                         _______ _______ _______ _____ _____    ______ ____
ROOT
ATOM      1  C   UNL     1      -0.539  -1.204  -1.291  0.00  0.00    +0.000 C 
ATOM      2  C   UNL     1       0.016  -1.999  -0.364  0.00  0.00    +0.000 C 
ATOM      3  C   UNL     1      -0.186  -3.397  -0.801  0.00  0.00    +0.000 C 
ATOM      4  O   UNL     1       0.192  -4.403  -0.229  0.00  0.00    +0.000 OA
ATOM      5  N   UNL     1      -0.864  -3.356  -1.966  0.00  0.00    +0.000 N 
ATOM      6  C   UNL     1      -1.123  -2.082  -2.328  0.00  0.00    +0.000 C 
ATOM      7  O   UNL     1      -1.737  -1.736  -3.320  0.00  0.00    +0.000 OA
ATOM      8  H   UNL     1      -1.146  -4.167  -2.490  0.00  0.00    +0.000 HD
ENDROOT
BRANCH   2   9
ATOM      9  C   UNL     1       0.677  -1.649   0.837  0.00  0.00    +0.000 A 
ATOM     10  C   UNL     1       2.022  -1.371   0.939  0.00  0.00    +0.000 A 
ATOM     11  N   UNL     1       2.284  -1.078   2.252  0.00  0.00    +0.000 N 
ATOM     12  C   UNL     1       1.136  -1.185   3.006  0.00  0.00    +0.000 A 
ATOM     13  C   UNL     1       0.939  -1.002   4.380  0.00  0.00    +0.000 A 
ATOM     14  C   UNL     1      -0.350  -1.205   4.882  0.00  0.00    +0.000 A 
ATOM     15  C   UNL     1      -1.401  -1.562   4.041  0.00  0.00    +0.000 A 
ATOM     16  C   UNL     1      -1.191  -1.726   2.667  0.00  0.00    +0.000 A 
ATOM     17  C   UNL     1       0.103  -1.543   2.137  0.00  0.00    +0.000 A 
ATOM     18  H   UNL     1       2.815  -1.361   0.204  0.00  0.00    +0.000 HD
ATOM     19  H   UNL     1       3.192  -0.837   2.625  0.00  0.00    +0.000 HD
ATOM     20  H   UNL     1       1.755  -0.725   5.039  0.00  0.00    +0.000 HD
ATOM     21  H   UNL     1      -0.532  -1.088   5.948  0.00  0.00    +0.000 HD
ATOM     22  H   UNL     1      -2.394  -1.722   4.455  0.00  0.00    +0.000 HD
ATOM     23  H   UNL     1      -2.018  -2.008   2.023  0.00  0.00    +0.000 HD
ENDBRANCH   2   9
BRANCH   1  26
ATOM     24  N   UNL     1      -1.312   2.288  -1.030  0.00  0.00    +0.000 N 
ATOM     25  C   UNL     1      -1.591   0.973  -0.762  0.00  0.00    +0.000 A 
ATOM     26  C   UNL     1      -0.600   0.211  -1.340  0.00  0.00    +0.000 A 
ATOM     27  C   UNL     1       0.319   1.094  -1.980  0.00  0.00    +0.000 A 
ATOM     28  C   UNL     1       1.512   0.917  -2.712  0.00  0.00    +0.000 A 
ATOM     29  C   UNL     1       2.177   2.034  -3.232  0.00  0.00    +0.000 A 
ATOM     30  C   UNL     1       1.671   3.315  -3.035  0.00  0.00    +0.000 A 
ATOM     31  C   UNL     1       0.496   3.518  -2.307  0.00  0.00    +0.000 A 
ATOM     32  C   UNL     1      -0.161   2.393  -1.784  0.00  0.00    +0.000 A 
ATOM     33  H   UNL     1      -2.466   0.691  -0.190  0.00  0.00    +0.000 HD
ATOM     34  H   UNL     1       1.916  -0.077  -2.878  0.00  0.00    +0.000 HD
ATOM     35  H   UNL     1       3.094   1.897  -3.799  0.00  0.00    +0.000 HD
ATOM     36  H   UNL     1       2.195   4.171  -3.454  0.00  0.00    +0.000 HD
ATOM     37  H   UNL     1       0.107   4.521  -2.161  0.00  0.00    +0.000 HD
BRANCH  24  38
ATOM     38  C   UNL     1      -2.107   3.409  -0.578  0.00  0.00    +0.000 C 
ATOM     39  H   UNL     1      -2.968   3.045  -0.012  0.00  0.00    +0.000 HD
ATOM     40  H   UNL     1      -2.448   3.967  -1.454  0.00  0.00    +0.000 HD
ATOM     41  H   UNL     1      -1.482   4.037   0.061  0.00  0.00    +0.000 HD
ENDBRANCH  24  38
ENDBRANCH   1  26
TORSDOF 3
