MODEL 1
REMARK VINA RESULT:   -12.025      0.000      0.000
REMARK INTER + INTRA:         -12.377
REMARK INTER:                 -12.377
REMARK INTRA:                   0.000
REMARK UNBOUND:                 0.000
REMARK  Name = 
REMARK  1 active torsions:
REMARK  status: ('A' for Active; 'I' for Inactive)
REMARK    1  A    between atoms: C_4  and  O_5
REMARK                            x       y       z     vdW  Elec       q    Type
REMARK                         _______ _______ _______ _____ _____    ______ ____
ROOT
ATOM      1  O   UNL     1      -8.910  -6.350  14.972  0.00  0.00    +0.000 OA
ATOM      2  C   UNL     1      -8.938  -7.568  15.089  0.00  0.00    +0.000 C 
ATOM      3  N   UNL     1      -9.085  -8.395  13.983  0.00  0.00    +0.000 N 
ATOM      4  C   UNL     1      -9.042  -9.805  14.233  0.00  0.00    +0.000 C 
ATOM      5  C   UNL     1      -8.923  -9.810  15.698  0.00  0.00    +0.000 A 
ATOM      6  C   UNL     1      -8.855  -8.474  16.203  0.00  0.00    +0.000 A 
ATOM      7  C   UNL     1      -8.720  -8.284  17.604  0.00  0.00    +0.000 A 
ATOM      8  C   UNL     1      -8.634  -7.083  18.306  0.00  0.00    +0.000 A 
ATOM      9  C   UNL     1      -8.637  -5.699  18.047  0.00  0.00    +0.000 A 
ATOM     10  C   UNL     1      -8.524  -4.791  19.108  0.00  0.00    +0.000 A 
ATOM     11  C   UNL     1      -8.409  -5.235  20.421  0.00  0.00    +0.000 A 
ATOM     12  C   UNL     1      -8.402  -6.600  20.717  0.00  0.00    +0.000 A 
ATOM     13  C   UNL     1      -8.514  -7.502  19.649  0.00  0.00    +0.000 A 
ATOM     14  N   UNL     1      -8.531  -8.893  19.680  0.00  0.00    +0.000 N 
ATOM     15  C   UNL     1      -8.658  -9.375  18.413  0.00  0.00    +0.000 A 
ATOM     16  C   UNL     1      -8.720 -10.655  17.919  0.00  0.00    +0.000 A 
ATOM     17  N   UNL     1      -8.676 -11.878  18.521  0.00  0.00    +0.000 N 
ATOM     18  C   UNL     1      -8.775 -12.875  17.554  0.00  0.00    +0.000 A 
ATOM     19  C   UNL     1      -8.774 -14.267  17.721  0.00  0.00    +0.000 A 
ATOM     20  C   UNL     1      -8.888 -15.060  16.577  0.00  0.00    +0.000 A 
ATOM     21  C   UNL     1      -9.000 -14.483  15.315  0.00  0.00    +0.000 A 
ATOM     22  C   UNL     1      -9.000 -13.091  15.155  0.00  0.00    +0.000 A 
ATOM     23  C   UNL     1      -8.887 -12.262  16.289  0.00  0.00    +0.000 A 
ATOM     24  C   UNL     1      -8.848 -10.904  16.592  0.00  0.00    +0.000 A 
ATOM     25  H   UNL     1      -9.127  -8.001  13.056  0.00  0.00    +0.000 HD
ATOM     26  H   UNL     1      -8.183 -10.247  13.724  0.00  0.00    +0.000 HD
ATOM     27  H   UNL     1      -8.723  -5.313  17.037  0.00  0.00    +0.000 HD
ATOM     28  H   UNL     1      -8.528  -3.724  18.898  0.00  0.00    +0.000 HD
ATOM     29  H   UNL     1      -8.325  -4.512  21.229  0.00  0.00    +0.000 HD
ATOM     30  H   UNL     1      -8.312  -6.943  21.742  0.00  0.00    +0.000 HD
ATOM     31  H   UNL     1      -8.459  -9.443  20.523  0.00  0.00    +0.000 HD
ATOM     32  H   UNL     1      -8.584 -12.051  19.510  0.00  0.00    +0.000 HD
ATOM     33  H   UNL     1      -8.689 -14.721  18.703  0.00  0.00    +0.000 HD
ATOM     34  H   UNL     1      -8.893 -16.143  16.677  0.00  0.00    +0.000 HD
ATOM     35  H   UNL     1      -9.092 -15.122  14.440  0.00  0.00    +0.000 HD
ATOM     36  H   UNL     1      -9.098 -12.672  14.159  0.00  0.00    +0.000 HD
ENDROOT
BRANCH   4  37
ATOM     37  O   UNL     1     -10.257 -10.326  13.765  0.00  0.00    +0.000 OA
ATOM     38  H   UNL     1     -10.948  -9.835  14.238  0.00  0.00    +0.000 HD
ENDBRANCH   4  37
TORSDOF 1
ENDMDL
MODEL 2
REMARK VINA RESULT:   -11.641      3.152      5.212
REMARK INTER + INTRA:         -11.981
REMARK INTER:                 -11.981
REMARK INTRA:                   0.000
REMARK UNBOUND:                 0.000
REMARK  Name = 
REMARK  1 active torsions:
REMARK  status: ('A' for Active; 'I' for Inactive)
REMARK    1  A    between atoms: C_4  and  O_5
REMARK                            x       y       z     vdW  Elec       q    Type
REMARK                         _______ _______ _______ _____ _____    ______ ____
ROOT
ATOM      1  O   UNL     1      -9.222  -3.161  19.512  0.00  0.00    +0.000 OA
ATOM      2  C   UNL     1      -9.133  -4.361  19.286  0.00  0.00    +0.000 C 
ATOM      3  N   UNL     1      -8.506  -5.219  20.180  0.00  0.00    +0.000 N 
ATOM      4  C   UNL     1      -8.516  -6.610  19.840  0.00  0.00    +0.000 C 
ATOM      5  C   UNL     1      -9.181  -6.558  18.531  0.00  0.00    +0.000 A 
ATOM      6  C   UNL     1      -9.553  -5.216  18.207  0.00  0.00    +0.000 A 
ATOM      7  C   UNL     1     -10.226  -4.975  16.980  0.00  0.00    +0.000 A 
ATOM      8  C   UNL     1     -10.677  -3.758  16.469  0.00  0.00    +0.000 A 
ATOM      9  C   UNL     1     -10.698  -2.397  16.830  0.00  0.00    +0.000 A 
ATOM     10  C   UNL     1     -11.284  -1.458  15.971  0.00  0.00    +0.000 A 
ATOM     11  C   UNL     1     -11.849  -1.848  14.762  0.00  0.00    +0.000 A 
ATOM     12  C   UNL     1     -11.847  -3.189  14.371  0.00  0.00    +0.000 A 
ATOM     13  C   UNL     1     -11.260  -4.123  15.236  0.00  0.00    +0.000 A 
ATOM     14  N   UNL     1     -11.134  -5.499  15.078  0.00  0.00    +0.000 N 
ATOM     15  C   UNL     1     -10.494  -6.025  16.159  0.00  0.00    +0.000 A 
ATOM     16  C   UNL     1     -10.136  -7.312  16.479  0.00  0.00    +0.000 A 
ATOM     17  N   UNL     1     -10.297  -8.500  15.832  0.00  0.00    +0.000 N 
ATOM     18  C   UNL     1      -9.752  -9.526  16.600  0.00  0.00    +0.000 A 
ATOM     19  C   UNL     1      -9.693 -10.899  16.323  0.00  0.00    +0.000 A 
ATOM     20  C   UNL     1      -9.084 -11.728  17.267  0.00  0.00    +0.000 A 
ATOM     21  C   UNL     1      -8.553 -11.205  18.443  0.00  0.00    +0.000 A 
ATOM     22  C   UNL     1      -8.615  -9.831  18.714  0.00  0.00    +0.000 A 
ATOM     23  C   UNL     1      -9.222  -8.967  17.781  0.00  0.00    +0.000 A 
ATOM     24  C   UNL     1      -9.493  -7.609  17.635  0.00  0.00    +0.000 A 
ATOM     25  H   UNL     1      -8.151  -4.868  21.055  0.00  0.00    +0.000 HD
ATOM     26  H   UNL     1      -9.075  -7.173  20.591  0.00  0.00    +0.000 HD
ATOM     27  H   UNL     1     -10.269  -2.054  17.765  0.00  0.00    +0.000 HD
ATOM     28  H   UNL     1     -11.294  -0.409  16.258  0.00  0.00    +0.000 HD
ATOM     29  H   UNL     1     -12.297  -1.101  14.111  0.00  0.00    +0.000 HD
ATOM     30  H   UNL     1     -12.289  -3.489  13.426  0.00  0.00    +0.000 HD
ATOM     31  H   UNL     1     -11.471  -6.013  14.277  0.00  0.00    +0.000 HD
ATOM     32  H   UNL     1     -10.742  -8.635  14.936  0.00  0.00    +0.000 HD
ATOM     33  H   UNL     1     -10.103 -11.311  15.407  0.00  0.00    +0.000 HD
ATOM     34  H   UNL     1      -9.022 -12.797  17.078  0.00  0.00    +0.000 HD
ATOM     35  H   UNL     1      -8.080 -11.870  19.161  0.00  0.00    +0.000 HD
ATOM     36  H   UNL     1      -8.184  -9.452  19.635  0.00  0.00    +0.000 HD
ENDROOT
BRANCH   4  37
ATOM     37  O   UNL     1      -7.173  -7.011  19.774  0.00  0.00    +0.000 OA
ATOM     38  H   UNL     1      -7.112  -7.578  18.989  0.00  0.00    +0.000 HD
ENDBRANCH   4  37
TORSDOF 1
ENDMDL
MODEL 3
REMARK VINA RESULT:   -11.548      3.256      7.501
REMARK INTER + INTRA:         -11.886
REMARK INTER:                 -11.886
REMARK INTRA:                   0.000
REMARK UNBOUND:                 0.000
REMARK  Name = 
REMARK  1 active torsions:
REMARK  status: ('A' for Active; 'I' for Inactive)
REMARK    1  A    between atoms: C_4  and  O_5
REMARK                            x       y       z     vdW  Elec       q    Type
REMARK                         _______ _______ _______ _____ _____    ______ ____
ROOT
ATOM      1  O   UNL     1      -7.914  -7.248  20.376  0.00  0.00    +0.000 OA
ATOM      2  C   UNL     1      -8.462  -6.412  19.670  0.00  0.00    +0.000 C 
ATOM      3  N   UNL     1      -8.491  -5.071  20.029  0.00  0.00    +0.000 N 
ATOM      4  C   UNL     1      -9.105  -4.175  19.096  0.00  0.00    +0.000 C 
ATOM      5  C   UNL     1      -9.564  -5.129  18.077  0.00  0.00    +0.000 A 
ATOM      6  C   UNL     1      -9.173  -6.461  18.420  0.00  0.00    +0.000 A 
ATOM      7  C   UNL     1      -9.517  -7.518  17.536  0.00  0.00    +0.000 A 
ATOM      8  C   UNL     1      -9.239  -8.878  17.671  0.00  0.00    +0.000 A 
ATOM      9  C   UNL     1      -8.597  -9.746  18.575  0.00  0.00    +0.000 A 
ATOM     10  C   UNL     1      -8.549 -11.121  18.306  0.00  0.00    +0.000 A 
ATOM     11  C   UNL     1      -9.127 -11.645  17.154  0.00  0.00    +0.000 A 
ATOM     12  C   UNL     1      -9.771 -10.814  16.234  0.00  0.00    +0.000 A 
ATOM     13  C   UNL     1      -9.815  -9.441  16.511  0.00  0.00    +0.000 A 
ATOM     14  N   UNL     1     -10.388  -8.418  15.762  0.00  0.00    +0.000 N 
ATOM     15  C   UNL     1     -10.203  -7.229  16.398  0.00  0.00    +0.000 A 
ATOM     16  C   UNL     1     -10.571  -5.946  16.075  0.00  0.00    +0.000 A 
ATOM     17  N   UNL     1     -11.245  -5.422  15.012  0.00  0.00    +0.000 N 
ATOM     18  C   UNL     1     -11.353  -4.042  15.165  0.00  0.00    +0.000 A 
ATOM     19  C   UNL     1     -11.964  -3.107  14.318  0.00  0.00    +0.000 A 
ATOM     20  C   UNL     1     -11.938  -1.765  14.702  0.00  0.00    +0.000 A 
ATOM     21  C   UNL     1     -11.324  -1.373  15.889  0.00  0.00    +0.000 A 
ATOM     22  C   UNL     1     -10.715  -2.313  16.732  0.00  0.00    +0.000 A 
ATOM     23  C   UNL     1     -10.725  -3.675  16.373  0.00  0.00    +0.000 A 
ATOM     24  C   UNL     1     -10.273  -4.892  16.875  0.00  0.00    +0.000 A 
ATOM     25  H   UNL     1      -8.018  -4.759  20.863  0.00  0.00    +0.000 HD
ATOM     26  H   UNL     1      -8.367  -3.461  18.724  0.00  0.00    +0.000 HD
ATOM     27  H   UNL     1      -8.134  -9.376  19.483  0.00  0.00    +0.000 HD
ATOM     28  H   UNL     1      -8.052 -11.783  19.010  0.00  0.00    +0.000 HD
ATOM     29  H   UNL     1      -9.078 -12.716  16.967  0.00  0.00    +0.000 HD
ATOM     30  H   UNL     1     -10.220 -11.228  15.338  0.00  0.00    +0.000 HD
ATOM     31  H   UNL     1     -10.865  -8.556  14.884  0.00  0.00    +0.000 HD
ATOM     32  H   UNL     1     -11.612  -5.938  14.227  0.00  0.00    +0.000 HD
ATOM     33  H   UNL     1     -12.446  -3.408  13.393  0.00  0.00    +0.000 HD
ATOM     34  H   UNL     1     -12.407  -1.018  14.066  0.00  0.00    +0.000 HD
ATOM     35  H   UNL     1     -11.320  -0.322  16.169  0.00  0.00    +0.000 HD
ATOM     36  H   UNL     1     -10.253  -1.976  17.654  0.00  0.00    +0.000 HD
ENDROOT
BRANCH   4  37
ATOM     37  O   UNL     1     -10.150  -3.542  19.785  0.00  0.00    +0.000 OA
ATOM     38  H   UNL     1     -10.752  -4.254  20.052  0.00  0.00    +0.000 HD
ENDBRANCH   4  37
TORSDOF 1
ENDMDL
MODEL 4
REMARK VINA RESULT:   -11.325      2.302      3.769
REMARK INTER + INTRA:         -11.656
REMARK INTER:                 -11.656
REMARK INTRA:                   0.000
REMARK UNBOUND:                 0.000
REMARK  Name = 
REMARK  1 active torsions:
REMARK  status: ('A' for Active; 'I' for Inactive)
REMARK    1  A    between atoms: C_4  and  O_5
REMARK                            x       y       z     vdW  Elec       q    Type
REMARK                         _______ _______ _______ _____ _____    ______ ____
ROOT
ATOM      1  O   UNL     1      -8.921  -6.982  20.638  0.00  0.00    +0.000 OA
ATOM      2  C   UNL     1      -8.838  -8.019  19.993  0.00  0.00    +0.000 C 
ATOM      3  N   UNL     1      -8.455  -9.212  20.592  0.00  0.00    +0.000 N 
ATOM      4  C   UNL     1      -8.452 -10.373  19.753  0.00  0.00    +0.000 C 
ATOM      5  C   UNL     1      -8.818  -9.770  18.464  0.00  0.00    +0.000 A 
ATOM      6  C   UNL     1      -9.053  -8.367  18.613  0.00  0.00    +0.000 A 
ATOM      7  C   UNL     1      -9.436  -7.618  17.469  0.00  0.00    +0.000 A 
ATOM      8  C   UNL     1      -9.714  -6.254  17.386  0.00  0.00    +0.000 A 
ATOM      9  C   UNL     1      -9.752  -5.125  18.227  0.00  0.00    +0.000 A 
ATOM     10  C   UNL     1     -10.099  -3.874  17.698  0.00  0.00    +0.000 A 
ATOM     11  C   UNL     1     -10.408  -3.728  16.350  0.00  0.00    +0.000 A 
ATOM     12  C   UNL     1     -10.381  -4.825  15.486  0.00  0.00    +0.000 A 
ATOM     13  C   UNL     1     -10.034  -6.073  16.022  0.00  0.00    +0.000 A 
ATOM     14  N   UNL     1      -9.937  -7.302  15.380  0.00  0.00    +0.000 N 
ATOM     15  C   UNL     1      -9.567  -8.257  16.277  0.00  0.00    +0.000 A 
ATOM     16  C   UNL     1      -9.343  -9.606  16.143  0.00  0.00    +0.000 A 
ATOM     17  N   UNL     1      -9.414 -10.450  15.075  0.00  0.00    +0.000 N 
ATOM     18  C   UNL     1      -9.091 -11.742  15.482  0.00  0.00    +0.000 A 
ATOM     19  C   UNL     1      -9.034 -12.917  14.719  0.00  0.00    +0.000 A 
ATOM     20  C   UNL     1      -8.678 -14.100  15.371  0.00  0.00    +0.000 A 
ATOM     21  C   UNL     1      -8.390 -14.107  16.733  0.00  0.00    +0.000 A 
ATOM     22  C   UNL     1      -8.448 -12.928  17.490  0.00  0.00    +0.000 A 
ATOM     23  C   UNL     1      -8.803 -11.718  16.862  0.00  0.00    +0.000 A 
ATOM     24  C   UNL     1      -8.976 -10.378  17.196  0.00  0.00    +0.000 A 
ATOM     25  H   UNL     1      -8.281  -9.249  21.584  0.00  0.00    +0.000 HD
ATOM     26  H   UNL     1      -9.184 -11.098  20.118  0.00  0.00    +0.000 HD
ATOM     27  H   UNL     1      -9.519  -5.198  19.283  0.00  0.00    +0.000 HD
ATOM     28  H   UNL     1     -10.125  -3.008  18.355  0.00  0.00    +0.000 HD
ATOM     29  H   UNL     1     -10.673  -2.747  15.962  0.00  0.00    +0.000 HD
ATOM     30  H   UNL     1     -10.622  -4.706  14.435  0.00  0.00    +0.000 HD
ATOM     31  H   UNL     1     -10.117  -7.445  14.397  0.00  0.00    +0.000 HD
ATOM     32  H   UNL     1      -9.661 -10.195  14.131  0.00  0.00    +0.000 HD
ATOM     33  H   UNL     1      -9.256 -12.917  13.657  0.00  0.00    +0.000 HD
ATOM     34  H   UNL     1      -8.623 -15.026  14.805  0.00  0.00    +0.000 HD
ATOM     35  H   UNL     1      -8.111 -15.040  17.218  0.00  0.00    +0.000 HD
ATOM     36  H   UNL     1      -8.208 -12.965  18.548  0.00  0.00    +0.000 HD
ENDROOT
BRANCH   4  37
ATOM     37  O   UNL     1      -7.146 -10.882  19.786  0.00  0.00    +0.000 OA
ATOM     38  H   UNL     1      -7.128 -11.589  19.121  0.00  0.00    +0.000 HD
ENDBRANCH   4  37
TORSDOF 1
ENDMDL
MODEL 5
REMARK VINA RESULT:   -11.134      1.930      3.066
REMARK INTER + INTRA:         -11.460
REMARK INTER:                 -11.460
REMARK INTRA:                   0.000
REMARK UNBOUND:                 0.000
REMARK  Name = 
REMARK  1 active torsions:
REMARK  status: ('A' for Active; 'I' for Inactive)
REMARK    1  A    between atoms: C_4  and  O_5
REMARK                            x       y       z     vdW  Elec       q    Type
REMARK                         _______ _______ _______ _____ _____    ______ ____
ROOT
ATOM      1  O   UNL     1     -10.722  -4.104  16.223  0.00  0.00    +0.000 OA
ATOM      2  C   UNL     1     -10.465  -5.283  16.422  0.00  0.00    +0.000 C 
ATOM      3  N   UNL     1     -10.836  -6.266  15.513  0.00  0.00    +0.000 N 
ATOM      4  C   UNL     1     -10.427  -7.604  15.821  0.00  0.00    +0.000 C 
ATOM      5  C   UNL     1      -9.786  -7.392  17.125  0.00  0.00    +0.000 A 
ATOM      6  C   UNL     1      -9.805  -6.006  17.477  0.00  0.00    +0.000 A 
ATOM      7  C   UNL     1      -9.211  -5.609  18.704  0.00  0.00    +0.000 A 
ATOM      8  C   UNL     1      -9.116  -4.325  19.240  0.00  0.00    +0.000 A 
ATOM      9  C   UNL     1      -9.486  -3.006  18.910  0.00  0.00    +0.000 A 
ATOM     10  C   UNL     1      -9.178  -1.957  19.786  0.00  0.00    +0.000 A 
ATOM     11  C   UNL     1      -8.509  -2.195  20.981  0.00  0.00    +0.000 A 
ATOM     12  C   UNL     1      -8.125  -3.489  21.341  0.00  0.00    +0.000 A 
ATOM     13  C   UNL     1      -8.436  -4.534  20.460  0.00  0.00    +0.000 A 
ATOM     14  N   UNL     1      -8.165  -5.892  20.586  0.00  0.00    +0.000 N 
ATOM     15  C   UNL     1      -8.645  -6.556  19.499  0.00  0.00    +0.000 A 
ATOM     16  C   UNL     1      -8.628  -7.885  19.151  0.00  0.00    +0.000 A 
ATOM     17  N   UNL     1      -8.127  -8.991  19.770  0.00  0.00    +0.000 N 
ATOM     18  C   UNL     1      -8.371 -10.114  18.982  0.00  0.00    +0.000 A 
ATOM     19  C   UNL     1      -8.034 -11.452  19.228  0.00  0.00    +0.000 A 
ATOM     20  C   UNL     1      -8.396 -12.401  18.270  0.00  0.00    +0.000 A 
ATOM     21  C   UNL     1      -9.070 -12.026  17.110  0.00  0.00    +0.000 A 
ATOM     22  C   UNL     1      -9.404 -10.686  16.871  0.00  0.00    +0.000 A 
ATOM     23  C   UNL     1      -9.053  -9.704  17.818  0.00  0.00    +0.000 A 
ATOM     24  C   UNL     1      -9.177  -8.328  17.994  0.00  0.00    +0.000 A 
ATOM     25  H   UNL     1     -11.288  -6.013  14.649  0.00  0.00    +0.000 HD
ATOM     26  H   UNL     1      -9.742  -7.970  15.052  0.00  0.00    +0.000 HD
ATOM     27  H   UNL     1     -10.008  -2.780  17.987  0.00  0.00    +0.000 HD
ATOM     28  H   UNL     1      -9.469  -0.942  19.523  0.00  0.00    +0.000 HD
ATOM     29  H   UNL     1      -8.282  -1.364  21.646  0.00  0.00    +0.000 HD
ATOM     30  H   UNL     1      -7.603  -3.671  22.275  0.00  0.00    +0.000 HD
ATOM     31  H   UNL     1      -7.684  -6.304  21.372  0.00  0.00    +0.000 HD
ATOM     32  H   UNL     1      -7.650  -9.012  20.658  0.00  0.00    +0.000 HD
ATOM     33  H   UNL     1      -7.511 -11.750  20.131  0.00  0.00    +0.000 HD
ATOM     34  H   UNL     1      -8.151 -13.448  18.435  0.00  0.00    +0.000 HD
ATOM     35  H   UNL     1      -9.345 -12.784  16.381  0.00  0.00    +0.000 HD
ATOM     36  H   UNL     1      -9.938 -10.427  15.962  0.00  0.00    +0.000 HD
ENDROOT
BRANCH   4  37
ATOM     37  O   UNL     1     -11.600  -8.370  15.887  0.00  0.00    +0.000 OA
ATOM     38  H   UNL     1     -11.441  -9.025  16.586  0.00  0.00    +0.000 HD
ENDBRANCH   4  37
TORSDOF 1
ENDMDL
MODEL 6
REMARK VINA RESULT:   -11.125      2.659      7.183
REMARK INTER + INTRA:         -11.450
REMARK INTER:                 -11.450
REMARK INTRA:                   0.000
REMARK UNBOUND:                 0.000
REMARK  Name = 
REMARK  1 active torsions:
REMARK  status: ('A' for Active; 'I' for Inactive)
REMARK    1  A    between atoms: C_4  and  O_5
REMARK                            x       y       z     vdW  Elec       q    Type
REMARK                         _______ _______ _______ _____ _____    ______ ____
ROOT
ATOM      1  O   UNL     1      -9.237  -9.222  19.816  0.00  0.00    +0.000 OA
ATOM      2  C   UNL     1      -9.418  -8.224  19.131  0.00  0.00    +0.000 C 
ATOM      3  N   UNL     1      -9.719  -6.998  19.709  0.00  0.00    +0.000 N 
ATOM      4  C   UNL     1      -9.848  -5.887  18.813  0.00  0.00    +0.000 C 
ATOM      5  C   UNL     1      -9.666  -6.565  17.522  0.00  0.00    +0.000 A 
ATOM      6  C   UNL     1      -9.404  -7.957  17.717  0.00  0.00    +0.000 A 
ATOM      7  C   UNL     1      -9.184  -8.773  16.575  0.00  0.00    +0.000 A 
ATOM      8  C   UNL     1      -8.913 -10.140  16.532  0.00  0.00    +0.000 A 
ATOM      9  C   UNL     1      -8.747 -11.218  17.422  0.00  0.00    +0.000 A 
ATOM     10  C   UNL     1      -8.472 -12.498  16.923  0.00  0.00    +0.000 A 
ATOM     11  C   UNL     1      -8.358 -12.723  15.555  0.00  0.00    +0.000 A 
ATOM     12  C   UNL     1      -8.515 -11.678  14.642  0.00  0.00    +0.000 A 
ATOM     13  C   UNL     1      -8.789 -10.400  15.150  0.00  0.00    +0.000 A 
ATOM     14  N   UNL     1      -8.984  -9.210  14.457  0.00  0.00    +0.000 N 
ATOM     15  C   UNL     1      -9.228  -8.203  15.341  0.00  0.00    +0.000 A 
ATOM     16  C   UNL     1      -9.477  -6.864  15.164  0.00  0.00    +0.000 A 
ATOM     17  N   UNL     1      -9.565  -6.084  14.050  0.00  0.00    +0.000 N 
ATOM     18  C   UNL     1      -9.835  -4.770  14.423  0.00  0.00    +0.000 A 
ATOM     19  C   UNL     1     -10.007  -3.641  13.610  0.00  0.00    +0.000 A 
ATOM     20  C   UNL     1     -10.273  -2.422  14.237  0.00  0.00    +0.000 A 
ATOM     21  C   UNL     1     -10.364  -2.335  15.623  0.00  0.00    +0.000 A 
ATOM     22  C   UNL     1     -10.192  -3.468  16.430  0.00  0.00    +0.000 A 
ATOM     23  C   UNL     1      -9.922  -4.713  15.829  0.00  0.00    +0.000 A 
ATOM     24  C   UNL     1      -9.695  -6.032  16.212  0.00  0.00    +0.000 A 
ATOM     25  H   UNL     1      -9.750  -6.903  20.712  0.00  0.00    +0.000 HD
ATOM     26  H   UNL     1      -9.077  -5.144  19.028  0.00  0.00    +0.000 HD
ATOM     27  H   UNL     1      -8.828 -11.083  18.495  0.00  0.00    +0.000 HD
ATOM     28  H   UNL     1      -8.347 -13.325  17.618  0.00  0.00    +0.000 HD
ATOM     29  H   UNL     1      -8.145 -13.726  15.190  0.00  0.00    +0.000 HD
ATOM     30  H   UNL     1      -8.425 -11.858  13.576  0.00  0.00    +0.000 HD
ATOM     31  H   UNL     1      -8.947  -9.124  13.452  0.00  0.00    +0.000 HD
ATOM     32  H   UNL     1      -9.453  -6.393  13.096  0.00  0.00    +0.000 HD
ATOM     33  H   UNL     1      -9.939  -3.703  12.529  0.00  0.00    +0.000 HD
ATOM     34  H   UNL     1     -10.414  -1.529  13.631  0.00  0.00    +0.000 HD
ATOM     35  H   UNL     1     -10.577  -1.375  16.088  0.00  0.00    +0.000 HD
ATOM     36  H   UNL     1     -10.278  -3.369  17.508  0.00  0.00    +0.000 HD
ENDROOT
BRANCH   4  37
ATOM     37  O   UNL     1     -11.140  -5.374  19.003  0.00  0.00    +0.000 OA
ATOM     38  H   UNL     1     -11.677  -5.759  18.292  0.00  0.00    +0.000 HD
ENDBRANCH   4  37
TORSDOF 1
ENDMDL
MODEL 7
REMARK VINA RESULT:   -10.929      0.993      6.197
REMARK INTER + INTRA:         -11.248
REMARK INTER:                 -11.248
REMARK INTRA:                   0.000
REMARK UNBOUND:                 0.000
REMARK  Name = 
REMARK  1 active torsions:
REMARK  status: ('A' for Active; 'I' for Inactive)
REMARK    1  A    between atoms: C_4  and  O_5
REMARK                            x       y       z     vdW  Elec       q    Type
REMARK                         _______ _______ _______ _____ _____    ______ ____
ROOT
ATOM      1  O   UNL     1      -9.792  -9.927  14.278  0.00  0.00    +0.000 OA
ATOM      2  C   UNL     1      -9.591  -9.034  15.090  0.00  0.00    +0.000 C 
ATOM      3  N   UNL     1      -9.717  -7.697  14.736  0.00  0.00    +0.000 N 
ATOM      4  C   UNL     1      -9.518  -6.740  15.783  0.00  0.00    +0.000 C 
ATOM      5  C   UNL     1      -9.158  -7.634  16.893  0.00  0.00    +0.000 A 
ATOM      6  C   UNL     1      -9.209  -9.001  16.477  0.00  0.00    +0.000 A 
ATOM      7  C   UNL     1      -8.906 -10.012  17.427  0.00  0.00    +0.000 A 
ATOM      8  C   UNL     1      -8.895 -11.394  17.241  0.00  0.00    +0.000 A 
ATOM      9  C   UNL     1      -9.131 -12.329  16.215  0.00  0.00    +0.000 A 
ATOM     10  C   UNL     1      -8.997 -13.699  16.477  0.00  0.00    +0.000 A 
ATOM     11  C   UNL     1      -8.632 -14.154  17.739  0.00  0.00    +0.000 A 
ATOM     12  C   UNL     1      -8.391 -13.256  18.782  0.00  0.00    +0.000 A 
ATOM     13  C   UNL     1      -8.528 -11.887  18.512  0.00  0.00    +0.000 A 
ATOM     14  N   UNL     1      -8.346 -10.807  19.369  0.00  0.00    +0.000 N 
ATOM     15  C   UNL     1      -8.581  -9.647  18.696  0.00  0.00    +0.000 A 
ATOM     16  C   UNL     1      -8.538  -8.331  19.088  0.00  0.00    +0.000 A 
ATOM     17  N   UNL     1      -8.249  -7.735  20.279  0.00  0.00    +0.000 N 
ATOM     18  C   UNL     1      -8.355  -6.353  20.145  0.00  0.00    +0.000 A 
ATOM     19  C   UNL     1      -8.146  -5.355  21.108  0.00  0.00    +0.000 A 
ATOM     20  C   UNL     1      -8.318  -4.026  20.716  0.00  0.00    +0.000 A 
ATOM     21  C   UNL     1      -8.684  -3.706  19.412  0.00  0.00    +0.000 A 
ATOM     22  C   UNL     1      -8.892  -4.709  18.454  0.00  0.00    +0.000 A 
ATOM     23  C   UNL     1      -8.726  -6.059  18.817  0.00  0.00    +0.000 A 
ATOM     24  C   UNL     1      -8.817  -7.319  18.230  0.00  0.00    +0.000 A 
ATOM     25  H   UNL     1     -10.020  -7.443  13.809  0.00  0.00    +0.000 HD
ATOM     26  H   UNL     1     -10.440  -6.180  15.956  0.00  0.00    +0.000 HD
ATOM     27  H   UNL     1      -9.419 -12.014  15.218  0.00  0.00    +0.000 HD
ATOM     28  H   UNL     1      -9.181 -14.413  15.677  0.00  0.00    +0.000 HD
ATOM     29  H   UNL     1      -8.533 -15.222  17.919  0.00  0.00    +0.000 HD
ATOM     30  H   UNL     1      -8.106 -13.615  19.765  0.00  0.00    +0.000 HD
ATOM     31  H   UNL     1      -8.081 -10.889  20.339  0.00  0.00    +0.000 HD
ATOM     32  H   UNL     1      -7.997  -8.206  21.135  0.00  0.00    +0.000 HD
ATOM     33  H   UNL     1      -7.858  -5.599  22.125  0.00  0.00    +0.000 HD
ATOM     34  H   UNL     1      -8.159  -3.231  21.441  0.00  0.00    +0.000 HD
ATOM     35  H   UNL     1      -8.808  -2.663  19.130  0.00  0.00    +0.000 HD
ATOM     36  H   UNL     1      -9.168  -4.426  17.443  0.00  0.00    +0.000 HD
ENDROOT
BRANCH   4  37
ATOM     37  O   UNL     1      -8.468  -5.909  15.366  0.00  0.00    +0.000 OA
ATOM     38  H   UNL     1      -8.438  -5.187  16.014  0.00  0.00    +0.000 HD
ENDBRANCH   4  37
TORSDOF 1
ENDMDL
MODEL 8
REMARK VINA RESULT:   -10.810      3.065      5.054
REMARK INTER + INTRA:         -11.126
REMARK INTER:                 -11.126
REMARK INTRA:                   0.000
REMARK UNBOUND:                 0.000
REMARK  Name = 
REMARK  1 active torsions:
REMARK  status: ('A' for Active; 'I' for Inactive)
REMARK    1  A    between atoms: C_4  and  O_5
REMARK                            x       y       z     vdW  Elec       q    Type
REMARK                         _______ _______ _______ _____ _____    ______ ____
ROOT
ATOM      1  O   UNL     1     -11.161  -4.077  18.475  0.00  0.00    +0.000 OA
ATOM      2  C   UNL     1     -10.790  -5.209  18.193  0.00  0.00    +0.000 C 
ATOM      3  N   UNL     1     -10.777  -6.221  19.143  0.00  0.00    +0.000 N 
ATOM      4  C   UNL     1     -10.383  -7.519  18.684  0.00  0.00    +0.000 C 
ATOM      5  C   UNL     1     -10.052  -7.216  17.284  0.00  0.00    +0.000 A 
ATOM      6  C   UNL     1     -10.302  -5.839  16.994  0.00  0.00    +0.000 A 
ATOM      7  C   UNL     1     -10.055  -5.366  15.678  0.00  0.00    +0.000 A 
ATOM      8  C   UNL     1     -10.228  -4.075  15.179  0.00  0.00    +0.000 A 
ATOM      9  C   UNL     1     -10.655  -2.811  15.630  0.00  0.00    +0.000 A 
ATOM     10  C   UNL     1     -10.671  -1.725  14.744  0.00  0.00    +0.000 A 
ATOM     11  C   UNL     1     -10.270  -1.875  13.421  0.00  0.00    +0.000 A 
ATOM     12  C   UNL     1      -9.841  -3.114  12.938  0.00  0.00    +0.000 A 
ATOM     13  C   UNL     1      -9.829  -4.195  13.830  0.00  0.00    +0.000 A 
ATOM     14  N   UNL     1      -9.451  -5.513  13.597  0.00  0.00    +0.000 N 
ATOM     15  C   UNL     1      -9.592  -6.237  14.742  0.00  0.00    +0.000 A 
ATOM     16  C   UNL     1      -9.357  -7.560  15.028  0.00  0.00    +0.000 A 
ATOM     17  N   UNL     1      -8.907  -8.600  14.271  0.00  0.00    +0.000 N 
ATOM     18  C   UNL     1      -8.852  -9.752  15.051  0.00  0.00    +0.000 A 
ATOM     19  C   UNL     1      -8.449 -11.044  14.686  0.00  0.00    +0.000 A 
ATOM     20  C   UNL     1      -8.485 -12.039  15.665  0.00  0.00    +0.000 A 
ATOM     21  C   UNL     1      -8.908 -11.752  16.960  0.00  0.00    +0.000 A 
ATOM     22  C   UNL     1      -9.310 -10.458  17.319  0.00  0.00    +0.000 A 
ATOM     23  C   UNL     1      -9.284  -9.432  16.354  0.00  0.00    +0.000 A 
ATOM     24  C   UNL     1      -9.574  -8.073  16.265  0.00  0.00    +0.000 A 
ATOM     25  H   UNL     1     -11.116  -6.047  20.076  0.00  0.00    +0.000 HD
ATOM     26  H   UNL     1     -11.213  -8.221  18.793  0.00  0.00    +0.000 HD
ATOM     27  H   UNL     1     -10.976  -2.655  16.653  0.00  0.00    +0.000 HD
ATOM     28  H   UNL     1     -11.002  -0.753  15.102  0.00  0.00    +0.000 HD
ATOM     29  H   UNL     1     -10.289  -1.017  12.752  0.00  0.00    +0.000 HD
ATOM     30  H   UNL     1      -9.529  -3.226  11.906  0.00  0.00    +0.000 HD
ATOM     31  H   UNL     1      -9.124  -5.862  12.708  0.00  0.00    +0.000 HD
ATOM     32  H   UNL     1      -8.650  -8.559  13.297  0.00  0.00    +0.000 HD
ATOM     33  H   UNL     1      -8.117 -11.272  13.678  0.00  0.00    +0.000 HD
ATOM     34  H   UNL     1      -8.175 -13.050  15.411  0.00  0.00    +0.000 HD
ATOM     35  H   UNL     1      -8.924 -12.543  17.707  0.00  0.00    +0.000 HD
ATOM     36  H   UNL     1      -9.625 -10.265  18.339  0.00  0.00    +0.000 HD
ENDROOT
BRANCH   4  37
ATOM     37  O   UNL     1      -9.273  -7.892  19.457  0.00  0.00    +0.000 OA
ATOM     38  H   UNL     1      -8.530  -7.942  18.834  0.00  0.00    +0.000 HD
ENDBRANCH   4  37
TORSDOF 1
ENDMDL
MODEL 9
REMARK VINA RESULT:   -10.591      1.968      6.794
REMARK INTER + INTRA:         -10.900
REMARK INTER:                 -10.900
REMARK INTRA:                   0.000
REMARK UNBOUND:                 0.000
REMARK  Name = 
REMARK  1 active torsions:
REMARK  status: ('A' for Active; 'I' for Inactive)
REMARK    1  A    between atoms: C_4  and  O_5
REMARK                            x       y       z     vdW  Elec       q    Type
REMARK                         _______ _______ _______ _____ _____    ______ ____
ROOT
ATOM      1  O   UNL     1     -11.085  -8.661  15.483  0.00  0.00    +0.000 OA
ATOM      2  C   UNL     1     -10.764  -7.687  16.152  0.00  0.00    +0.000 C 
ATOM      3  N   UNL     1     -11.184  -6.408  15.811  0.00  0.00    +0.000 N 
ATOM      4  C   UNL     1     -10.799  -5.354  16.700  0.00  0.00    +0.000 C 
ATOM      5  C   UNL     1      -9.980  -6.104  17.662  0.00  0.00    +0.000 A 
ATOM      6  C   UNL     1      -9.967  -7.496  17.334  0.00  0.00    +0.000 A 
ATOM      7  C   UNL     1      -9.235  -8.383  18.168  0.00  0.00    +0.000 A 
ATOM      8  C   UNL     1      -9.088  -9.763  18.039  0.00  0.00    +0.000 A 
ATOM      9  C   UNL     1      -9.505 -10.800  17.181  0.00  0.00    +0.000 A 
ATOM     10  C   UNL     1      -9.101 -12.118  17.434  0.00  0.00    +0.000 A 
ATOM     11  C   UNL     1      -8.290 -12.421  18.522  0.00  0.00    +0.000 A 
ATOM     12  C   UNL     1      -7.858 -11.420  19.395  0.00  0.00    +0.000 A 
ATOM     13  C   UNL     1      -8.267 -10.104  19.136  0.00  0.00    +0.000 A 
ATOM     14  N   UNL     1      -7.977  -8.945  19.847  0.00  0.00    +0.000 N 
ATOM     15  C   UNL     1      -8.577  -7.880  19.247  0.00  0.00    +0.000 A 
ATOM     16  C   UNL     1      -8.598  -6.542  19.556  0.00  0.00    +0.000 A 
ATOM     17  N   UNL     1      -8.030  -5.821  20.564  0.00  0.00    +0.000 N 
ATOM     18  C   UNL     1      -8.369  -4.478  20.422  0.00  0.00    +0.000 A 
ATOM     19  C   UNL     1      -8.007  -3.388  21.227  0.00  0.00    +0.000 A 
ATOM     20  C   UNL     1      -8.482  -2.126  20.866  0.00  0.00    +0.000 A 
ATOM     21  C   UNL     1      -9.289  -1.959  19.743  0.00  0.00    +0.000 A 
ATOM     22  C   UNL     1      -9.647  -3.053  18.943  0.00  0.00    +0.000 A 
ATOM     23  C   UNL     1      -9.184  -4.340  19.279  0.00  0.00    +0.000 A 
ATOM     24  C   UNL     1      -9.278  -5.644  18.801  0.00  0.00    +0.000 A 
ATOM     25  H   UNL     1     -11.801  -6.269  15.026  0.00  0.00    +0.000 HD
ATOM     26  H   UNL     1     -11.687  -4.899  17.145  0.00  0.00    +0.000 HD
ATOM     27  H   UNL     1     -10.138 -10.603  16.323  0.00  0.00    +0.000 HD
ATOM     28  H   UNL     1      -9.427 -12.911  16.765  0.00  0.00    +0.000 HD
ATOM     29  H   UNL     1      -7.988 -13.452  18.697  0.00  0.00    +0.000 HD
ATOM     30  H   UNL     1      -7.226 -11.661  20.242  0.00  0.00    +0.000 HD
ATOM     31  H   UNL     1      -7.406  -8.916  20.678  0.00  0.00    +0.000 HD
ATOM     32  H   UNL     1      -7.453  -6.187  21.306  0.00  0.00    +0.000 HD
ATOM     33  H   UNL     1      -7.377  -3.513  22.101  0.00  0.00    +0.000 HD
ATOM     34  H   UNL     1      -8.215  -1.262  21.469  0.00  0.00    +0.000 HD
ATOM     35  H   UNL     1      -9.643  -0.965  19.480  0.00  0.00    +0.000 HD
ATOM     36  H   UNL     1     -10.269  -2.888  18.069  0.00  0.00    +0.000 HD
ENDROOT
BRANCH   4  37
ATOM     37  O   UNL     1     -10.067  -4.436  15.932  0.00  0.00    +0.000 OA
ATOM     38  H   UNL     1      -9.250  -4.899  15.687  0.00  0.00    +0.000 HD
ENDBRANCH   4  37
TORSDOF 1
ENDMDL
