
 OpenBabel01112422513D

 47 49  0  0  0  0  0  0  0  0999 V2000
    3.1264   -1.2626    0.6460 O   0  0  0  0  0  0  0  0  0  0  0  0
    2.5721   -0.0868    0.0084 S   0  0  0  0  0  0  0  0  0  0  0  0
    1.1436    0.0814   -0.1310 O   0  0  0  0  0  0  0  0  0  0  0  0
    3.1993    1.2383    0.8615 N   0  0  0  0  0  0  0  0  0  0  0  0
    2.6644    2.5541    0.4955 C   0  0  0  0  0  0  0  0  0  0  0  0
    3.1138    3.6542    1.4716 C   0  0  0  0  0  0  0  0  0  0  0  0
    2.6075    4.9878    1.1094 N   0  0  0  0  0  0  0  0  0  0  0  0
    1.1487    5.0473    1.1768 C   0  0  0  0  0  0  0  0  0  0  0  0
    0.6657    6.3828    0.7207 C   0  0  0  0  0  0  0  0  0  0  0  0
   -0.1463    6.5463   -0.3375 C   0  0  0  0  0  0  0  0  0  0  0  0
   -0.6902    7.8402   -0.7648 C   0  0  0  0  0  0  0  0  0  0  0  0
    0.0066    9.0403   -0.5733 C   0  0  0  0  0  0  0  0  0  0  0  0
   -0.5456   10.2577   -0.9774 C   0  0  0  0  0  0  0  0  0  0  0  0
   -1.7924   10.2775   -1.5948 C   0  0  0  0  0  0  0  0  0  0  0  0
   -2.5469   11.9264   -2.1254 Br  0  0  0  0  0  0  0  0  0  0  0  0
   -2.4859    9.0913   -1.8234 C   0  0  0  0  0  0  0  0  0  0  0  0
   -1.9323    7.8750   -1.4134 C   0  0  0  0  0  0  0  0  0  0  0  0
    3.3691    0.0885   -1.5853 C   0  0  0  0  0  0  0  0  0  0  0  0
    4.6075   -0.5723   -1.7030 C   0  0  0  0  0  0  0  0  0  0  0  0
    5.3268   -0.5184   -2.8880 C   0  0  0  0  0  0  0  0  0  0  0  0
    4.8164    0.1937   -3.9657 C   0  0  0  0  0  0  0  0  0  0  0  0
    3.5796    0.8543   -3.8753 C   0  0  0  0  0  0  0  0  0  0  0  0
    3.0854    1.5648   -4.9724 C   0  0  0  0  0  0  0  0  0  0  0  0
    1.9167    2.2379   -4.9931 N   0  0  0  0  0  0  0  0  0  0  0  0
    1.1891    2.1954   -3.8656 C   0  0  0  0  0  0  0  0  0  0  0  0
    1.5833    1.5211   -2.7165 C   0  0  0  0  0  0  0  0  0  0  0  0
    2.8138    0.8169   -2.6829 C   0  0  0  0  0  0  0  0  0  0  0  0
    4.2123    1.1744    0.9722 H   0  0  0  0  0  0  0  0  0  0  0  0
    1.5750    2.4771    0.5168 H   0  0  0  0  0  0  0  0  0  0  0  0
    2.9904    2.8238   -0.5119 H   0  0  0  0  0  0  0  0  0  0  0  0
    4.2101    3.7015    1.4766 H   0  0  0  0  0  0  0  0  0  0  0  0
    2.8204    3.4077    2.4995 H   0  0  0  0  0  0  0  0  0  0  0  0
    2.9034    5.2221    0.1615 H   0  0  0  0  0  0  0  0  0  0  0  0
    0.8122    4.8809    2.2058 H   0  0  0  0  0  0  0  0  0  0  0  0
    0.6850    4.2821    0.5479 H   0  0  0  0  0  0  0  0  0  0  0  0
    0.9716    7.2265    1.3333 H   0  0  0  0  0  0  0  0  0  0  0  0
   -0.4700    5.6836   -0.9164 H   0  0  0  0  0  0  0  0  0  0  0  0
    0.9887    9.0439   -0.1069 H   0  0  0  0  0  0  0  0  0  0  0  0
    0.0059   11.1768   -0.8013 H   0  0  0  0  0  0  0  0  0  0  0  0
   -3.4569    9.1008   -2.3115 H   0  0  0  0  0  0  0  0  0  0  0  0
   -2.4906    6.9579   -1.5912 H   0  0  0  0  0  0  0  0  0  0  0  0
    5.0175   -1.1428   -0.8706 H   0  0  0  0  0  0  0  0  0  0  0  0
    6.2791   -1.0363   -2.9729 H   0  0  0  0  0  0  0  0  0  0  0  0
    5.3927    0.2248   -4.8893 H   0  0  0  0  0  0  0  0  0  0  0  0
    3.6408    1.6152   -5.9068 H   0  0  0  0  0  0  0  0  0  0  0  0
    0.2455    2.7335   -3.9037 H   0  0  0  0  0  0  0  0  0  0  0  0
    0.9096    1.5616   -1.8691 H   0  0  0  0  0  0  0  0  0  0  0  0
  1  2  2  0  0  0  0
  2  3  2  0  0  0  0
  2  4  1  0  0  0  0
  2 18  1  0  0  0  0
  4  5  1  0  0  0  0
  4 28  1  0  0  0  0
  5  6  1  0  0  0  0
  5 29  1  0  0  0  0
  5 30  1  0  0  0  0
  6  7  1  0  0  0  0
  6 31  1  0  0  0  0
  6 32  1  0  0  0  0
  7  8  1  0  0  0  0
  7 33  1  0  0  0  0
  8  9  1  0  0  0  0
  8 34  1  0  0  0  0
  8 35  1  0  0  0  0
  9 10  2  0  0  0  0
  9 36  1  0  0  0  0
 10 11  1  0  0  0  0
 10 37  1  0  0  0  0
 11 12  1  0  0  0  0
 11 17  2  0  0  0  0
 12 13  2  0  0  0  0
 12 38  1  0  0  0  0
 13 14  1  0  0  0  0
 13 39  1  0  0  0  0
 14 15  1  0  0  0  0
 14 16  2  0  0  0  0
 16 17  1  0  0  0  0
 16 40  1  0  0  0  0
 17 41  1  0  0  0  0
 18 19  1  0  0  0  0
 18 27  2  0  0  0  0
 19 20  2  0  0  0  0
 19 42  1  0  0  0  0
 20 21  1  0  0  0  0
 20 43  1  0  0  0  0
 21 22  2  0  0  0  0
 21 44  1  0  0  0  0
 22 23  1  0  0  0  0
 22 27  1  0  0  0  0
 23 24  2  0  0  0  0
 23 45  1  0  0  0  0
 24 25  1  0  0  0  0
 25 26  2  0  0  0  0
 25 46  1  0  0  0  0
 26 27  1  0  0  0  0
 26 47  1  0  0  0  0
M  END
$$$$
