MODEL 1
REMARK VINA RESULT:   -10.349      0.000      0.000
REMARK INTER + INTRA:         -13.629
REMARK INTER:                 -13.979
REMARK INTRA:                   0.350
REMARK UNBOUND:                 0.350
REMARK  Name = 
REMARK  7 active torsions:
REMARK  status: ('A' for Active; 'I' for Inactive)
REMARK    1  A    between atoms: C_1  and  C_2
REMARK    2  A    between atoms: C_2  and  N_3
REMARK    3  A    between atoms: N_8  and  C_9
REMARK    4  A    between atoms: C_13  and  C_14
REMARK    5  A    between atoms: N_21  and  C_22
REMARK    6  A    between atoms: C_22  and  C_23
REMARK    7  A    between atoms: C_23  and  N_24
REMARK                            x       y       z     vdW  Elec       q    Type
REMARK                         _______ _______ _______ _____ _____    ______ ____
ROOT
ATOM      1  N   UNL     1     -10.920  -5.405  17.634  0.00  0.00    +0.000 N 
ATOM      2  C   UNL     1     -11.473  -6.602  17.272  0.00  0.00    +0.000 A 
ATOM      3  N   UNL     1     -10.779  -7.615  17.737  0.00  0.00    +0.000 NA
ATOM      4  C   UNL     1      -9.736  -7.045  18.441  0.00  0.00    +0.000 A 
ATOM      5  C   UNL     1      -8.688  -7.590  19.200  0.00  0.00    +0.000 A 
ATOM      6  N   UNL     1      -8.505  -8.966  19.385  0.00  0.00    +0.000 N 
ATOM      7  N   UNL     1      -7.841  -6.725  19.822  0.00  0.00    +0.000 NA
ATOM      8  C   UNL     1      -7.980  -5.390  19.637  0.00  0.00    +0.000 A 
ATOM      9  N   UNL     1      -7.048  -4.525  20.185  0.00  0.00    +0.000 N 
ATOM     10  N   UNL     1      -8.944  -4.790  18.919  0.00  0.00    +0.000 NA
ATOM     11  C   UNL     1      -9.798  -5.666  18.370  0.00  0.00    +0.000 A 
ATOM     12  H   UNL     1     -12.376  -6.681  16.680  0.00  0.00    +0.000 HD
ATOM     13  H   UNL     1      -7.932  -9.181  20.190  0.00  0.00    +0.000 HD
ATOM     14  H   UNL     1      -7.121  -3.636  19.705  0.00  0.00    +0.000 HD
ENDROOT
BRANCH   6  15
ATOM     15  C   UNL     1      -8.696 -10.003  18.459  0.00  0.00    +0.000 A 
ATOM     16  C   UNL     1      -8.882  -9.696  17.109  0.00  0.00    +0.000 A 
ATOM     17  C   UNL     1      -8.993 -10.710  16.153  0.00  0.00    +0.000 A 
ATOM     18  C   UNL     1      -8.936 -12.050  16.538  0.00  0.00    +0.000 A 
ATOM     19  C   UNL     1      -8.766 -12.388  17.885  0.00  0.00    +0.000 A 
ATOM     20  C   UNL     1      -8.637 -11.356  18.829  0.00  0.00    +0.000 A 
ATOM     21  H   UNL     1      -8.899  -8.659  16.785  0.00  0.00    +0.000 HD
ATOM     22  H   UNL     1      -9.106 -10.452  15.102  0.00  0.00    +0.000 HD
ATOM     23  H   UNL     1      -9.020 -12.828  15.781  0.00  0.00    +0.000 HD
ATOM     24  H   UNL     1      -8.493 -11.623  19.874  0.00  0.00    +0.000 HD
BRANCH  19  25
ATOM     25  C   UNL     1      -8.713 -13.825  18.341  0.00  0.00    +0.000 C 
ATOM     26  F   UNL     1      -7.523 -14.171  18.910  0.00  0.00    +0.000 F 
ATOM     27  F   UNL     1      -9.666 -14.129  19.260  0.00  0.00    +0.000 F 
ATOM     28  F   UNL     1      -8.894 -14.702  17.310  0.00  0.00    +0.000 F 
ENDBRANCH  19  25
ENDBRANCH   6  15
BRANCH   1  29
ATOM     29  C   UNL     1     -11.477  -4.106  17.335  0.00  0.00    +0.000 C 
ATOM     30  H   UNL     1     -12.501  -4.089  17.726  0.00  0.00    +0.000 HD
ATOM     31  H   UNL     1     -10.903  -3.351  17.882  0.00  0.00    +0.000 HD
BRANCH  29  32
ATOM     32  C   UNL     1     -11.477  -3.812  15.847  0.00  0.00    +0.000 C 
ATOM     33  H   UNL     1     -10.636  -3.164  15.589  0.00  0.00    +0.000 HD
ATOM     34  H   UNL     1     -12.402  -3.309  15.544  0.00  0.00    +0.000 HD
ATOM     35  H   UNL     1     -11.394  -4.735  15.263  0.00  0.00    +0.000 HD
ENDBRANCH  29  32
ENDBRANCH   1  29
BRANCH   9  36
ATOM     36  C   UNL     1      -5.685  -5.019  20.340  0.00  0.00    +0.000 C 
ATOM     37  H   UNL     1      -5.281  -5.356  19.379  0.00  0.00    +0.000 HD
ATOM     38  H   UNL     1      -5.728  -5.909  20.981  0.00  0.00    +0.000 HD
BRANCH  36  39
ATOM     39  C   UNL     1      -4.734  -3.993  20.990  0.00  0.00    +0.000 C 
ATOM     40  H   UNL     1      -4.099  -3.519  20.231  0.00  0.00    +0.000 HD
ATOM     41  H   UNL     1      -4.066  -4.519  21.681  0.00  0.00    +0.000 HD
BRANCH  39  42
ATOM     42  N   UNL     1      -5.445  -2.941  21.729  0.00  0.00    +0.000 NA
ATOM     43  H   UNL     1      -5.033  -2.041  21.490  0.00  0.00    +0.000 HD
ATOM     44  H   UNL     1      -5.265  -3.068  22.727  0.00  0.00    +0.000 HD
ENDBRANCH  39  42
ENDBRANCH  36  39
ENDBRANCH   9  36
TORSDOF 7
ENDMDL
MODEL 2
REMARK VINA RESULT:   -10.295      1.779      2.375
REMARK INTER + INTRA:         -13.556
REMARK INTER:                 -14.035
REMARK INTRA:                   0.478
REMARK UNBOUND:                 0.350
REMARK  Name = 
REMARK  7 active torsions:
REMARK  status: ('A' for Active; 'I' for Inactive)
REMARK    1  A    between atoms: C_1  and  C_2
REMARK    2  A    between atoms: C_2  and  N_3
REMARK    3  A    between atoms: N_8  and  C_9
REMARK    4  A    between atoms: C_13  and  C_14
REMARK    5  A    between atoms: N_21  and  C_22
REMARK    6  A    between atoms: C_22  and  C_23
REMARK    7  A    between atoms: C_23  and  N_24
REMARK                            x       y       z     vdW  Elec       q    Type
REMARK                         _______ _______ _______ _____ _____    ______ ____
ROOT
ATOM      1  N   UNL     1     -11.027  -5.948  17.037  0.00  0.00    +0.000 N 
ATOM      2  C   UNL     1     -11.389  -7.220  16.691  0.00  0.00    +0.000 A 
ATOM      3  N   UNL     1     -10.722  -8.117  17.379  0.00  0.00    +0.000 NA
ATOM      4  C   UNL     1      -9.898  -7.390  18.216  0.00  0.00    +0.000 A 
ATOM      5  C   UNL     1      -8.985  -7.764  19.216  0.00  0.00    +0.000 A 
ATOM      6  N   UNL     1      -8.728  -9.095  19.566  0.00  0.00    +0.000 N 
ATOM      7  N   UNL     1      -8.360  -6.770  19.905  0.00  0.00    +0.000 NA
ATOM      8  C   UNL     1      -8.571  -5.475  19.568  0.00  0.00    +0.000 A 
ATOM      9  N   UNL     1      -7.849  -4.479  20.202  0.00  0.00    +0.000 N 
ATOM     10  N   UNL     1      -9.415  -5.035  18.620  0.00  0.00    +0.000 NA
ATOM     11  C   UNL     1     -10.061  -6.034  18.002  0.00  0.00    +0.000 A 
ATOM     12  H   UNL     1     -12.142  -7.438  15.944  0.00  0.00    +0.000 HD
ATOM     13  H   UNL     1      -8.316  -9.187  20.484  0.00  0.00    +0.000 HD
ATOM     14  H   UNL     1      -7.897  -3.642  19.634  0.00  0.00    +0.000 HD
ENDROOT
BRANCH   6  15
ATOM     15  C   UNL     1      -8.635 -10.215  18.725  0.00  0.00    +0.000 A 
ATOM     16  C   UNL     1      -8.379 -11.472  19.278  0.00  0.00    +0.000 A 
ATOM     17  C   UNL     1      -8.363 -12.618  18.476  0.00  0.00    +0.000 A 
ATOM     18  C   UNL     1      -8.586 -12.518  17.102  0.00  0.00    +0.000 A 
ATOM     19  C   UNL     1      -8.831 -11.270  16.518  0.00  0.00    +0.000 A 
ATOM     20  C   UNL     1      -8.862 -10.133  17.342  0.00  0.00    +0.000 A 
ATOM     21  H   UNL     1      -8.232 -11.575  20.350  0.00  0.00    +0.000 HD
ATOM     22  H   UNL     1      -8.192 -13.592  18.929  0.00  0.00    +0.000 HD
ATOM     23  H   UNL     1      -8.574 -13.419  16.492  0.00  0.00    +0.000 HD
ATOM     24  H   UNL     1      -9.064  -9.166  16.886  0.00  0.00    +0.000 HD
BRANCH  19  25
ATOM     25  C   UNL     1      -9.064 -11.121  15.035  0.00  0.00    +0.000 C 
ATOM     26  F   UNL     1     -10.180 -10.400  14.730  0.00  0.00    +0.000 F 
ATOM     27  F   UNL     1      -8.037 -10.506  14.392  0.00  0.00    +0.000 F 
ATOM     28  F   UNL     1      -9.226 -12.326  14.413  0.00  0.00    +0.000 F 
ENDBRANCH  19  25
ENDBRANCH   6  15
BRANCH   1  29
ATOM     29  C   UNL     1     -11.619  -4.740  16.510  0.00  0.00    +0.000 C 
ATOM     30  H   UNL     1     -12.696  -4.789  16.706  0.00  0.00    +0.000 HD
ATOM     31  H   UNL     1     -11.220  -3.888  17.071  0.00  0.00    +0.000 HD
BRANCH  29  32
ATOM     32  C   UNL     1     -11.361  -4.578  15.024  0.00  0.00    +0.000 C 
ATOM     33  H   UNL     1     -10.288  -4.513  14.831  0.00  0.00    +0.000 HD
ATOM     34  H   UNL     1     -11.834  -3.668  14.638  0.00  0.00    +0.000 HD
ATOM     35  H   UNL     1     -11.764  -5.427  14.460  0.00  0.00    +0.000 HD
ENDBRANCH  29  32
ENDBRANCH   1  29
BRANCH   9  36
ATOM     36  C   UNL     1      -6.510  -4.817  20.670  0.00  0.00    +0.000 C 
ATOM     37  H   UNL     1      -5.876  -5.142  19.836  0.00  0.00    +0.000 HD
ATOM     38  H   UNL     1      -6.603  -5.683  21.338  0.00  0.00    +0.000 HD
BRANCH  36  39
ATOM     39  C   UNL     1      -5.826  -3.671  21.445  0.00  0.00    +0.000 C 
ATOM     40  H   UNL     1      -5.909  -3.832  22.527  0.00  0.00    +0.000 HD
ATOM     41  H   UNL     1      -6.347  -2.734  21.222  0.00  0.00    +0.000 HD
BRANCH  39  42
ATOM     42  N   UNL     1      -4.406  -3.516  21.102  0.00  0.00    +0.000 NA
ATOM     43  H   UNL     1      -4.239  -3.966  20.204  0.00  0.00    +0.000 HD
ATOM     44  H   UNL     1      -3.849  -4.040  21.779  0.00  0.00    +0.000 HD
ENDBRANCH  39  42
ENDBRANCH  36  39
ENDBRANCH   9  36
TORSDOF 7
ENDMDL
MODEL 3
REMARK VINA RESULT:    -9.463      1.818      4.658
REMARK INTER + INTRA:         -12.431
REMARK INTER:                 -12.441
REMARK INTRA:                   0.010
REMARK UNBOUND:                 0.350
REMARK  Name = 
REMARK  7 active torsions:
REMARK  status: ('A' for Active; 'I' for Inactive)
REMARK    1  A    between atoms: C_1  and  C_2
REMARK    2  A    between atoms: C_2  and  N_3
REMARK    3  A    between atoms: N_8  and  C_9
REMARK    4  A    between atoms: C_13  and  C_14
REMARK    5  A    between atoms: N_21  and  C_22
REMARK    6  A    between atoms: C_22  and  C_23
REMARK    7  A    between atoms: C_23  and  N_24
REMARK                            x       y       z     vdW  Elec       q    Type
REMARK                         _______ _______ _______ _____ _____    ______ ____
ROOT
ATOM      1  N   UNL     1      -7.074  -4.714  20.427  0.00  0.00    +0.000 N 
ATOM      2  C   UNL     1      -6.485  -5.929  20.213  0.00  0.00    +0.000 A 
ATOM      3  N   UNL     1      -7.097  -6.603  19.268  0.00  0.00    +0.000 NA
ATOM      4  C   UNL     1      -8.124  -5.781  18.846  0.00  0.00    +0.000 A 
ATOM      5  C   UNL     1      -9.097  -5.909  17.840  0.00  0.00    +0.000 A 
ATOM      6  N   UNL     1      -9.199  -7.028  17.005  0.00  0.00    +0.000 N 
ATOM      7  N   UNL     1      -9.947  -4.864  17.647  0.00  0.00    +0.000 NA
ATOM      8  C   UNL     1      -9.887  -3.782  18.459  0.00  0.00    +0.000 A 
ATOM      9  N   UNL     1     -10.827  -2.774  18.323  0.00  0.00    +0.000 N 
ATOM     10  N   UNL     1      -8.999  -3.586  19.448  0.00  0.00    +0.000 NA
ATOM     11  C   UNL     1      -8.136  -4.606  19.573  0.00  0.00    +0.000 A 
ATOM     12  H   UNL     1      -5.615  -6.270  20.761  0.00  0.00    +0.000 HD
ATOM     13  H   UNL     1      -9.711  -6.838  16.155  0.00  0.00    +0.000 HD
ATOM     14  H   UNL     1     -10.827  -2.225  19.175  0.00  0.00    +0.000 HD
ENDROOT
BRANCH   6  15
ATOM     15  C   UNL     1      -9.012  -8.380  17.332  0.00  0.00    +0.000 A 
ATOM     16  C   UNL     1      -8.987  -8.767  18.675  0.00  0.00    +0.000 A 
ATOM     17  C   UNL     1      -8.884 -10.116  19.029  0.00  0.00    +0.000 A 
ATOM     18  C   UNL     1      -8.787 -11.097  18.042  0.00  0.00    +0.000 A 
ATOM     19  C   UNL     1      -8.794 -10.738  16.690  0.00  0.00    +0.000 A 
ATOM     20  C   UNL     1      -8.918  -9.380  16.353  0.00  0.00    +0.000 A 
ATOM     21  H   UNL     1      -9.091  -8.021  19.458  0.00  0.00    +0.000 HD
ATOM     22  H   UNL     1      -8.897 -10.401  20.079  0.00  0.00    +0.000 HD
ATOM     23  H   UNL     1      -8.712 -12.143  18.334  0.00  0.00    +0.000 HD
ATOM     24  H   UNL     1      -8.934  -9.106  15.299  0.00  0.00    +0.000 HD
BRANCH  19  25
ATOM     25  C   UNL     1      -8.678 -11.770  15.595  0.00  0.00    +0.000 C 
ATOM     26  F   UNL     1      -7.448 -11.802  15.007  0.00  0.00    +0.000 F 
ATOM     27  F   UNL     1      -8.918 -13.036  16.026  0.00  0.00    +0.000 F 
ATOM     28  F   UNL     1      -9.563 -11.547  14.578  0.00  0.00    +0.000 F 
ENDBRANCH  19  25
ENDBRANCH   6  15
BRANCH   1  29
ATOM     29  C   UNL     1      -6.602  -3.711  21.354  0.00  0.00    +0.000 C 
ATOM     30  H   UNL     1      -6.979  -2.741  21.010  0.00  0.00    +0.000 HD
ATOM     31  H   UNL     1      -7.050  -3.910  22.333  0.00  0.00    +0.000 HD
BRANCH  29  32
ATOM     32  C   UNL     1      -5.088  -3.685  21.447  0.00  0.00    +0.000 C 
ATOM     33  H   UNL     1      -4.763  -4.037  22.429  0.00  0.00    +0.000 HD
ATOM     34  H   UNL     1      -4.701  -2.670  21.303  0.00  0.00    +0.000 HD
ATOM     35  H   UNL     1      -4.635  -4.325  20.682  0.00  0.00    +0.000 HD
ENDBRANCH  29  32
ENDBRANCH   1  29
BRANCH   9  36
ATOM     36  C   UNL     1     -12.151  -3.153  17.846  0.00  0.00    +0.000 C 
ATOM     37  H   UNL     1     -12.922  -2.874  18.575  0.00  0.00    +0.000 HD
ATOM     38  H   UNL     1     -12.177  -4.248  17.780  0.00  0.00    +0.000 HD
BRANCH  36  39
ATOM     39  C   UNL     1     -12.491  -2.570  16.459  0.00  0.00    +0.000 C 
ATOM     40  H   UNL     1     -12.282  -1.494  16.429  0.00  0.00    +0.000 HD
ATOM     41  H   UNL     1     -13.565  -2.690  16.279  0.00  0.00    +0.000 HD
BRANCH  39  42
ATOM     42  N   UNL     1     -11.753  -3.221  15.368  0.00  0.00    +0.000 NA
ATOM     43  H   UNL     1     -11.980  -4.214  15.371  0.00  0.00    +0.000 HD
ATOM     44  H   UNL     1     -10.754  -3.168  15.576  0.00  0.00    +0.000 HD
ENDBRANCH  39  42
ENDBRANCH  36  39
ENDBRANCH   9  36
TORSDOF 7
ENDMDL
MODEL 4
REMARK VINA RESULT:    -9.361      3.568      7.151
REMARK INTER + INTRA:         -12.294
REMARK INTER:                 -12.216
REMARK INTRA:                  -0.077
REMARK UNBOUND:                 0.350
REMARK  Name = 
REMARK  7 active torsions:
REMARK  status: ('A' for Active; 'I' for Inactive)
REMARK    1  A    between atoms: C_1  and  C_2
REMARK    2  A    between atoms: C_2  and  N_3
REMARK    3  A    between atoms: N_8  and  C_9
REMARK    4  A    between atoms: C_13  and  C_14
REMARK    5  A    between atoms: N_21  and  C_22
REMARK    6  A    between atoms: C_22  and  C_23
REMARK    7  A    between atoms: C_23  and  N_24
REMARK                            x       y       z     vdW  Elec       q    Type
REMARK                         _______ _______ _______ _____ _____    ______ ____
ROOT
ATOM      1  N   UNL     1      -9.538  -8.827  17.764  0.00  0.00    +0.000 N 
ATOM      2  C   UNL     1      -8.857  -8.690  18.941  0.00  0.00    +0.000 A 
ATOM      3  N   UNL     1      -8.852  -7.445  19.355  0.00  0.00    +0.000 NA
ATOM      4  C   UNL     1      -9.572  -6.746  18.406  0.00  0.00    +0.000 A 
ATOM      5  C   UNL     1      -9.959  -5.400  18.302  0.00  0.00    +0.000 A 
ATOM      6  N   UNL     1      -9.633  -4.429  19.256  0.00  0.00    +0.000 N 
ATOM      7  N   UNL     1     -10.730  -5.044  17.238  0.00  0.00    +0.000 NA
ATOM      8  C   UNL     1     -11.036  -5.958  16.287  0.00  0.00    +0.000 A 
ATOM      9  N   UNL     1     -11.728  -5.560  15.156  0.00  0.00    +0.000 N 
ATOM     10  N   UNL     1     -10.698  -7.258  16.305  0.00  0.00    +0.000 NA
ATOM     11  C   UNL     1      -9.991  -7.591  17.395  0.00  0.00    +0.000 A 
ATOM     12  H   UNL     1      -8.392  -9.522  19.456  0.00  0.00    +0.000 HD
ATOM     13  H   UNL     1     -10.234  -3.617  19.213  0.00  0.00    +0.000 HD
ATOM     14  H   UNL     1     -11.599  -6.266  14.441  0.00  0.00    +0.000 HD
ENDROOT
BRANCH   6  15
ATOM     15  C   UNL     1      -8.436  -4.281  19.976  0.00  0.00    +0.000 A 
ATOM     16  C   UNL     1      -8.437  -3.559  21.172  0.00  0.00    +0.000 A 
ATOM     17  C   UNL     1      -7.280  -3.464  21.951  0.00  0.00    +0.000 A 
ATOM     18  C   UNL     1      -6.098  -4.077  21.534  0.00  0.00    +0.000 A 
ATOM     19  C   UNL     1      -6.063  -4.794  20.333  0.00  0.00    +0.000 A 
ATOM     20  C   UNL     1      -7.240  -4.895  19.573  0.00  0.00    +0.000 A 
ATOM     21  H   UNL     1      -9.355  -3.099  21.529  0.00  0.00    +0.000 HD
ATOM     22  H   UNL     1      -7.307  -2.924  22.895  0.00  0.00    +0.000 HD
ATOM     23  H   UNL     1      -5.207  -3.997  22.154  0.00  0.00    +0.000 HD
ATOM     24  H   UNL     1      -7.212  -5.462  18.645  0.00  0.00    +0.000 HD
BRANCH  19  25
ATOM     25  C   UNL     1      -4.801  -5.459  19.843  0.00  0.00    +0.000 C 
ATOM     26  F   UNL     1      -4.757  -6.797  20.101  0.00  0.00    +0.000 F 
ATOM     27  F   UNL     1      -4.617  -5.333  18.503  0.00  0.00    +0.000 F 
ATOM     28  F   UNL     1      -3.681  -4.937  20.425  0.00  0.00    +0.000 F 
ENDBRANCH  19  25
ENDBRANCH   6  15
BRANCH   1  29
ATOM     29  C   UNL     1      -9.779 -10.077  17.081  0.00  0.00    +0.000 C 
ATOM     30  H   UNL     1     -10.856 -10.272  17.121  0.00  0.00    +0.000 HD
ATOM     31  H   UNL     1      -9.505  -9.952  16.028  0.00  0.00    +0.000 HD
BRANCH  29  32
ATOM     32  C   UNL     1      -9.013 -11.228  17.706  0.00  0.00    +0.000 C 
ATOM     33  H   UNL     1      -9.083 -11.181  18.796  0.00  0.00    +0.000 HD
ATOM     34  H   UNL     1      -7.953 -11.193  17.430  0.00  0.00    +0.000 HD
ATOM     35  H   UNL     1      -9.412 -12.193  17.375  0.00  0.00    +0.000 HD
ENDBRANCH  29  32
ENDBRANCH   1  29
BRANCH   9  36
ATOM     36  C   UNL     1     -11.532  -4.190  14.698  0.00  0.00    +0.000 C 
ATOM     37  H   UNL     1     -11.251  -3.537  15.532  0.00  0.00    +0.000 HD
ATOM     38  H   UNL     1     -12.500  -3.822  14.335  0.00  0.00    +0.000 HD
BRANCH  36  39
ATOM     39  C   UNL     1     -10.502  -4.069  13.556  0.00  0.00    +0.000 C 
ATOM     40  H   UNL     1      -9.599  -4.648  13.786  0.00  0.00    +0.000 HD
ATOM     41  H   UNL     1     -10.194  -3.022  13.466  0.00  0.00    +0.000 HD
BRANCH  39  42
ATOM     42  N   UNL     1     -11.029  -4.519  12.260  0.00  0.00    +0.000 NA
ATOM     43  H   UNL     1     -11.849  -5.099  12.427  0.00  0.00    +0.000 HD
ATOM     44  H   UNL     1     -10.340  -5.136  11.826  0.00  0.00    +0.000 HD
ENDBRANCH  39  42
ENDBRANCH  36  39
ENDBRANCH   9  36
TORSDOF 7
ENDMDL
MODEL 5
REMARK VINA RESULT:    -9.268      4.704      7.858
REMARK INTER + INTRA:         -12.168
REMARK INTER:                 -11.561
REMARK INTRA:                  -0.606
REMARK UNBOUND:                 0.350
REMARK  Name = 
REMARK  7 active torsions:
REMARK  status: ('A' for Active; 'I' for Inactive)
REMARK    1  A    between atoms: C_1  and  C_2
REMARK    2  A    between atoms: C_2  and  N_3
REMARK    3  A    between atoms: N_8  and  C_9
REMARK    4  A    between atoms: C_13  and  C_14
REMARK    5  A    between atoms: N_21  and  C_22
REMARK    6  A    between atoms: C_22  and  C_23
REMARK    7  A    between atoms: C_23  and  N_24
REMARK                            x       y       z     vdW  Elec       q    Type
REMARK                         _______ _______ _______ _____ _____    ______ ____
ROOT
ATOM      1  N   UNL     1      -8.895  -9.185  18.590  0.00  0.00    +0.000 N 
ATOM      2  C   UNL     1      -8.632  -8.880  19.896  0.00  0.00    +0.000 A 
ATOM      3  N   UNL     1      -8.629  -7.583  20.098  0.00  0.00    +0.000 NA
ATOM      4  C   UNL     1      -8.913  -7.025  18.868  0.00  0.00    +0.000 A 
ATOM      5  C   UNL     1      -9.094  -5.699  18.440  0.00  0.00    +0.000 A 
ATOM      6  N   UNL     1      -8.999  -4.595  19.294  0.00  0.00    +0.000 N 
ATOM      7  N   UNL     1      -9.426  -5.496  17.136  0.00  0.00    +0.000 NA
ATOM      8  C   UNL     1      -9.497  -6.545  16.282  0.00  0.00    +0.000 A 
ATOM      9  N   UNL     1      -9.728  -6.316  14.936  0.00  0.00    +0.000 N 
ATOM     10  N   UNL     1      -9.327  -7.838  16.607  0.00  0.00    +0.000 NA
ATOM     11  C   UNL     1      -9.063  -8.011  17.910  0.00  0.00    +0.000 A 
ATOM     12  H   UNL     1      -8.457  -9.632  20.656  0.00  0.00    +0.000 HD
ATOM     13  H   UNL     1      -9.461  -3.773  18.927  0.00  0.00    +0.000 HD
ATOM     14  H   UNL     1      -9.446  -7.142  14.422  0.00  0.00    +0.000 HD
ENDROOT
BRANCH   6  15
ATOM     15  C   UNL     1      -8.101  -4.386  20.352  0.00  0.00    +0.000 A 
ATOM     16  C   UNL     1      -6.730  -4.545  20.134  0.00  0.00    +0.000 A 
ATOM     17  C   UNL     1      -5.806  -4.264  21.146  0.00  0.00    +0.000 A 
ATOM     18  C   UNL     1      -6.245  -3.836  22.399  0.00  0.00    +0.000 A 
ATOM     19  C   UNL     1      -7.612  -3.682  22.652  0.00  0.00    +0.000 A 
ATOM     20  C   UNL     1      -8.524  -3.950  21.617  0.00  0.00    +0.000 A 
ATOM     21  H   UNL     1      -6.367  -4.849  19.156  0.00  0.00    +0.000 HD
ATOM     22  H   UNL     1      -4.742  -4.364  20.948  0.00  0.00    +0.000 HD
ATOM     23  H   UNL     1      -5.513  -3.618  23.175  0.00  0.00    +0.000 HD
ATOM     24  H   UNL     1      -9.586  -3.819  21.815  0.00  0.00    +0.000 HD
BRANCH  19  25
ATOM     25  C   UNL     1      -8.124  -3.234  23.998  0.00  0.00    +0.000 C 
ATOM     26  F   UNL     1      -9.474  -3.371  24.140  0.00  0.00    +0.000 F 
ATOM     27  F   UNL     1      -7.571  -3.916  25.035  0.00  0.00    +0.000 F 
ATOM     28  F   UNL     1      -7.864  -1.914  24.238  0.00  0.00    +0.000 F 
ENDBRANCH  19  25
ENDBRANCH   6  15
BRANCH   1  29
ATOM     29  C   UNL     1      -9.030 -10.522  18.057  0.00  0.00    +0.000 C 
ATOM     30  H   UNL     1     -10.092 -10.788  18.102  0.00  0.00    +0.000 HD
ATOM     31  H   UNL     1      -8.740 -10.502  17.002  0.00  0.00    +0.000 HD
BRANCH  29  32
ATOM     32  C   UNL     1      -8.202 -11.532  18.828  0.00  0.00    +0.000 C 
ATOM     33  H   UNL     1      -8.377 -11.425  19.901  0.00  0.00    +0.000 HD
ATOM     34  H   UNL     1      -7.131 -11.390  18.641  0.00  0.00    +0.000 HD
ATOM     35  H   UNL     1      -8.458 -12.556  18.536  0.00  0.00    +0.000 HD
ENDBRANCH  29  32
ENDBRANCH   1  29
BRANCH   9  36
ATOM     36  C   UNL     1      -9.242  -5.060  14.378  0.00  0.00    +0.000 C 
ATOM     37  H   UNL     1      -8.484  -5.243  13.607  0.00  0.00    +0.000 HD
ATOM     38  H   UNL     1      -8.732  -4.516  15.184  0.00  0.00    +0.000 HD
BRANCH  36  39
ATOM     39  C   UNL     1     -10.367  -4.164  13.819  0.00  0.00    +0.000 C 
ATOM     40  H   UNL     1     -10.038  -3.120  13.761  0.00  0.00    +0.000 HD
ATOM     41  H   UNL     1     -11.217  -4.192  14.510  0.00  0.00    +0.000 HD
BRANCH  39  42
ATOM     42  N   UNL     1     -10.827  -4.586  12.489  0.00  0.00    +0.000 NA
ATOM     43  H   UNL     1     -10.475  -5.524  12.307  0.00  0.00    +0.000 HD
ATOM     44  H   UNL     1     -10.385  -3.988  11.788  0.00  0.00    +0.000 HD
ENDBRANCH  39  42
ENDBRANCH  36  39
ENDBRANCH   9  36
TORSDOF 7
ENDMDL
MODEL 6
REMARK VINA RESULT:    -9.231      2.539      4.775
REMARK INTER + INTRA:         -12.119
REMARK INTER:                 -12.168
REMARK INTRA:                   0.050
REMARK UNBOUND:                 0.350
REMARK  Name = 
REMARK  7 active torsions:
REMARK  status: ('A' for Active; 'I' for Inactive)
REMARK    1  A    between atoms: C_1  and  C_2
REMARK    2  A    between atoms: C_2  and  N_3
REMARK    3  A    between atoms: N_8  and  C_9
REMARK    4  A    between atoms: C_13  and  C_14
REMARK    5  A    between atoms: N_21  and  C_22
REMARK    6  A    between atoms: C_22  and  C_23
REMARK    7  A    between atoms: C_23  and  N_24
REMARK                            x       y       z     vdW  Elec       q    Type
REMARK                         _______ _______ _______ _____ _____    ______ ____
ROOT
ATOM      1  N   UNL     1      -6.004  -4.749  20.312  0.00  0.00    +0.000 N 
ATOM      2  C   UNL     1      -5.648  -5.920  19.704  0.00  0.00    +0.000 A 
ATOM      3  N   UNL     1      -6.604  -6.371  18.925  0.00  0.00    +0.000 NA
ATOM      4  C   UNL     1      -7.621  -5.442  19.027  0.00  0.00    +0.000 A 
ATOM      5  C   UNL     1      -8.878  -5.331  18.409  0.00  0.00    +0.000 A 
ATOM      6  N   UNL     1      -9.364  -6.259  17.480  0.00  0.00    +0.000 N 
ATOM      7  N   UNL     1      -9.631  -4.236  18.701  0.00  0.00    +0.000 NA
ATOM      8  C   UNL     1      -9.195  -3.337  19.616  0.00  0.00    +0.000 A 
ATOM      9  N   UNL     1     -10.017  -2.286  19.985  0.00  0.00    +0.000 N 
ATOM     10  N   UNL     1      -8.016  -3.376  20.259  0.00  0.00    +0.000 NA
ATOM     11  C   UNL     1      -7.271  -4.433  19.905  0.00  0.00    +0.000 A 
ATOM     12  H   UNL     1      -4.687  -6.397  19.854  0.00  0.00    +0.000 HD
ATOM     13  H   UNL     1     -10.104  -5.885  16.902  0.00  0.00    +0.000 HD
ATOM     14  H   UNL     1      -9.681  -1.915  20.866  0.00  0.00    +0.000 HD
ENDROOT
BRANCH   6  15
ATOM     15  C   UNL     1      -9.221  -7.655  17.487  0.00  0.00    +0.000 A 
ATOM     16  C   UNL     1      -9.104  -8.330  18.704  0.00  0.00    +0.000 A 
ATOM     17  C   UNL     1      -9.042  -9.727  18.746  0.00  0.00    +0.000 A 
ATOM     18  C   UNL     1      -9.081 -10.468  17.564  0.00  0.00    +0.000 A 
ATOM     19  C   UNL     1      -9.183  -9.819  16.329  0.00  0.00    +0.000 A 
ATOM     20  C   UNL     1      -9.263  -8.416  16.308  0.00  0.00    +0.000 A 
ATOM     21  H   UNL     1      -9.102  -7.773  19.637  0.00  0.00    +0.000 HD
ATOM     22  H   UNL     1      -8.982 -10.237  19.704  0.00  0.00    +0.000 HD
ATOM     23  H   UNL     1      -9.036 -11.554  17.613  0.00  0.00    +0.000 HD
ATOM     24  H   UNL     1      -9.353  -7.915  15.346  0.00  0.00    +0.000 HD
BRANCH  19  25
ATOM     25  C   UNL     1      -9.214 -10.585  15.030  0.00  0.00    +0.000 C 
ATOM     26  F   UNL     1      -8.090 -10.422  14.275  0.00  0.00    +0.000 F 
ATOM     27  F   UNL     1      -9.353 -11.925  15.204  0.00  0.00    +0.000 F 
ATOM     28  F   UNL     1     -10.251 -10.202  14.228  0.00  0.00    +0.000 F 
ENDBRANCH  19  25
ENDBRANCH   6  15
BRANCH   1  29
ATOM     29  C   UNL     1      -5.153  -3.968  21.179  0.00  0.00    +0.000 C 
ATOM     30  H   UNL     1      -4.233  -4.541  21.340  0.00  0.00    +0.000 HD
ATOM     31  H   UNL     1      -4.879  -3.047  20.653  0.00  0.00    +0.000 HD
BRANCH  29  32
ATOM     32  C   UNL     1      -5.818  -3.655  22.505  0.00  0.00    +0.000 C 
ATOM     33  H   UNL     1      -5.290  -2.844  23.012  0.00  0.00    +0.000 HD
ATOM     34  H   UNL     1      -5.815  -4.530  23.165  0.00  0.00    +0.000 HD
ATOM     35  H   UNL     1      -6.861  -3.352  22.361  0.00  0.00    +0.000 HD
ENDBRANCH  29  32
ENDBRANCH   1  29
BRANCH   9  36
ATOM     36  C   UNL     1     -11.456  -2.511  19.932  0.00  0.00    +0.000 C 
ATOM     37  H   UNL     1     -11.682  -3.582  19.874  0.00  0.00    +0.000 HD
ATOM     38  H   UNL     1     -11.825  -2.070  18.997  0.00  0.00    +0.000 HD
BRANCH  36  39
ATOM     39  C   UNL     1     -12.219  -1.869  21.110  0.00  0.00    +0.000 C 
ATOM     40  H   UNL     1     -13.299  -2.021  21.001  0.00  0.00    +0.000 HD
ATOM     41  H   UNL     1     -12.047  -0.787  21.095  0.00  0.00    +0.000 HD
BRANCH  39  42
ATOM     42  N   UNL     1     -11.800  -2.394  22.417  0.00  0.00    +0.000 NA
ATOM     43  H   UNL     1     -12.617  -2.779  22.888  0.00  0.00    +0.000 HD
ATOM     44  H   UNL     1     -11.493  -1.612  22.998  0.00  0.00    +0.000 HD
ENDBRANCH  39  42
ENDBRANCH  36  39
ENDBRANCH   9  36
TORSDOF 7
ENDMDL
MODEL 7
REMARK VINA RESULT:    -9.026      4.700      8.022
REMARK INTER + INTRA:         -11.842
REMARK INTER:                 -11.067
REMARK INTRA:                  -0.775
REMARK UNBOUND:                 0.350
REMARK  Name = 
REMARK  7 active torsions:
REMARK  status: ('A' for Active; 'I' for Inactive)
REMARK    1  A    between atoms: C_1  and  C_2
REMARK    2  A    between atoms: C_2  and  N_3
REMARK    3  A    between atoms: N_8  and  C_9
REMARK    4  A    between atoms: C_13  and  C_14
REMARK    5  A    between atoms: N_21  and  C_22
REMARK    6  A    between atoms: C_22  and  C_23
REMARK    7  A    between atoms: C_23  and  N_24
REMARK                            x       y       z     vdW  Elec       q    Type
REMARK                         _______ _______ _______ _____ _____    ______ ____
ROOT
ATOM      1  N   UNL     1      -7.788  -5.877  19.150  0.00  0.00    +0.000 N 
ATOM      2  C   UNL     1      -8.359  -4.636  19.083  0.00  0.00    +0.000 A 
ATOM      3  N   UNL     1      -9.481  -4.656  18.402  0.00  0.00    +0.000 NA
ATOM      4  C   UNL     1      -9.648  -5.972  18.020  0.00  0.00    +0.000 A 
ATOM      5  C   UNL     1     -10.664  -6.641  17.317  0.00  0.00    +0.000 A 
ATOM      6  N   UNL     1     -11.809  -6.002  16.827  0.00  0.00    +0.000 N 
ATOM      7  N   UNL     1     -10.539  -7.986  17.152  0.00  0.00    +0.000 NA
ATOM      8  C   UNL     1      -9.428  -8.623  17.593  0.00  0.00    +0.000 A 
ATOM      9  N   UNL     1      -9.263  -9.971  17.324  0.00  0.00    +0.000 N 
ATOM     10  N   UNL     1      -8.409  -8.058  18.261  0.00  0.00    +0.000 NA
ATOM     11  C   UNL     1      -8.590  -6.745  18.461  0.00  0.00    +0.000 A 
ATOM     12  H   UNL     1      -7.926  -3.760  19.549  0.00  0.00    +0.000 HD
ATOM     13  H   UNL     1     -12.569  -6.644  16.644  0.00  0.00    +0.000 HD
ATOM     14  H   UNL     1      -8.283 -10.199  17.440  0.00  0.00    +0.000 HD
ENDROOT
BRANCH   6  15
ATOM     15  C   UNL     1     -11.918  -4.726  16.251  0.00  0.00    +0.000 A 
ATOM     16  C   UNL     1     -12.363  -3.655  17.030  0.00  0.00    +0.000 A 
ATOM     17  C   UNL     1     -12.404  -2.358  16.507  0.00  0.00    +0.000 A 
ATOM     18  C   UNL     1     -12.014  -2.119  15.190  0.00  0.00    +0.000 A 
ATOM     19  C   UNL     1     -11.577  -3.174  14.381  0.00  0.00    +0.000 A 
ATOM     20  C   UNL     1     -11.525  -4.466  14.929  0.00  0.00    +0.000 A 
ATOM     21  H   UNL     1     -12.644  -3.816  18.067  0.00  0.00    +0.000 HD
ATOM     22  H   UNL     1     -12.724  -1.532  17.138  0.00  0.00    +0.000 HD
ATOM     23  H   UNL     1     -12.047  -1.103  14.799  0.00  0.00    +0.000 HD
ATOM     24  H   UNL     1     -11.174  -5.283  14.301  0.00  0.00    +0.000 HD
BRANCH  19  25
ATOM     25  C   UNL     1     -11.160  -2.955  12.948  0.00  0.00    +0.000 C 
ATOM     26  F   UNL     1     -11.652  -1.804  12.408  0.00  0.00    +0.000 F 
ATOM     27  F   UNL     1      -9.812  -2.895  12.788  0.00  0.00    +0.000 F 
ATOM     28  F   UNL     1     -11.590  -3.957  12.126  0.00  0.00    +0.000 F 
ENDBRANCH  19  25
ENDBRANCH   6  15
BRANCH   1  29
ATOM     29  C   UNL     1      -6.584  -6.202  19.879  0.00  0.00    +0.000 C 
ATOM     30  H   UNL     1      -6.671  -5.752  20.875  0.00  0.00    +0.000 HD
ATOM     31  H   UNL     1      -6.544  -7.288  20.010  0.00  0.00    +0.000 HD
BRANCH  29  32
ATOM     32  C   UNL     1      -5.337  -5.694  19.180  0.00  0.00    +0.000 C 
ATOM     33  H   UNL     1      -5.037  -6.389  18.391  0.00  0.00    +0.000 HD
ATOM     34  H   UNL     1      -4.503  -5.594  19.883  0.00  0.00    +0.000 HD
ATOM     35  H   UNL     1      -5.512  -4.712  18.727  0.00  0.00    +0.000 HD
ENDBRANCH  29  32
ENDBRANCH   1  29
BRANCH   9  36
ATOM     36  C   UNL     1      -9.864 -10.489  16.101  0.00  0.00    +0.000 C 
ATOM     37  H   UNL     1     -10.792  -9.953  15.865  0.00  0.00    +0.000 HD
ATOM     38  H   UNL     1     -10.154 -11.530  16.291  0.00  0.00    +0.000 HD
BRANCH  36  39
ATOM     39  C   UNL     1      -8.909 -10.459  14.890  0.00  0.00    +0.000 C 
ATOM     40  H   UNL     1      -8.943 -11.411  14.346  0.00  0.00    +0.000 HD
ATOM     41  H   UNL     1      -7.882 -10.336  15.252  0.00  0.00    +0.000 HD
BRANCH  39  42
ATOM     42  N   UNL     1      -9.211  -9.371  13.950  0.00  0.00    +0.000 NA
ATOM     43  H   UNL     1      -9.168  -8.486  14.453  0.00  0.00    +0.000 HD
ATOM     44  H   UNL     1     -10.181  -9.466  13.644  0.00  0.00    +0.000 HD
ENDBRANCH  39  42
ENDBRANCH  36  39
ENDBRANCH   9  36
TORSDOF 7
ENDMDL
MODEL 8
REMARK VINA RESULT:    -8.617      2.902      4.141
REMARK INTER + INTRA:         -11.289
REMARK INTER:                 -10.946
REMARK INTRA:                  -0.342
REMARK UNBOUND:                 0.350
REMARK  Name = 
REMARK  7 active torsions:
REMARK  status: ('A' for Active; 'I' for Inactive)
REMARK    1  A    between atoms: C_1  and  C_2
REMARK    2  A    between atoms: C_2  and  N_3
REMARK    3  A    between atoms: N_8  and  C_9
REMARK    4  A    between atoms: C_13  and  C_14
REMARK    5  A    between atoms: N_21  and  C_22
REMARK    6  A    between atoms: C_22  and  C_23
REMARK    7  A    between atoms: C_23  and  N_24
REMARK                            x       y       z     vdW  Elec       q    Type
REMARK                         _______ _______ _______ _____ _____    ______ ____
ROOT
ATOM      1  N   UNL     1      -9.943  -3.751  14.686  0.00  0.00    +0.000 N 
ATOM      2  C   UNL     1      -9.767  -5.067  14.359  0.00  0.00    +0.000 A 
ATOM      3  N   UNL     1     -10.085  -5.859  15.355  0.00  0.00    +0.000 NA
ATOM      4  C   UNL     1     -10.496  -5.017  16.369  0.00  0.00    +0.000 A 
ATOM      5  C   UNL     1     -10.999  -5.251  17.660  0.00  0.00    +0.000 A 
ATOM      6  N   UNL     1     -11.182  -6.532  18.194  0.00  0.00    +0.000 N 
ATOM      7  N   UNL     1     -11.367  -4.171  18.401  0.00  0.00    +0.000 NA
ATOM      8  C   UNL     1     -11.174  -2.920  17.918  0.00  0.00    +0.000 A 
ATOM      9  N   UNL     1     -11.451  -1.828  18.723  0.00  0.00    +0.000 N 
ATOM     10  N   UNL     1     -10.690  -2.610  16.704  0.00  0.00    +0.000 NA
ATOM     11  C   UNL     1     -10.395  -3.696  15.975  0.00  0.00    +0.000 A 
ATOM     12  H   UNL     1      -9.414  -5.393  13.388  0.00  0.00    +0.000 HD
ATOM     13  H   UNL     1     -11.832  -6.546  18.969  0.00  0.00    +0.000 HD
ATOM     14  H   UNL     1     -10.972  -1.022  18.339  0.00  0.00    +0.000 HD
ENDROOT
BRANCH   6  15
ATOM     15  C   UNL     1     -10.366  -7.664  18.044  0.00  0.00    +0.000 A 
ATOM     16  C   UNL     1      -9.612  -8.119  19.129  0.00  0.00    +0.000 A 
ATOM     17  C   UNL     1      -8.854  -9.290  19.034  0.00  0.00    +0.000 A 
ATOM     18  C   UNL     1      -8.827 -10.015  17.842  0.00  0.00    +0.000 A 
ATOM     19  C   UNL     1      -9.560  -9.576  16.734  0.00  0.00    +0.000 A 
ATOM     20  C   UNL     1     -10.330  -8.408  16.855  0.00  0.00    +0.000 A 
ATOM     21  H   UNL     1      -9.644  -7.585  20.075  0.00  0.00    +0.000 HD
ATOM     22  H   UNL     1      -8.298  -9.646  19.898  0.00  0.00    +0.000 HD
ATOM     23  H   UNL     1      -8.235 -10.927  17.785  0.00  0.00    +0.000 HD
ATOM     24  H   UNL     1     -10.908  -8.076  15.994  0.00  0.00    +0.000 HD
BRANCH  19  25
ATOM     25  C   UNL     1      -9.544 -10.326  15.425  0.00  0.00    +0.000 C 
ATOM     26  F   UNL     1      -8.424 -10.099  14.682  0.00  0.00    +0.000 F 
ATOM     27  F   UNL     1      -9.620 -11.674  15.581  0.00  0.00    +0.000 F 
ATOM     28  F   UNL     1     -10.593  -9.983  14.620  0.00  0.00    +0.000 F 
ENDBRANCH  19  25
ENDBRANCH   6  15
BRANCH   1  29
ATOM     29  C   UNL     1      -9.742  -2.635  13.790  0.00  0.00    +0.000 C 
ATOM     30  H   UNL     1      -9.948  -1.719  14.354  0.00  0.00    +0.000 HD
ATOM     31  H   UNL     1      -8.686  -2.614  13.499  0.00  0.00    +0.000 HD
BRANCH  29  32
ATOM     32  C   UNL     1     -10.637  -2.714  12.568  0.00  0.00    +0.000 C 
ATOM     33  H   UNL     1     -10.838  -1.712  12.181  0.00  0.00    +0.000 HD
ATOM     34  H   UNL     1     -11.596  -3.185  12.811  0.00  0.00    +0.000 HD
ATOM     35  H   UNL     1     -10.169  -3.304  11.773  0.00  0.00    +0.000 HD
ENDBRANCH  29  32
ENDBRANCH   1  29
BRANCH   9  36
ATOM     36  C   UNL     1     -11.290  -1.998  20.162  0.00  0.00    +0.000 C 
ATOM     37  H   UNL     1     -11.721  -2.951  20.492  0.00  0.00    +0.000 HD
ATOM     38  H   UNL     1     -11.877  -1.212  20.655  0.00  0.00    +0.000 HD
BRANCH  36  39
ATOM     39  C   UNL     1      -9.825  -1.884  20.631  0.00  0.00    +0.000 C 
ATOM     40  H   UNL     1      -9.771  -1.414  21.621  0.00  0.00    +0.000 HD
ATOM     41  H   UNL     1      -9.282  -1.231  19.939  0.00  0.00    +0.000 HD
BRANCH  39  42
ATOM     42  N   UNL     1      -9.140  -3.182  20.691  0.00  0.00    +0.000 NA
ATOM     43  H   UNL     1      -8.479  -3.165  21.466  0.00  0.00    +0.000 HD
ATOM     44  H   UNL     1      -8.572  -3.288  19.849  0.00  0.00    +0.000 HD
ENDBRANCH  39  42
ENDBRANCH  36  39
ENDBRANCH   9  36
TORSDOF 7
ENDMDL
MODEL 9
REMARK VINA RESULT:    -8.606      7.179      9.683
REMARK INTER + INTRA:         -11.274
REMARK INTER:                 -10.338
REMARK INTRA:                  -0.936
REMARK UNBOUND:                 0.350
REMARK  Name = 
REMARK  7 active torsions:
REMARK  status: ('A' for Active; 'I' for Inactive)
REMARK    1  A    between atoms: C_1  and  C_2
REMARK    2  A    between atoms: C_2  and  N_3
REMARK    3  A    between atoms: N_8  and  C_9
REMARK    4  A    between atoms: C_13  and  C_14
REMARK    5  A    between atoms: N_21  and  C_22
REMARK    6  A    between atoms: C_22  and  C_23
REMARK    7  A    between atoms: C_23  and  N_24
REMARK                            x       y       z     vdW  Elec       q    Type
REMARK                         _______ _______ _______ _____ _____    ______ ____
ROOT
ATOM      1  N   UNL     1     -11.010  -2.743  19.265  0.00  0.00    +0.000 N 
ATOM      2  C   UNL     1     -11.297  -1.743  20.151  0.00  0.00    +0.000 A 
ATOM      3  N   UNL     1     -10.315  -1.554  21.002  0.00  0.00    +0.000 NA
ATOM      4  C   UNL     1      -9.345  -2.469  20.642  0.00  0.00    +0.000 A 
ATOM      5  C   UNL     1      -8.054  -2.733  21.129  0.00  0.00    +0.000 A 
ATOM      6  N   UNL     1      -7.473  -2.029  22.191  0.00  0.00    +0.000 N 
ATOM      7  N   UNL     1      -7.324  -3.692  20.497  0.00  0.00    +0.000 NA
ATOM      8  C   UNL     1      -7.872  -4.405  19.485  0.00  0.00    +0.000 A 
ATOM      9  N   UNL     1      -7.159  -5.450  18.922  0.00  0.00    +0.000 N 
ATOM     10  N   UNL     1      -9.099  -4.225  18.968  0.00  0.00    +0.000 NA
ATOM     11  C   UNL     1      -9.771  -3.233  19.571  0.00  0.00    +0.000 A 
ATOM     12  H   UNL     1     -12.223  -1.182  20.131  0.00  0.00    +0.000 HD
ATOM     13  H   UNL     1      -6.465  -2.105  22.207  0.00  0.00    +0.000 HD
ATOM     14  H   UNL     1      -7.811  -6.046  18.426  0.00  0.00    +0.000 HD
ENDROOT
BRANCH   6  15
ATOM     15  C   UNL     1      -8.083  -1.564  23.366  0.00  0.00    +0.000 A 
ATOM     16  C   UNL     1      -8.571  -2.482  24.300  0.00  0.00    +0.000 A 
ATOM     17  C   UNL     1      -9.110  -2.049  25.515  0.00  0.00    +0.000 A 
ATOM     18  C   UNL     1      -9.184  -0.686  25.806  0.00  0.00    +0.000 A 
ATOM     19  C   UNL     1      -8.718   0.257  24.884  0.00  0.00    +0.000 A 
ATOM     20  C   UNL     1      -8.162  -0.197  23.677  0.00  0.00    +0.000 A 
ATOM     21  H   UNL     1      -8.495  -3.548  24.104  0.00  0.00    +0.000 HD
ATOM     22  H   UNL     1      -9.456  -2.779  26.243  0.00  0.00    +0.000 HD
ATOM     23  H   UNL     1      -9.602  -0.366  26.759  0.00  0.00    +0.000 HD
ATOM     24  H   UNL     1      -7.791   0.539  22.967  0.00  0.00    +0.000 HD
BRANCH  19  25
ATOM     25  C   UNL     1      -8.794   1.739  25.158  0.00  0.00    +0.000 C 
ATOM     26  F   UNL     1      -9.344   2.453  24.135  0.00  0.00    +0.000 F 
ATOM     27  F   UNL     1      -9.529   2.041  26.260  0.00  0.00    +0.000 F 
ATOM     28  F   UNL     1      -7.561   2.290  25.368  0.00  0.00    +0.000 F 
ENDBRANCH  19  25
ENDBRANCH   6  15
BRANCH   1  29
ATOM     29  C   UNL     1     -11.856  -3.151  18.167  0.00  0.00    +0.000 C 
ATOM     30  H   UNL     1     -11.446  -4.084  17.765  0.00  0.00    +0.000 HD
ATOM     31  H   UNL     1     -12.852  -3.372  18.564  0.00  0.00    +0.000 HD
BRANCH  29  32
ATOM     32  C   UNL     1     -11.929  -2.097  17.078  0.00  0.00    +0.000 C 
ATOM     33  H   UNL     1     -12.433  -1.202  17.452  0.00  0.00    +0.000 HD
ATOM     34  H   UNL     1     -12.485  -2.465  16.209  0.00  0.00    +0.000 HD
ATOM     35  H   UNL     1     -10.927  -1.813  16.737  0.00  0.00    +0.000 HD
ENDBRANCH  29  32
ENDBRANCH   1  29
BRANCH   9  36
ATOM     36  C   UNL     1      -6.223  -6.162  19.783  0.00  0.00    +0.000 C 
ATOM     37  H   UNL     1      -6.382  -7.245  19.720  0.00  0.00    +0.000 HD
ATOM     38  H   UNL     1      -6.449  -5.881  20.820  0.00  0.00    +0.000 HD
BRANCH  36  39
ATOM     39  C   UNL     1      -4.746  -5.821  19.494  0.00  0.00    +0.000 C 
ATOM     40  H   UNL     1      -4.527  -5.927  18.424  0.00  0.00    +0.000 HD
ATOM     41  H   UNL     1      -4.108  -6.538  20.022  0.00  0.00    +0.000 HD
BRANCH  39  42
ATOM     42  N   UNL     1      -4.379  -4.463  19.915  0.00  0.00    +0.000 NA
ATOM     43  H   UNL     1      -3.404  -4.466  20.209  0.00  0.00    +0.000 HD
ATOM     44  H   UNL     1      -4.916  -4.227  20.752  0.00  0.00    +0.000 HD
ENDBRANCH  39  42
ENDBRANCH  36  39
ENDBRANCH   9  36
TORSDOF 7
ENDMDL
