MODEL 1
REMARK VINA RESULT:   -11.613      0.000      0.000
REMARK INTER + INTRA:         -15.430
REMARK INTER:                 -14.668
REMARK INTRA:                  -0.762
REMARK UNBOUND:                -0.762
REMARK  Name = 
REMARK  5 active torsions:
REMARK  status: ('A' for Active; 'I' for Inactive)
REMARK    1  A    between atoms: N_1  and  C_2
REMARK    2  A    between atoms: C_2  and  C_3
REMARK    3  A    between atoms: C_2  and  C_10
REMARK    4  A    between atoms: C_3  and  C_4
REMARK    5  A    between atoms: C_13  and  C_14
REMARK                            x       y       z     vdW  Elec       q    Type
REMARK                         _______ _______ _______ _____ _____    ______ ____
ROOT
ATOM      1  C   UNL     1      -9.390  -8.023  17.534  0.00  0.00    +0.000 A 
ATOM      2  C   UNL     1      -8.591  -7.075  16.873  0.00  0.00    +0.000 A 
ATOM      3  C   UNL     1      -7.715  -6.244  17.580  0.00  0.00    +0.000 A 
ATOM      4  C   UNL     1      -7.605  -6.320  18.975  0.00  0.00    +0.000 A 
ATOM      5  C   UNL     1      -8.446  -7.224  19.636  0.00  0.00    +0.000 A 
ATOM      6  C   UNL     1      -9.323  -8.055  18.933  0.00  0.00    +0.000 A 
ATOM      7  H   UNL     1      -8.633  -6.982  15.789  0.00  0.00    +0.000 HD
ATOM      8  H   UNL     1      -7.095  -5.543  17.023  0.00  0.00    +0.000 HD
ATOM      9  H   UNL     1      -8.429  -7.304  20.722  0.00  0.00    +0.000 HD
ATOM     10  H   UNL     1      -9.939  -8.725  19.525  0.00  0.00    +0.000 HD
ENDROOT
BRANCH   4  11
ATOM     11  C   UNL     1      -6.630  -5.502  19.697  0.00  0.00    +0.000 A 
ATOM     12  N   UNL     1      -5.307  -5.842  19.632  0.00  0.00    +0.000 NA
ATOM     13  C   UNL     1      -4.424  -5.115  20.344  0.00  0.00    +0.000 A 
ATOM     14  N   UNL     1      -4.668  -4.068  21.157  0.00  0.00    +0.000 NA
ATOM     15  C   UNL     1      -5.978  -3.787  21.190  0.00  0.00    +0.000 A 
ATOM     16  N   UNL     1      -6.585  -2.814  21.930  0.00  0.00    +0.000 N 
ATOM     17  C   UNL     1      -7.927  -2.882  21.678  0.00  0.00    +0.000 A 
ATOM     18  N   UNL     1      -8.217  -3.839  20.825  0.00  0.00    +0.000 NA
ATOM     19  C   UNL     1      -7.003  -4.425  20.511  0.00  0.00    +0.000 A 
ATOM     20  H   UNL     1      -3.383  -5.417  20.256  0.00  0.00    +0.000 HD
ATOM     21  H   UNL     1      -6.116  -2.181  22.556  0.00  0.00    +0.000 HD
ATOM     22  H   UNL     1      -8.640  -2.217  22.147  0.00  0.00    +0.000 HD
ENDBRANCH   4  11
BRANCH   1  23
ATOM     23  C   UNL     1     -10.350  -8.913  16.746  0.00  0.00    +0.000 C 
ATOM     24  H   UNL     1     -10.782  -9.610  17.476  0.00  0.00    +0.000 HD
BRANCH  23  25
ATOM     25  N   UNL     1     -11.465  -8.124  16.186  0.00  0.00    +0.000 NA
ATOM     26  H   UNL     1     -11.608  -7.299  16.770  0.00  0.00    +0.000 HD
ATOM     27  H   UNL     1     -12.321  -8.672  16.264  0.00  0.00    +0.000 HD
ENDBRANCH  23  25
BRANCH  23  28
ATOM     28  C   UNL     1      -9.656  -9.726  15.617  0.00  0.00    +0.000 C 
ATOM     29  H   UNL     1      -8.761  -9.206  15.256  0.00  0.00    +0.000 HD
ATOM     30  H   UNL     1     -10.329  -9.801  14.752  0.00  0.00    +0.000 HD
BRANCH  28  31
ATOM     31  C   UNL     1      -9.175 -11.100  16.023  0.00  0.00    +0.000 A 
ATOM     32  C   UNL     1      -9.156 -11.478  17.372  0.00  0.00    +0.000 A 
ATOM     33  C   UNL     1      -8.757 -12.764  17.733  0.00  0.00    +0.000 A 
ATOM     34  C   UNL     1      -8.375 -13.680  16.756  0.00  0.00    +0.000 A 
ATOM     35  C   UNL     1      -8.388 -13.311  15.413  0.00  0.00    +0.000 A 
ATOM     36  C   UNL     1      -8.787 -12.028  15.046  0.00  0.00    +0.000 A 
ATOM     37  H   UNL     1      -9.462 -10.778  18.146  0.00  0.00    +0.000 HD
ATOM     38  H   UNL     1      -8.753 -13.053  18.782  0.00  0.00    +0.000 HD
ATOM     39  H   UNL     1      -8.073 -14.684  17.039  0.00  0.00    +0.000 HD
ATOM     40  H   UNL     1      -8.095 -14.026  14.648  0.00  0.00    +0.000 HD
ATOM     41  H   UNL     1      -8.808 -11.760  13.991  0.00  0.00    +0.000 HD
ENDBRANCH  28  31
ENDBRANCH  23  28
ENDBRANCH   1  23
TORSDOF 5
ENDMDL
MODEL 2
REMARK VINA RESULT:   -11.358      0.764      2.189
REMARK INTER + INTRA:         -15.108
REMARK INTER:                 -14.383
REMARK INTRA:                  -0.724
REMARK UNBOUND:                -0.762
REMARK  Name = 
REMARK  5 active torsions:
REMARK  status: ('A' for Active; 'I' for Inactive)
REMARK    1  A    between atoms: N_1  and  C_2
REMARK    2  A    between atoms: C_2  and  C_3
REMARK    3  A    between atoms: C_2  and  C_10
REMARK    4  A    between atoms: C_3  and  C_4
REMARK    5  A    between atoms: C_13  and  C_14
REMARK                            x       y       z     vdW  Elec       q    Type
REMARK                         _______ _______ _______ _____ _____    ______ ____
ROOT
ATOM      1  C   UNL     1      -9.647  -7.553  17.879  0.00  0.00    +0.000 A 
ATOM      2  C   UNL     1      -9.738  -6.167  17.669  0.00  0.00    +0.000 A 
ATOM      3  C   UNL     1      -9.146  -5.257  18.552  0.00  0.00    +0.000 A 
ATOM      4  C   UNL     1      -8.443  -5.693  19.683  0.00  0.00    +0.000 A 
ATOM      5  C   UNL     1      -8.403  -7.073  19.922  0.00  0.00    +0.000 A 
ATOM      6  C   UNL     1      -8.995  -7.984  19.042  0.00  0.00    +0.000 A 
ATOM      7  H   UNL     1     -10.267  -5.777  16.801  0.00  0.00    +0.000 HD
ATOM      8  H   UNL     1      -9.220  -4.193  18.334  0.00  0.00    +0.000 HD
ATOM      9  H   UNL     1      -7.899  -7.468  20.803  0.00  0.00    +0.000 HD
ATOM     10  H   UNL     1      -8.918  -9.034  19.305  0.00  0.00    +0.000 HD
ENDROOT
BRANCH   4  11
ATOM     11  C   UNL     1      -7.760  -4.738  20.556  0.00  0.00    +0.000 A 
ATOM     12  N   UNL     1      -8.511  -3.891  21.323  0.00  0.00    +0.000 NA
ATOM     13  C   UNL     1      -7.872  -2.979  22.083  0.00  0.00    +0.000 A 
ATOM     14  N   UNL     1      -6.546  -2.763  22.188  0.00  0.00    +0.000 NA
ATOM     15  C   UNL     1      -5.862  -3.612  21.408  0.00  0.00    +0.000 A 
ATOM     16  N   UNL     1      -4.508  -3.656  21.244  0.00  0.00    +0.000 N 
ATOM     17  C   UNL     1      -4.235  -4.658  20.355  0.00  0.00    +0.000 A 
ATOM     18  N   UNL     1      -5.329  -5.256  19.939  0.00  0.00    +0.000 NA
ATOM     19  C   UNL     1      -6.365  -4.606  20.587  0.00  0.00    +0.000 A 
ATOM     20  H   UNL     1      -8.510  -2.334  22.681  0.00  0.00    +0.000 HD
ATOM     21  H   UNL     1      -3.847  -3.043  21.690  0.00  0.00    +0.000 HD
ATOM     22  H   UNL     1      -3.227  -4.900  20.045  0.00  0.00    +0.000 HD
ENDBRANCH   4  11
BRANCH   1  23
ATOM     23  C   UNL     1     -10.312  -8.530  16.911  0.00  0.00    +0.000 C 
ATOM     24  H   UNL     1     -10.768  -9.309  17.535  0.00  0.00    +0.000 HD
BRANCH  23  25
ATOM     25  N   UNL     1     -11.405  -7.876  16.165  0.00  0.00    +0.000 NA
ATOM     26  H   UNL     1     -12.100  -8.581  15.918  0.00  0.00    +0.000 HD
ATOM     27  H   UNL     1     -11.032  -7.530  15.282  0.00  0.00    +0.000 HD
ENDBRANCH  23  25
BRANCH  23  28
ATOM     28  C   UNL     1      -9.315  -9.194  15.919  0.00  0.00    +0.000 C 
ATOM     29  H   UNL     1      -8.336  -8.703  15.962  0.00  0.00    +0.000 HD
ATOM     30  H   UNL     1      -9.675  -9.056  14.890  0.00  0.00    +0.000 HD
BRANCH  28  31
ATOM     31  C   UNL     1      -9.031 -10.655  16.179  0.00  0.00    +0.000 A 
ATOM     32  C   UNL     1      -8.694 -11.513  15.124  0.00  0.00    +0.000 A 
ATOM     33  C   UNL     1      -8.386 -12.848  15.377  0.00  0.00    +0.000 A 
ATOM     34  C   UNL     1      -8.412 -13.338  16.682  0.00  0.00    +0.000 A 
ATOM     35  C   UNL     1      -8.750 -12.493  17.736  0.00  0.00    +0.000 A 
ATOM     36  C   UNL     1      -9.056 -11.157  17.488  0.00  0.00    +0.000 A 
ATOM     37  H   UNL     1      -8.657 -11.143  14.102  0.00  0.00    +0.000 HD
ATOM     38  H   UNL     1      -8.116 -13.507  14.555  0.00  0.00    +0.000 HD
ATOM     39  H   UNL     1      -8.163 -14.377  16.878  0.00  0.00    +0.000 HD
ATOM     40  H   UNL     1      -8.766 -12.871  18.755  0.00  0.00    +0.000 HD
ATOM     41  H   UNL     1      -9.302 -10.505  18.324  0.00  0.00    +0.000 HD
ENDBRANCH  28  31
ENDBRANCH  23  28
ENDBRANCH   1  23
TORSDOF 5
ENDMDL
MODEL 3
REMARK VINA RESULT:   -11.178      0.498      2.104
REMARK INTER + INTRA:         -14.880
REMARK INTER:                 -14.090
REMARK INTRA:                  -0.790
REMARK UNBOUND:                -0.762
REMARK  Name = 
REMARK  5 active torsions:
REMARK  status: ('A' for Active; 'I' for Inactive)
REMARK    1  A    between atoms: N_1  and  C_2
REMARK    2  A    between atoms: C_2  and  C_3
REMARK    3  A    between atoms: C_2  and  C_10
REMARK    4  A    between atoms: C_3  and  C_4
REMARK    5  A    between atoms: C_13  and  C_14
REMARK                            x       y       z     vdW  Elec       q    Type
REMARK                         _______ _______ _______ _____ _____    ______ ____
ROOT
ATOM      1  C   UNL     1      -9.424  -8.158  17.488  0.00  0.00    +0.000 A 
ATOM      2  C   UNL     1      -9.453  -8.272  18.888  0.00  0.00    +0.000 A 
ATOM      3  C   UNL     1      -8.797  -7.346  19.707  0.00  0.00    +0.000 A 
ATOM      4  C   UNL     1      -8.082  -6.271  19.162  0.00  0.00    +0.000 A 
ATOM      5  C   UNL     1      -8.005  -6.193  17.766  0.00  0.00    +0.000 A 
ATOM      6  C   UNL     1      -8.658  -7.117  16.945  0.00  0.00    +0.000 A 
ATOM      7  H   UNL     1     -10.001  -9.085  19.361  0.00  0.00    +0.000 HD
ATOM      8  H   UNL     1      -8.869  -7.460  20.787  0.00  0.00    +0.000 HD
ATOM      9  H   UNL     1      -7.436  -5.398  17.286  0.00  0.00    +0.000 HD
ATOM     10  H   UNL     1      -8.545  -6.983  15.874  0.00  0.00    +0.000 HD
ENDROOT
BRANCH   4  11
ATOM     11  C   UNL     1      -7.466  -5.264  20.028  0.00  0.00    +0.000 A 
ATOM     12  N   UNL     1      -8.266  -4.329  20.623  0.00  0.00    +0.000 NA
ATOM     13  C   UNL     1      -7.683  -3.373  21.374  0.00  0.00    +0.000 A 
ATOM     14  N   UNL     1      -6.371  -3.191  21.620  0.00  0.00    +0.000 NA
ATOM     15  C   UNL     1      -5.636  -4.127  21.004  0.00  0.00    +0.000 A 
ATOM     16  N   UNL     1      -4.276  -4.229  21.008  0.00  0.00    +0.000 N 
ATOM     17  C   UNL     1      -3.942  -5.315  20.248  0.00  0.00    +0.000 A 
ATOM     18  N   UNL     1      -5.004  -5.913  19.755  0.00  0.00    +0.000 NA
ATOM     19  C   UNL     1      -6.080  -5.175  20.216  0.00  0.00    +0.000 A 
ATOM     20  H   UNL     1      -8.359  -2.657  21.834  0.00  0.00    +0.000 HD
ATOM     21  H   UNL     1      -3.646  -3.600  21.478  0.00  0.00    +0.000 HD
ATOM     22  H   UNL     1      -2.916  -5.616  20.083  0.00  0.00    +0.000 HD
ENDBRANCH   4  11
BRANCH   1  23
ATOM     23  C   UNL     1     -10.135  -9.186  16.610  0.00  0.00    +0.000 C 
ATOM     24  H   UNL     1     -10.595  -9.905  17.300  0.00  0.00    +0.000 HD
BRANCH  23  25
ATOM     25  N   UNL     1     -11.229  -8.560  15.842  0.00  0.00    +0.000 NA
ATOM     26  H   UNL     1     -10.842  -7.804  15.277  0.00  0.00    +0.000 HD
ATOM     27  H   UNL     1     -11.873  -8.118  16.497  0.00  0.00    +0.000 HD
ENDBRANCH  23  25
BRANCH  23  28
ATOM     28  C   UNL     1      -9.178  -9.946  15.648  0.00  0.00    +0.000 C 
ATOM     29  H   UNL     1      -8.196  -9.462  15.612  0.00  0.00    +0.000 HD
ATOM     30  H   UNL     1      -9.574  -9.899  14.625  0.00  0.00    +0.000 HD
BRANCH  28  31
ATOM     31  C   UNL     1      -8.895 -11.380  16.030  0.00  0.00    +0.000 A 
ATOM     32  C   UNL     1      -8.829 -11.758  17.378  0.00  0.00    +0.000 A 
ATOM     33  C   UNL     1      -8.616 -13.092  17.722  0.00  0.00    +0.000 A 
ATOM     34  C   UNL     1      -8.467 -14.057  16.728  0.00  0.00    +0.000 A 
ATOM     35  C   UNL     1      -8.528 -13.690  15.386  0.00  0.00    +0.000 A 
ATOM     36  C   UNL     1      -8.743 -12.358  15.037  0.00  0.00    +0.000 A 
ATOM     37  H   UNL     1      -8.955 -11.018  18.165  0.00  0.00    +0.000 HD
ATOM     38  H   UNL     1      -8.574 -13.380  18.770  0.00  0.00    +0.000 HD
ATOM     39  H   UNL     1      -8.310 -15.097  16.999  0.00  0.00    +0.000 HD
ATOM     40  H   UNL     1      -8.418 -14.441  14.609  0.00  0.00    +0.000 HD
ATOM     41  H   UNL     1      -8.805 -12.089  13.984  0.00  0.00    +0.000 HD
ENDBRANCH  28  31
ENDBRANCH  23  28
ENDBRANCH   1  23
TORSDOF 5
ENDMDL
MODEL 4
REMARK VINA RESULT:   -11.112      0.788      2.419
REMARK INTER + INTRA:         -14.798
REMARK INTER:                 -14.036
REMARK INTRA:                  -0.762
REMARK UNBOUND:                -0.762
REMARK  Name = 
REMARK  5 active torsions:
REMARK  status: ('A' for Active; 'I' for Inactive)
REMARK    1  A    between atoms: N_1  and  C_2
REMARK    2  A    between atoms: C_2  and  C_3
REMARK    3  A    between atoms: C_2  and  C_10
REMARK    4  A    between atoms: C_3  and  C_4
REMARK    5  A    between atoms: C_13  and  C_14
REMARK                            x       y       z     vdW  Elec       q    Type
REMARK                         _______ _______ _______ _____ _____    ______ ____
ROOT
ATOM      1  C   UNL     1      -9.241  -8.603  17.253  0.00  0.00    +0.000 A 
ATOM      2  C   UNL     1      -9.177  -8.757  18.648  0.00  0.00    +0.000 A 
ATOM      3  C   UNL     1      -8.620  -7.766  19.463  0.00  0.00    +0.000 A 
ATOM      4  C   UNL     1      -8.099  -6.584  18.920  0.00  0.00    +0.000 A 
ATOM      5  C   UNL     1      -8.111  -6.459  17.525  0.00  0.00    +0.000 A 
ATOM      6  C   UNL     1      -8.666  -7.447  16.708  0.00  0.00    +0.000 A 
ATOM      7  H   UNL     1      -9.575  -9.654  19.120  0.00  0.00    +0.000 HD
ATOM      8  H   UNL     1      -8.616  -7.917  20.542  0.00  0.00    +0.000 HD
ATOM      9  H   UNL     1      -7.690  -5.577  17.045  0.00  0.00    +0.000 HD
ATOM     10  H   UNL     1      -8.631  -7.271  15.637  0.00  0.00    +0.000 HD
ENDROOT
BRANCH   4  11
ATOM     11  C   UNL     1      -7.591  -5.519  19.787  0.00  0.00    +0.000 A 
ATOM     12  N   UNL     1      -8.477  -4.624  20.320  0.00  0.00    +0.000 NA
ATOM     13  C   UNL     1      -7.992  -3.616  21.073  0.00  0.00    +0.000 A 
ATOM     14  N   UNL     1      -6.708  -3.344  21.374  0.00  0.00    +0.000 NA
ATOM     15  C   UNL     1      -5.886  -4.244  20.818  0.00  0.00    +0.000 A 
ATOM     16  N   UNL     1      -4.524  -4.258  20.888  0.00  0.00    +0.000 N 
ATOM     17  C   UNL     1      -4.085  -5.337  20.172  0.00  0.00    +0.000 A 
ATOM     18  N   UNL     1      -5.082  -6.013  19.646  0.00  0.00    +0.000 NA
ATOM     19  C   UNL     1      -6.225  -5.336  20.037  0.00  0.00    +0.000 A 
ATOM     20  H   UNL     1      -8.733  -2.935  21.482  0.00  0.00    +0.000 HD
ATOM     21  H   UNL     1      -3.959  -3.579  21.369  0.00  0.00    +0.000 HD
ATOM     22  H   UNL     1      -3.036  -5.575  20.063  0.00  0.00    +0.000 HD
ENDBRANCH   4  11
BRANCH   1  23
ATOM     23  C   UNL     1      -9.841  -9.702  16.377  0.00  0.00    +0.000 C 
ATOM     24  H   UNL     1     -10.411 -10.350  17.056  0.00  0.00    +0.000 HD
BRANCH  23  25
ATOM     25  N   UNL     1     -10.800  -9.141  15.405  0.00  0.00    +0.000 NA
ATOM     26  H   UNL     1     -11.741  -9.219  15.791  0.00  0.00    +0.000 HD
ATOM     27  H   UNL     1     -10.791  -9.723  14.569  0.00  0.00    +0.000 HD
ENDBRANCH  23  25
BRANCH  23  28
ATOM     28  C   UNL     1      -8.773 -10.556  15.638  0.00  0.00    +0.000 C 
ATOM     29  H   UNL     1      -7.761 -10.207  15.874  0.00  0.00    +0.000 HD
ATOM     30  H   UNL     1      -8.889 -10.429  14.553  0.00  0.00    +0.000 HD
BRANCH  28  31
ATOM     31  C   UNL     1      -8.773 -12.026  15.991  0.00  0.00    +0.000 A 
ATOM     32  C   UNL     1      -8.752 -12.999  14.984  0.00  0.00    +0.000 A 
ATOM     33  C   UNL     1      -8.702 -14.352  15.317  0.00  0.00    +0.000 A 
ATOM     34  C   UNL     1      -8.673 -14.743  16.654  0.00  0.00    +0.000 A 
ATOM     35  C   UNL     1      -8.697 -13.782  17.662  0.00  0.00    +0.000 A 
ATOM     36  C   UNL     1      -8.745 -12.429  17.333  0.00  0.00    +0.000 A 
ATOM     37  H   UNL     1      -8.762 -12.710  13.935  0.00  0.00    +0.000 HD
ATOM     38  H   UNL     1      -8.677 -15.103  14.530  0.00  0.00    +0.000 HD
ATOM     39  H   UNL     1      -8.626 -15.797  16.912  0.00  0.00    +0.000 HD
ATOM     40  H   UNL     1      -8.669 -14.084  18.706  0.00  0.00    +0.000 HD
ATOM     41  H   UNL     1      -8.746 -11.689  18.132  0.00  0.00    +0.000 HD
ENDBRANCH  28  31
ENDBRANCH  23  28
ENDBRANCH   1  23
TORSDOF 5
ENDMDL
MODEL 5
REMARK VINA RESULT:   -10.941      1.735      2.536
REMARK INTER + INTRA:         -14.581
REMARK INTER:                 -13.884
REMARK INTRA:                  -0.697
REMARK UNBOUND:                -0.762
REMARK  Name = 
REMARK  5 active torsions:
REMARK  status: ('A' for Active; 'I' for Inactive)
REMARK    1  A    between atoms: N_1  and  C_2
REMARK    2  A    between atoms: C_2  and  C_3
REMARK    3  A    between atoms: C_2  and  C_10
REMARK    4  A    between atoms: C_3  and  C_4
REMARK    5  A    between atoms: C_13  and  C_14
REMARK                            x       y       z     vdW  Elec       q    Type
REMARK                         _______ _______ _______ _____ _____    ______ ____
ROOT
ATOM      1  C   UNL     1      -9.198  -9.016  16.161  0.00  0.00    +0.000 A 
ATOM      2  C   UNL     1      -9.221  -9.190  17.554  0.00  0.00    +0.000 A 
ATOM      3  C   UNL     1      -8.921  -8.137  18.425  0.00  0.00    +0.000 A 
ATOM      4  C   UNL     1      -8.580  -6.867  17.939  0.00  0.00    +0.000 A 
ATOM      5  C   UNL     1      -8.501  -6.711  16.550  0.00  0.00    +0.000 A 
ATOM      6  C   UNL     1      -8.799  -7.762  15.678  0.00  0.00    +0.000 A 
ATOM      7  H   UNL     1      -9.487 -10.156  17.982  0.00  0.00    +0.000 HD
ATOM      8  H   UNL     1      -8.977  -8.312  19.498  0.00  0.00    +0.000 HD
ATOM      9  H   UNL     1      -8.209  -5.755  16.116  0.00  0.00    +0.000 HD
ATOM     10  H   UNL     1      -8.710  -7.554  14.616  0.00  0.00    +0.000 HD
ENDROOT
BRANCH   4  11
ATOM     11  C   UNL     1      -8.346  -5.751  18.857  0.00  0.00    +0.000 A 
ATOM     12  N   UNL     1      -7.279  -5.812  19.710  0.00  0.00    +0.000 NA
ATOM     13  C   UNL     1      -7.103  -4.803  20.588  0.00  0.00    +0.000 A 
ATOM     14  N   UNL     1      -7.868  -3.708  20.763  0.00  0.00    +0.000 NA
ATOM     15  C   UNL     1      -8.902  -3.707  19.911  0.00  0.00    +0.000 A 
ATOM     16  N   UNL     1      -9.892  -2.772  19.830  0.00  0.00    +0.000 N 
ATOM     17  C   UNL     1     -10.747  -3.162  18.838  0.00  0.00    +0.000 A 
ATOM     18  N   UNL     1     -10.369  -4.290  18.281  0.00  0.00    +0.000 NA
ATOM     19  C   UNL     1      -9.211  -4.652  18.947  0.00  0.00    +0.000 A 
ATOM     20  H   UNL     1      -6.238  -4.891  21.240  0.00  0.00    +0.000 HD
ATOM     21  H   UNL     1      -9.971  -1.957  20.415  0.00  0.00    +0.000 HD
ATOM     22  H   UNL     1     -11.628  -2.592  18.573  0.00  0.00    +0.000 HD
ENDBRANCH   4  11
BRANCH   1  23
ATOM     23  C   UNL     1      -9.516 -10.182  15.226  0.00  0.00    +0.000 C 
ATOM     24  H   UNL     1     -10.363 -10.711  15.682  0.00  0.00    +0.000 HD
BRANCH  23  25
ATOM     25  N   UNL     1      -9.966  -9.696  13.907  0.00  0.00    +0.000 NA
ATOM     26  H   UNL     1     -10.972  -9.851  13.827  0.00  0.00    +0.000 HD
ATOM     27  H   UNL     1      -9.536 -10.272  13.186  0.00  0.00    +0.000 HD
ENDBRANCH  23  25
BRANCH  23  28
ATOM     28  C   UNL     1      -8.333 -11.175  15.051  0.00  0.00    +0.000 C 
ATOM     29  H   UNL     1      -7.409 -10.760  15.470  0.00  0.00    +0.000 HD
ATOM     30  H   UNL     1      -8.136 -11.325  13.981  0.00  0.00    +0.000 HD
BRANCH  28  31
ATOM     31  C   UNL     1      -8.510 -12.509  15.739  0.00  0.00    +0.000 A 
ATOM     32  C   UNL     1      -8.539 -12.589  17.138  0.00  0.00    +0.000 A 
ATOM     33  C   UNL     1      -8.752 -13.816  17.765  0.00  0.00    +0.000 A 
ATOM     34  C   UNL     1      -8.937 -14.968  17.004  0.00  0.00    +0.000 A 
ATOM     35  C   UNL     1      -8.906 -14.898  15.614  0.00  0.00    +0.000 A 
ATOM     36  C   UNL     1      -8.696 -13.674  14.982  0.00  0.00    +0.000 A 
ATOM     37  H   UNL     1      -8.408 -11.696  17.745  0.00  0.00    +0.000 HD
ATOM     38  H   UNL     1      -8.782 -13.870  18.851  0.00  0.00    +0.000 HD
ATOM     39  H   UNL     1      -9.111 -15.922  17.495  0.00  0.00    +0.000 HD
ATOM     40  H   UNL     1      -9.055 -15.794  15.018  0.00  0.00    +0.000 HD
ATOM     41  H   UNL     1      -8.692 -13.632  13.895  0.00  0.00    +0.000 HD
ENDBRANCH  28  31
ENDBRANCH  23  28
ENDBRANCH   1  23
TORSDOF 5
ENDMDL
MODEL 6
REMARK VINA RESULT:   -10.483      1.068      1.657
REMARK INTER + INTRA:         -14.002
REMARK INTER:                 -13.425
REMARK INTRA:                  -0.577
REMARK UNBOUND:                -0.762
REMARK  Name = 
REMARK  5 active torsions:
REMARK  status: ('A' for Active; 'I' for Inactive)
REMARK    1  A    between atoms: N_1  and  C_2
REMARK    2  A    between atoms: C_2  and  C_3
REMARK    3  A    between atoms: C_2  and  C_10
REMARK    4  A    between atoms: C_3  and  C_4
REMARK    5  A    between atoms: C_13  and  C_14
REMARK                            x       y       z     vdW  Elec       q    Type
REMARK                         _______ _______ _______ _____ _____    ______ ____
ROOT
ATOM      1  C   UNL     1      -9.398  -7.444  17.858  0.00  0.00    +0.000 A 
ATOM      2  C   UNL     1      -9.454  -6.070  17.569  0.00  0.00    +0.000 A 
ATOM      3  C   UNL     1      -8.860  -5.125  18.413  0.00  0.00    +0.000 A 
ATOM      4  C   UNL     1      -8.189  -5.512  19.581  0.00  0.00    +0.000 A 
ATOM      5  C   UNL     1      -8.185  -6.877  19.896  0.00  0.00    +0.000 A 
ATOM      6  C   UNL     1      -8.779  -7.823  19.057  0.00  0.00    +0.000 A 
ATOM      7  H   UNL     1      -9.957  -5.718  16.670  0.00  0.00    +0.000 HD
ATOM      8  H   UNL     1      -8.905  -4.073  18.135  0.00  0.00    +0.000 HD
ATOM      9  H   UNL     1      -7.708  -7.233  20.808  0.00  0.00    +0.000 HD
ATOM     10  H   UNL     1      -8.732  -8.858  19.378  0.00  0.00    +0.000 HD
ENDROOT
BRANCH   4  11
ATOM     11  C   UNL     1      -7.502  -4.524  20.414  0.00  0.00    +0.000 A 
ATOM     12  N   UNL     1      -6.251  -4.814  20.884  0.00  0.00    +0.000 NA
ATOM     13  C   UNL     1      -5.650  -3.920  21.695  0.00  0.00    +0.000 A 
ATOM     14  N   UNL     1      -6.130  -2.742  22.139  0.00  0.00    +0.000 NA
ATOM     15  C   UNL     1      -7.360  -2.517  21.657  0.00  0.00    +0.000 A 
ATOM     16  N   UNL     1      -8.156  -1.441  21.924  0.00  0.00    +0.000 N 
ATOM     17  C   UNL     1      -9.327  -1.616  21.240  0.00  0.00    +0.000 A 
ATOM     18  N   UNL     1      -9.331  -2.737  20.554  0.00  0.00    +0.000 NA
ATOM     19  C   UNL     1      -8.102  -3.321  20.809  0.00  0.00    +0.000 A 
ATOM     20  H   UNL     1      -4.654  -4.189  22.038  0.00  0.00    +0.000 HD
ATOM     21  H   UNL     1      -7.915  -0.676  22.531  0.00  0.00    +0.000 HD
ATOM     22  H   UNL     1     -10.138  -0.901  21.286  0.00  0.00    +0.000 HD
ENDBRANCH   4  11
BRANCH   1  23
ATOM     23  C   UNL     1     -10.065  -8.459  16.931  0.00  0.00    +0.000 C 
ATOM     24  H   UNL     1     -10.498  -9.226  17.587  0.00  0.00    +0.000 HD
BRANCH  23  25
ATOM     25  N   UNL     1     -11.181  -7.844  16.187  0.00  0.00    +0.000 NA
ATOM     26  H   UNL     1     -10.819  -7.456  15.315  0.00  0.00    +0.000 HD
ATOM     27  H   UNL     1     -11.529  -7.050  16.723  0.00  0.00    +0.000 HD
ENDBRANCH  23  25
BRANCH  23  28
ATOM     28  C   UNL     1      -9.077  -9.137  15.942  0.00  0.00    +0.000 C 
ATOM     29  H   UNL     1      -8.072  -8.710  16.038  0.00  0.00    +0.000 HD
ATOM     30  H   UNL     1      -9.392  -8.931  14.910  0.00  0.00    +0.000 HD
BRANCH  28  31
ATOM     31  C   UNL     1      -8.891 -10.624  16.141  0.00  0.00    +0.000 A 
ATOM     32  C   UNL     1      -8.717 -11.473  15.040  0.00  0.00    +0.000 A 
ATOM     33  C   UNL     1      -8.497 -12.836  15.235  0.00  0.00    +0.000 A 
ATOM     34  C   UNL     1      -8.449 -13.361  16.524  0.00  0.00    +0.000 A 
ATOM     35  C   UNL     1      -8.623 -12.524  17.624  0.00  0.00    +0.000 A 
ATOM     36  C   UNL     1      -8.841 -11.161  17.435  0.00  0.00    +0.000 A 
ATOM     37  H   UNL     1      -8.741 -11.076  14.028  0.00  0.00    +0.000 HD
ATOM     38  H   UNL     1      -8.355 -13.488  14.376  0.00  0.00    +0.000 HD
ATOM     39  H   UNL     1      -8.269 -14.422  16.674  0.00  0.00    +0.000 HD
ATOM     40  H   UNL     1      -8.581 -12.930  18.631  0.00  0.00    +0.000 HD
ATOM     41  H   UNL     1      -8.959 -10.517  18.305  0.00  0.00    +0.000 HD
ENDBRANCH  28  31
ENDBRANCH  23  28
ENDBRANCH   1  23
TORSDOF 5
ENDMDL
MODEL 7
REMARK VINA RESULT:   -10.380      1.172      1.687
REMARK INTER + INTRA:         -13.873
REMARK INTER:                 -13.471
REMARK INTRA:                  -0.402
REMARK UNBOUND:                -0.762
REMARK  Name = 
REMARK  5 active torsions:
REMARK  status: ('A' for Active; 'I' for Inactive)
REMARK    1  A    between atoms: N_1  and  C_2
REMARK    2  A    between atoms: C_2  and  C_3
REMARK    3  A    between atoms: C_2  and  C_10
REMARK    4  A    between atoms: C_3  and  C_4
REMARK    5  A    between atoms: C_13  and  C_14
REMARK                            x       y       z     vdW  Elec       q    Type
REMARK                         _______ _______ _______ _____ _____    ______ ____
ROOT
ATOM      1  C   UNL     1      -9.579  -7.424  17.842  0.00  0.00    +0.000 A 
ATOM      2  C   UNL     1      -8.686  -7.786  18.864  0.00  0.00    +0.000 A 
ATOM      3  C   UNL     1      -8.056  -6.820  19.656  0.00  0.00    +0.000 A 
ATOM      4  C   UNL     1      -8.288  -5.452  19.457  0.00  0.00    +0.000 A 
ATOM      5  C   UNL     1      -9.132  -5.092  18.399  0.00  0.00    +0.000 A 
ATOM      6  C   UNL     1      -9.762  -6.055  17.606  0.00  0.00    +0.000 A 
ATOM      7  H   UNL     1      -8.478  -8.836  19.064  0.00  0.00    +0.000 HD
ATOM      8  H   UNL     1      -7.392  -7.148  20.454  0.00  0.00    +0.000 HD
ATOM      9  H   UNL     1      -9.324  -4.043  18.176  0.00  0.00    +0.000 HD
ATOM     10  H   UNL     1     -10.399  -5.688  16.807  0.00  0.00    +0.000 HD
ENDROOT
BRANCH   4  11
ATOM     11  C   UNL     1      -7.687  -4.452  20.340  0.00  0.00    +0.000 A 
ATOM     12  N   UNL     1      -6.527  -4.763  20.994  0.00  0.00    +0.000 NA
ATOM     13  C   UNL     1      -6.011  -3.855  21.848  0.00  0.00    +0.000 A 
ATOM     14  N   UNL     1      -6.502  -2.644  22.173  0.00  0.00    +0.000 NA
ATOM     15  C   UNL     1      -7.642  -2.398  21.513  0.00  0.00    +0.000 A 
ATOM     16  N   UNL     1      -8.425  -1.286  21.622  0.00  0.00    +0.000 N 
ATOM     17  C   UNL     1      -9.494  -1.451  20.786  0.00  0.00    +0.000 A 
ATOM     18  N   UNL     1      -9.445  -2.600  20.151  0.00  0.00    +0.000 NA
ATOM     19  C   UNL     1      -8.289  -3.214  20.600  0.00  0.00    +0.000 A 
ATOM     20  H   UNL     1      -5.085  -4.142  22.338  0.00  0.00    +0.000 HD
ATOM     21  H   UNL     1      -8.242  -0.503  22.227  0.00  0.00    +0.000 HD
ATOM     22  H   UNL     1     -10.275  -0.709  20.688  0.00  0.00    +0.000 HD
ENDBRANCH   4  11
BRANCH   1  23
ATOM     23  C   UNL     1     -10.247  -8.494  16.979  0.00  0.00    +0.000 C 
ATOM     24  H   UNL     1     -10.630  -9.248  17.678  0.00  0.00    +0.000 HD
BRANCH  23  25
ATOM     25  N   UNL     1     -11.408  -7.941  16.255  0.00  0.00    +0.000 NA
ATOM     26  H   UNL     1     -11.808  -7.182  16.809  0.00  0.00    +0.000 HD
ATOM     27  H   UNL     1     -12.129  -8.659  16.204  0.00  0.00    +0.000 HD
ENDBRANCH  23  25
BRANCH  23  28
ATOM     28  C   UNL     1      -9.274  -9.177  15.978  0.00  0.00    +0.000 C 
ATOM     29  H   UNL     1      -8.299  -8.676  15.976  0.00  0.00    +0.000 HD
ATOM     30  H   UNL     1      -9.666  -9.074  14.957  0.00  0.00    +0.000 HD
BRANCH  28  31
ATOM     31  C   UNL     1      -8.968 -10.628  16.273  0.00  0.00    +0.000 A 
ATOM     32  C   UNL     1      -8.989 -11.105  17.590  0.00  0.00    +0.000 A 
ATOM     33  C   UNL     1      -8.754 -12.455  17.850  0.00  0.00    +0.000 A 
ATOM     34  C   UNL     1      -8.497 -13.336  16.801  0.00  0.00    +0.000 A 
ATOM     35  C   UNL     1      -8.471 -12.868  15.490  0.00  0.00    +0.000 A 
ATOM     36  C   UNL     1      -8.707 -11.521  15.225  0.00  0.00    +0.000 A 
ATOM     37  H   UNL     1      -9.200 -10.433  18.418  0.00  0.00    +0.000 HD
ATOM     38  H   UNL     1      -8.781 -12.821  18.874  0.00  0.00    +0.000 HD
ATOM     39  H   UNL     1      -8.323 -14.388  17.005  0.00  0.00    +0.000 HD
ATOM     40  H   UNL     1      -8.275 -13.554  14.669  0.00  0.00    +0.000 HD
ATOM     41  H   UNL     1      -8.700 -11.175  14.193  0.00  0.00    +0.000 HD
ENDBRANCH  28  31
ENDBRANCH  23  28
ENDBRANCH   1  23
TORSDOF 5
ENDMDL
MODEL 8
REMARK VINA RESULT:    -9.871      2.116      3.067
REMARK INTER + INTRA:         -13.230
REMARK INTER:                 -13.009
REMARK INTRA:                  -0.221
REMARK UNBOUND:                -0.762
REMARK  Name = 
REMARK  5 active torsions:
REMARK  status: ('A' for Active; 'I' for Inactive)
REMARK    1  A    between atoms: N_1  and  C_2
REMARK    2  A    between atoms: C_2  and  C_3
REMARK    3  A    between atoms: C_2  and  C_10
REMARK    4  A    between atoms: C_3  and  C_4
REMARK    5  A    between atoms: C_13  and  C_14
REMARK                            x       y       z     vdW  Elec       q    Type
REMARK                         _______ _______ _______ _____ _____    ______ ____
ROOT
ATOM      1  C   UNL     1      -8.827  -7.683  18.918  0.00  0.00    +0.000 A 
ATOM      2  C   UNL     1      -7.812  -6.918  19.516  0.00  0.00    +0.000 A 
ATOM      3  C   UNL     1      -7.917  -5.527  19.623  0.00  0.00    +0.000 A 
ATOM      4  C   UNL     1      -9.037  -4.841  19.135  0.00  0.00    +0.000 A 
ATOM      5  C   UNL     1     -10.020  -5.599  18.486  0.00  0.00    +0.000 A 
ATOM      6  C   UNL     1      -9.918  -6.988  18.376  0.00  0.00    +0.000 A 
ATOM      7  H   UNL     1      -6.925  -7.404  19.919  0.00  0.00    +0.000 HD
ATOM      8  H   UNL     1      -7.117  -4.979  20.119  0.00  0.00    +0.000 HD
ATOM      9  H   UNL     1     -10.897  -5.116  18.057  0.00  0.00    +0.000 HD
ATOM     10  H   UNL     1     -10.724  -7.497  17.857  0.00  0.00    +0.000 HD
ENDROOT
BRANCH   4  11
ATOM     11  C   UNL     1      -9.174  -3.396  19.323  0.00  0.00    +0.000 A 
ATOM     12  N   UNL     1      -9.677  -2.643  18.300  0.00  0.00    +0.000 NA
ATOM     13  C   UNL     1      -9.749  -1.307  18.464  0.00  0.00    +0.000 A 
ATOM     14  N   UNL     1      -9.364  -0.576  19.529  0.00  0.00    +0.000 NA
ATOM     15  C   UNL     1      -8.870  -1.364  20.494  0.00  0.00    +0.000 A 
ATOM     16  N   UNL     1      -8.360  -0.961  21.693  0.00  0.00    +0.000 N 
ATOM     17  C   UNL     1      -7.956  -2.080  22.366  0.00  0.00    +0.000 A 
ATOM     18  N   UNL     1      -8.173  -3.174  21.670  0.00  0.00    +0.000 NA
ATOM     19  C   UNL     1      -8.743  -2.742  20.485  0.00  0.00    +0.000 A 
ATOM     20  H   UNL     1     -10.163  -0.750  17.628  0.00  0.00    +0.000 HD
ATOM     21  H   UNL     1      -8.286  -0.007  22.004  0.00  0.00    +0.000 HD
ATOM     22  H   UNL     1      -7.507  -2.038  23.349  0.00  0.00    +0.000 HD
ENDBRANCH   4  11
BRANCH   1  23
ATOM     23  C   UNL     1      -8.689  -9.199  18.797  0.00  0.00    +0.000 C 
ATOM     24  H   UNL     1      -7.654  -9.383  18.481  0.00  0.00    +0.000 HD
BRANCH  23  25
ATOM     25  N   UNL     1      -8.865  -9.853  20.109  0.00  0.00    +0.000 NA
ATOM     26  H   UNL     1      -9.631 -10.523  20.041  0.00  0.00    +0.000 HD
ATOM     27  H   UNL     1      -9.167  -9.151  20.782  0.00  0.00    +0.000 HD
ENDBRANCH  23  25
BRANCH  23  28
ATOM     28  C   UNL     1      -9.657  -9.828  17.756  0.00  0.00    +0.000 C 
ATOM     29  H   UNL     1      -9.887  -9.116  16.955  0.00  0.00    +0.000 HD
ATOM     30  H   UNL     1     -10.618 -10.055  18.240  0.00  0.00    +0.000 HD
BRANCH  28  31
ATOM     31  C   UNL     1      -9.128 -11.055  17.050  0.00  0.00    +0.000 A 
ATOM     32  C   UNL     1      -8.890 -12.238  17.763  0.00  0.00    +0.000 A 
ATOM     33  C   UNL     1      -8.448 -13.380  17.096  0.00  0.00    +0.000 A 
ATOM     34  C   UNL     1      -8.242 -13.352  15.719  0.00  0.00    +0.000 A 
ATOM     35  C   UNL     1      -8.474 -12.179  15.004  0.00  0.00    +0.000 A 
ATOM     36  C   UNL     1      -8.917 -11.036  15.665  0.00  0.00    +0.000 A 
ATOM     37  H   UNL     1      -9.057 -12.280  18.837  0.00  0.00    +0.000 HD
ATOM     38  H   UNL     1      -8.273 -14.298  17.654  0.00  0.00    +0.000 HD
ATOM     39  H   UNL     1      -7.906 -14.246  15.200  0.00  0.00    +0.000 HD
ATOM     40  H   UNL     1      -8.318 -12.156  13.928  0.00  0.00    +0.000 HD
ATOM     41  H   UNL     1      -9.109 -10.132  15.090  0.00  0.00    +0.000 HD
ENDBRANCH  28  31
ENDBRANCH  23  28
ENDBRANCH   1  23
TORSDOF 5
ENDMDL
MODEL 9
REMARK VINA RESULT:    -9.837      1.654      2.564
REMARK INTER + INTRA:         -13.186
REMARK INTER:                 -12.641
REMARK INTRA:                  -0.545
REMARK UNBOUND:                -0.762
REMARK  Name = 
REMARK  5 active torsions:
REMARK  status: ('A' for Active; 'I' for Inactive)
REMARK    1  A    between atoms: N_1  and  C_2
REMARK    2  A    between atoms: C_2  and  C_3
REMARK    3  A    between atoms: C_2  and  C_10
REMARK    4  A    between atoms: C_3  and  C_4
REMARK    5  A    between atoms: C_13  and  C_14
REMARK                            x       y       z     vdW  Elec       q    Type
REMARK                         _______ _______ _______ _____ _____    ______ ____
ROOT
ATOM      1  C   UNL     1     -10.064  -7.554  17.395  0.00  0.00    +0.000 A 
ATOM      2  C   UNL     1     -11.122  -6.709  17.772  0.00  0.00    +0.000 A 
ATOM      3  C   UNL     1     -10.885  -5.488  18.412  0.00  0.00    +0.000 A 
ATOM      4  C   UNL     1      -9.583  -5.061  18.707  0.00  0.00    +0.000 A 
ATOM      5  C   UNL     1      -8.534  -5.931  18.384  0.00  0.00    +0.000 A 
ATOM      6  C   UNL     1      -8.767  -7.152  17.745  0.00  0.00    +0.000 A 
ATOM      7  H   UNL     1     -12.152  -6.992  17.558  0.00  0.00    +0.000 HD
ATOM      8  H   UNL     1     -11.735  -4.854  18.661  0.00  0.00    +0.000 HD
ATOM      9  H   UNL     1      -7.504  -5.667  18.619  0.00  0.00    +0.000 HD
ATOM     10  H   UNL     1      -7.897  -7.765  17.533  0.00  0.00    +0.000 HD
ENDROOT
BRANCH   4  11
ATOM     11  C   UNL     1      -9.342  -3.747  19.304  0.00  0.00    +0.000 A 
ATOM     12  N   UNL     1      -9.927  -2.648  18.740  0.00  0.00    +0.000 NA
ATOM     13  C   UNL     1      -9.654  -1.437  19.265  0.00  0.00    +0.000 A 
ATOM     14  N   UNL     1      -8.843  -1.140  20.298  0.00  0.00    +0.000 NA
ATOM     15  C   UNL     1      -8.289  -2.251  20.804  0.00  0.00    +0.000 A 
ATOM     16  N   UNL     1      -7.395  -2.321  21.832  0.00  0.00    +0.000 N 
ATOM     17  C   UNL     1      -7.080  -3.638  22.015  0.00  0.00    +0.000 A 
ATOM     18  N   UNL     1      -7.715  -4.416  21.166  0.00  0.00    +0.000 NA
ATOM     19  C   UNL     1      -8.477  -3.559  20.391  0.00  0.00    +0.000 A 
ATOM     20  H   UNL     1     -10.148  -0.594  18.789  0.00  0.00    +0.000 HD
ATOM     21  H   UNL     1      -7.031  -1.533  22.342  0.00  0.00    +0.000 HD
ATOM     22  H   UNL     1      -6.381  -3.970  22.771  0.00  0.00    +0.000 HD
ENDBRANCH   4  11
BRANCH   1  23
ATOM     23  C   UNL     1     -10.343  -8.890  16.709  0.00  0.00    +0.000 C 
ATOM     24  H   UNL     1     -10.652  -9.578  17.506  0.00  0.00    +0.000 HD
BRANCH  23  25
ATOM     25  N   UNL     1     -11.475  -8.776  15.769  0.00  0.00    +0.000 NA
ATOM     26  H   UNL     1     -12.339  -8.685  16.306  0.00  0.00    +0.000 HD
ATOM     27  H   UNL     1     -11.558  -9.651  15.254  0.00  0.00    +0.000 HD
ENDBRANCH  23  25
BRANCH  23  28
ATOM     28  C   UNL     1      -9.104  -9.481  15.979  0.00  0.00    +0.000 C 
ATOM     29  H   UNL     1      -8.186  -8.972  16.293  0.00  0.00    +0.000 HD
ATOM     30  H   UNL     1      -9.194  -9.300  14.899  0.00  0.00    +0.000 HD
BRANCH  28  31
ATOM     31  C   UNL     1      -8.848 -10.948  16.241  0.00  0.00    +0.000 A 
ATOM     32  C   UNL     1      -8.841 -11.446  17.550  0.00  0.00    +0.000 A 
ATOM     33  C   UNL     1      -8.653 -12.808  17.780  0.00  0.00    +0.000 A 
ATOM     34  C   UNL     1      -8.471 -13.681  16.710  0.00  0.00    +0.000 A 
ATOM     35  C   UNL     1      -8.474 -13.193  15.405  0.00  0.00    +0.000 A 
ATOM     36  C   UNL     1      -8.664 -11.833  15.170  0.00  0.00    +0.000 A 
ATOM     37  H   UNL     1      -8.993 -10.779  18.396  0.00  0.00    +0.000 HD
ATOM     38  H   UNL     1      -8.656 -13.190  18.799  0.00  0.00    +0.000 HD
ATOM     39  H   UNL     1      -8.333 -14.743  16.891  0.00  0.00    +0.000 HD
ATOM     40  H   UNL     1      -8.338 -13.873  14.568  0.00  0.00    +0.000 HD
ATOM     41  H   UNL     1      -8.680 -11.470  14.144  0.00  0.00    +0.000 HD
ENDBRANCH  28  31
ENDBRANCH  23  28
ENDBRANCH   1  23
TORSDOF 5
ENDMDL
