MODEL 1
REMARK VINA RESULT:    -9.391      0.000      0.000
REMARK INTER + INTRA:         -10.441
REMARK INTER:                 -10.489
REMARK INTRA:                   0.048
REMARK UNBOUND:                 0.048
REMARK  Name = 
REMARK  2 active torsions:
REMARK  status: ('A' for Active; 'I' for Inactive)
REMARK    1  A    between atoms: S_2  and  C_4
REMARK    2  A    between atoms: S_2  and  N_14
REMARK                            x       y       z     vdW  Elec       q    Type
REMARK                         _______ _______ _______ _____ _____    ______ ____
ROOT
ATOM      1  O   UNL     1      -8.803  -8.876  14.778  0.00  0.00    +0.000 OA
ATOM      2  S   UNL     1      -9.634  -8.994  15.962  0.00  0.00    +0.000 S 
ATOM      3  O   UNL     1     -11.054  -9.243  15.833  0.00  0.00    +0.000 OA
ENDROOT
BRANCH   2   4
ATOM      4  C   UNL     1      -8.946 -10.319  16.936  0.00  0.00    +0.000 A 
ATOM      5  C   UNL     1      -8.701 -10.019  18.291  0.00  0.00    +0.000 A 
ATOM      6  C   UNL     1      -8.415 -11.033  19.199  0.00  0.00    +0.000 A 
ATOM      7  C   UNL     1      -8.357 -12.350  18.760  0.00  0.00    +0.000 A 
ATOM      8  C   UNL     1      -8.533 -12.662  17.401  0.00  0.00    +0.000 A 
ATOM      9  C   UNL     1      -8.425 -13.979  16.958  0.00  0.00    +0.000 A 
ATOM     10  N   UNL     1      -8.542 -14.370  15.671  0.00  0.00    +0.000 NA
ATOM     11  C   UNL     1      -8.811 -13.401  14.778  0.00  0.00    +0.000 A 
ATOM     12  C   UNL     1      -8.976 -12.063  15.111  0.00  0.00    +0.000 A 
ATOM     13  C   UNL     1      -8.828 -11.650  16.452  0.00  0.00    +0.000 A 
ATOM     14  H   UNL     1      -8.784  -8.999  18.665  0.00  0.00    +0.000 HD
ATOM     15  H   UNL     1      -8.272 -10.801  20.252  0.00  0.00    +0.000 HD
ATOM     16  H   UNL     1      -8.177 -13.139  19.489  0.00  0.00    +0.000 HD
ATOM     17  H   UNL     1      -8.225 -14.792  17.651  0.00  0.00    +0.000 HD
ATOM     18  H   UNL     1      -8.890 -13.733  13.747  0.00  0.00    +0.000 HD
ATOM     19  H   UNL     1      -9.199 -11.365  14.311  0.00  0.00    +0.000 HD
ENDBRANCH   2   4
BRANCH   2  20
ATOM     20  N   UNL     1      -9.445  -7.541  16.849  0.00  0.00    +0.000 NA
ATOM     21  C   UNL     1     -10.671  -6.844  17.327  0.00  0.00    +0.000 C 
ATOM     22  C   UNL     1     -11.404  -6.082  16.206  0.00  0.00    +0.000 C 
ATOM     23  N   UNL     1     -10.568  -5.200  15.372  0.00  0.00    +0.000 NA
ATOM     24  C   UNL     1      -9.293  -5.835  14.996  0.00  0.00    +0.000 C 
ATOM     25  C   UNL     1      -8.558  -6.547  16.153  0.00  0.00    +0.000 C 
ATOM     26  H   UNL     1     -10.355  -6.129  18.101  0.00  0.00    +0.000 HD
ATOM     27  H   UNL     1     -11.342  -7.548  17.828  0.00  0.00    +0.000 HD
ATOM     28  H   UNL     1     -12.180  -5.460  16.669  0.00  0.00    +0.000 HD
ATOM     29  H   UNL     1     -11.937  -6.789  15.563  0.00  0.00    +0.000 HD
ATOM     30  H   UNL     1     -10.382  -4.331  15.865  0.00  0.00    +0.000 HD
ATOM     31  H   UNL     1      -8.634  -5.055  14.592  0.00  0.00    +0.000 HD
ATOM     32  H   UNL     1      -9.463  -6.529  14.166  0.00  0.00    +0.000 HD
ATOM     33  H   UNL     1      -8.229  -5.808  16.892  0.00  0.00    +0.000 HD
ATOM     34  H   UNL     1      -7.648  -7.033  15.785  0.00  0.00    +0.000 HD
ENDBRANCH   2  20
TORSDOF 2
ENDMDL
MODEL 2
REMARK VINA RESULT:    -9.194      2.302      3.301
REMARK INTER + INTRA:         -10.222
REMARK INTER:                 -10.696
REMARK INTRA:                   0.475
REMARK UNBOUND:                 0.048
REMARK  Name = 
REMARK  2 active torsions:
REMARK  status: ('A' for Active; 'I' for Inactive)
REMARK    1  A    between atoms: S_2  and  C_4
REMARK    2  A    between atoms: S_2  and  N_14
REMARK                            x       y       z     vdW  Elec       q    Type
REMARK                         _______ _______ _______ _____ _____    ______ ____
ROOT
ATOM      1  O   UNL     1     -10.657  -7.815  18.433  0.00  0.00    +0.000 OA
ATOM      2  S   UNL     1      -9.271  -8.181  18.203  0.00  0.00    +0.000 S 
ATOM      3  O   UNL     1      -8.469  -8.711  19.285  0.00  0.00    +0.000 OA
ENDROOT
BRANCH   2   4
ATOM      4  C   UNL     1      -9.276  -9.396  16.899  0.00  0.00    +0.000 A 
ATOM      5  C   UNL     1      -9.431  -8.891  15.592  0.00  0.00    +0.000 A 
ATOM      6  C   UNL     1      -9.192  -9.703  14.488  0.00  0.00    +0.000 A 
ATOM      7  C   UNL     1      -8.812 -11.025  14.678  0.00  0.00    +0.000 A 
ATOM      8  C   UNL     1      -8.717 -11.565  15.972  0.00  0.00    +0.000 A 
ATOM      9  C   UNL     1      -8.383 -12.907  16.155  0.00  0.00    +0.000 A 
ATOM     10  N   UNL     1      -8.303 -13.522  17.354  0.00  0.00    +0.000 NA
ATOM     11  C   UNL     1      -8.539 -12.754  18.433  0.00  0.00    +0.000 A 
ATOM     12  C   UNL     1      -8.843 -11.401  18.371  0.00  0.00    +0.000 A 
ATOM     13  C   UNL     1      -8.952 -10.763  17.117  0.00  0.00    +0.000 A 
ATOM     14  H   UNL     1      -9.685  -7.846  15.420  0.00  0.00    +0.000 HD
ATOM     15  H   UNL     1      -9.268  -9.295  13.482  0.00  0.00    +0.000 HD
ATOM     16  H   UNL     1      -8.585 -11.637  13.806  0.00  0.00    +0.000 HD
ATOM     17  H   UNL     1      -8.169 -13.555  15.309  0.00  0.00    +0.000 HD
ATOM     18  H   UNL     1      -8.481 -13.270  19.387  0.00  0.00    +0.000 HD
ATOM     19  H   UNL     1      -9.006 -10.874  19.305  0.00  0.00    +0.000 HD
ENDBRANCH   2   4
BRANCH   2  20
ATOM     20  N   UNL     1      -8.479  -6.783  17.611  0.00  0.00    +0.000 NA
ATOM     21  C   UNL     1      -7.350  -6.225  18.406  0.00  0.00    +0.000 C 
ATOM     22  C   UNL     1      -7.819  -5.449  19.652  0.00  0.00    +0.000 C 
ATOM     23  N   UNL     1      -8.875  -4.446  19.429  0.00  0.00    +0.000 NA
ATOM     24  C   UNL     1      -9.938  -4.946  18.539  0.00  0.00    +0.000 C 
ATOM     25  C   UNL     1      -9.435  -5.673  17.274  0.00  0.00    +0.000 C 
ATOM     26  H   UNL     1      -6.797  -5.541  17.745  0.00  0.00    +0.000 HD
ATOM     27  H   UNL     1      -6.643  -7.015  18.677  0.00  0.00    +0.000 HD
ATOM     28  H   UNL     1      -6.951  -4.928  20.075  0.00  0.00    +0.000 HD
ATOM     29  H   UNL     1      -8.145  -6.152  20.425  0.00  0.00    +0.000 HD
ATOM     30  H   UNL     1      -8.471  -3.601  19.033  0.00  0.00    +0.000 HD
ATOM     31  H   UNL     1     -10.548  -4.088  18.229  0.00  0.00    +0.000 HD
ATOM     32  H   UNL     1     -10.614  -5.592  19.109  0.00  0.00    +0.000 HD
ATOM     33  H   UNL     1      -8.915  -4.962  16.621  0.00  0.00    +0.000 HD
ATOM     34  H   UNL     1     -10.280  -6.056  16.692  0.00  0.00    +0.000 HD
ENDBRANCH   2  20
TORSDOF 2
ENDMDL
MODEL 3
REMARK VINA RESULT:    -9.026      2.773      3.461
REMARK INTER + INTRA:         -10.034
REMARK INTER:                 -10.224
REMARK INTRA:                   0.190
REMARK UNBOUND:                 0.048
REMARK  Name = 
REMARK  2 active torsions:
REMARK  status: ('A' for Active; 'I' for Inactive)
REMARK    1  A    between atoms: S_2  and  C_4
REMARK    2  A    between atoms: S_2  and  N_14
REMARK                            x       y       z     vdW  Elec       q    Type
REMARK                         _______ _______ _______ _____ _____    ______ ____
ROOT
ATOM      1  O   UNL     1     -10.547  -7.745  18.777  0.00  0.00    +0.000 OA
ATOM      2  S   UNL     1      -9.190  -8.079  19.168  0.00  0.00    +0.000 S 
ATOM      3  O   UNL     1      -8.852  -8.232  20.568  0.00  0.00    +0.000 OA
ENDROOT
BRANCH   2   4
ATOM      4  C   UNL     1      -8.789  -9.612  18.353  0.00  0.00    +0.000 A 
ATOM      5  C   UNL     1      -8.445 -10.686  19.200  0.00  0.00    +0.000 A 
ATOM      6  C   UNL     1      -8.368 -11.982  18.703  0.00  0.00    +0.000 A 
ATOM      7  C   UNL     1      -8.618 -12.217  17.356  0.00  0.00    +0.000 A 
ATOM      8  C   UNL     1      -8.896 -11.151  16.483  0.00  0.00    +0.000 A 
ATOM      9  C   UNL     1      -9.098 -11.387  15.123  0.00  0.00    +0.000 A 
ATOM     10  N   UNL     1      -9.334 -10.427  14.204  0.00  0.00    +0.000 NA
ATOM     11  C   UNL     1      -9.404  -9.166  14.666  0.00  0.00    +0.000 A 
ATOM     12  C   UNL     1      -9.257  -8.819  16.002  0.00  0.00    +0.000 A 
ATOM     13  C   UNL     1      -8.984  -9.819  16.960  0.00  0.00    +0.000 A 
ATOM     14  H   UNL     1      -8.288 -10.531  20.267  0.00  0.00    +0.000 HD
ATOM     15  H   UNL     1      -8.149 -12.812  19.370  0.00  0.00    +0.000 HD
ATOM     16  H   UNL     1      -8.599 -13.242  16.989  0.00  0.00    +0.000 HD
ATOM     17  H   UNL     1      -9.066 -12.394  14.715  0.00  0.00    +0.000 HD
ATOM     18  H   UNL     1      -9.584  -8.408  13.910  0.00  0.00    +0.000 HD
ATOM     19  H   UNL     1      -9.341  -7.771  16.267  0.00  0.00    +0.000 HD
ENDBRANCH   2   4
BRANCH   2  20
ATOM     20  N   UNL     1      -8.173  -6.862  18.523  0.00  0.00    +0.000 NA
ATOM     21  C   UNL     1      -7.188  -6.212  19.432  0.00  0.00    +0.000 C 
ATOM     22  C   UNL     1      -7.837  -5.187  20.383  0.00  0.00    +0.000 C 
ATOM     23  N   UNL     1      -8.730  -4.199  19.755  0.00  0.00    +0.000 NA
ATOM     24  C   UNL     1      -9.626  -4.813  18.758  0.00  0.00    +0.000 C 
ATOM     25  C   UNL     1      -8.936  -5.797  17.787  0.00  0.00    +0.000 C 
ATOM     26  H   UNL     1      -6.452  -5.698  18.797  0.00  0.00    +0.000 HD
ATOM     27  H   UNL     1      -6.626  -6.966  19.991  0.00  0.00    +0.000 HD
ATOM     28  H   UNL     1      -7.033  -4.634  20.885  0.00  0.00    +0.000 HD
ATOM     29  H   UNL     1      -8.377  -5.709  21.179  0.00  0.00    +0.000 HD
ATOM     30  H   UNL     1      -8.181  -3.468  19.311  0.00  0.00    +0.000 HD
ATOM     31  H   UNL     1     -10.081  -4.005  18.170  0.00  0.00    +0.000 HD
ATOM     32  H   UNL     1     -10.459  -5.303  19.272  0.00  0.00    +0.000 HD
ATOM     33  H   UNL     1      -8.232  -5.252  17.148  0.00  0.00    +0.000 HD
ATOM     34  H   UNL     1      -9.672  -6.246  17.113  0.00  0.00    +0.000 HD
ENDBRANCH   2  20
TORSDOF 2
ENDMDL
MODEL 4
REMARK VINA RESULT:    -9.018      1.489      1.925
REMARK INTER + INTRA:         -10.025
REMARK INTER:                 -10.459
REMARK INTRA:                   0.434
REMARK UNBOUND:                 0.048
REMARK  Name = 
REMARK  2 active torsions:
REMARK  status: ('A' for Active; 'I' for Inactive)
REMARK    1  A    between atoms: S_2  and  C_4
REMARK    2  A    between atoms: S_2  and  N_14
REMARK                            x       y       z     vdW  Elec       q    Type
REMARK                         _______ _______ _______ _____ _____    ______ ____
ROOT
ATOM      1  O   UNL     1     -11.115  -8.675  16.124  0.00  0.00    +0.000 OA
ATOM      2  S   UNL     1     -10.233  -8.226  17.185  0.00  0.00    +0.000 S 
ATOM      3  O   UNL     1     -10.781  -7.644  18.391  0.00  0.00    +0.000 OA
ENDROOT
BRANCH   2   4
ATOM      4  C   UNL     1      -9.260  -9.639  17.669  0.00  0.00    +0.000 A 
ATOM      5  C   UNL     1      -8.883  -9.687  19.027  0.00  0.00    +0.000 A 
ATOM      6  C   UNL     1      -8.354 -10.852  19.573  0.00  0.00    +0.000 A 
ATOM      7  C   UNL     1      -8.184 -11.971  18.768  0.00  0.00    +0.000 A 
ATOM      8  C   UNL     1      -8.491 -11.922  17.397  0.00  0.00    +0.000 A 
ATOM      9  C   UNL     1      -8.273 -13.033  16.584  0.00  0.00    +0.000 A 
ATOM     10  N   UNL     1      -8.502 -13.070  15.254  0.00  0.00    +0.000 NA
ATOM     11  C   UNL     1      -9.007 -11.949  14.707  0.00  0.00    +0.000 A 
ATOM     12  C   UNL     1      -9.299 -10.798  15.426  0.00  0.00    +0.000 A 
ATOM     13  C   UNL     1      -9.034 -10.750  16.812  0.00  0.00    +0.000 A 
ATOM     14  H   UNL     1      -9.048  -8.835  19.686  0.00  0.00    +0.000 HD
ATOM     15  H   UNL     1      -8.108 -10.897  20.631  0.00  0.00    +0.000 HD
ATOM     16  H   UNL     1      -7.811 -12.890  19.218  0.00  0.00    +0.000 HD
ATOM     17  H   UNL     1      -7.882 -13.962  16.992  0.00  0.00    +0.000 HD
ATOM     18  H   UNL     1      -9.174 -11.995  13.635  0.00  0.00    +0.000 HD
ATOM     19  H   UNL     1      -9.711  -9.953  14.886  0.00  0.00    +0.000 HD
ENDBRANCH   2   4
BRANCH   2  20
ATOM     20  N   UNL     1      -9.171  -7.073  16.493  0.00  0.00    +0.000 NA
ATOM     21  C   UNL     1      -7.970  -6.666  17.274  0.00  0.00    +0.000 C 
ATOM     22  C   UNL     1      -8.303  -5.693  18.422  0.00  0.00    +0.000 C 
ATOM     23  N   UNL     1      -9.138  -4.533  18.064  0.00  0.00    +0.000 NA
ATOM     24  C   UNL     1     -10.261  -4.906  17.185  0.00  0.00    +0.000 C 
ATOM     25  C   UNL     1      -9.885  -5.840  16.015  0.00  0.00    +0.000 C 
ATOM     26  H   UNL     1      -7.282  -6.172  16.573  0.00  0.00    +0.000 HD
ATOM     27  H   UNL     1      -7.437  -7.546  17.646  0.00  0.00    +0.000 HD
ATOM     28  H   UNL     1      -7.359  -5.308  18.826  0.00  0.00    +0.000 HD
ATOM     29  H   UNL     1      -8.775  -6.238  19.246  0.00  0.00    +0.000 HD
ATOM     30  H   UNL     1      -8.569  -3.826  17.605  0.00  0.00    +0.000 HD
ATOM     31  H   UNL     1     -10.686  -3.982  16.771  0.00  0.00    +0.000 HD
ATOM     32  H   UNL     1     -11.061  -5.349  17.787  0.00  0.00    +0.000 HD
ATOM     33  H   UNL     1      -9.224  -5.312  15.318  0.00  0.00    +0.000 HD
ATOM     34  H   UNL     1     -10.777  -6.110  15.440  0.00  0.00    +0.000 HD
ENDBRANCH   2  20
TORSDOF 2
ENDMDL
MODEL 5
REMARK VINA RESULT:    -8.984      2.187      3.203
REMARK INTER + INTRA:          -9.986
REMARK INTER:                 -10.230
REMARK INTRA:                   0.244
REMARK UNBOUND:                 0.048
REMARK  Name = 
REMARK  2 active torsions:
REMARK  status: ('A' for Active; 'I' for Inactive)
REMARK    1  A    between atoms: S_2  and  C_4
REMARK    2  A    between atoms: S_2  and  N_14
REMARK                            x       y       z     vdW  Elec       q    Type
REMARK                         _______ _______ _______ _____ _____    ______ ____
ROOT
ATOM      1  O   UNL     1      -7.607  -6.996  16.886  0.00  0.00    +0.000 OA
ATOM      2  S   UNL     1      -9.032  -7.221  16.731  0.00  0.00    +0.000 S 
ATOM      3  O   UNL     1      -9.803  -6.407  15.815  0.00  0.00    +0.000 OA
ENDROOT
BRANCH   2   4
ATOM      4  C   UNL     1      -9.226  -8.920  16.227  0.00  0.00    +0.000 A 
ATOM      5  C   UNL     1      -9.529  -9.124  14.865  0.00  0.00    +0.000 A 
ATOM      6  C   UNL     1      -9.447 -10.394  14.306  0.00  0.00    +0.000 A 
ATOM      7  C   UNL     1      -9.077 -11.472  15.101  0.00  0.00    +0.000 A 
ATOM      8  C   UNL     1      -8.836 -11.299  16.475  0.00  0.00    +0.000 A 
ATOM      9  C   UNL     1      -8.512 -12.393  17.278  0.00  0.00    +0.000 A 
ATOM     10  N   UNL     1      -8.300 -12.332  18.610  0.00  0.00    +0.000 NA
ATOM     11  C   UNL     1      -8.383 -11.111  19.170  0.00  0.00    +0.000 A 
ATOM     12  C   UNL     1      -8.661  -9.950  18.461  0.00  0.00    +0.000 A 
ATOM     13  C   UNL     1      -8.909 -10.016  17.074  0.00  0.00    +0.000 A 
ATOM     14  H   UNL     1      -9.778  -8.287  14.213  0.00  0.00    +0.000 HD
ATOM     15  H   UNL     1      -9.636 -10.539  13.244  0.00  0.00    +0.000 HD
ATOM     16  H   UNL     1      -8.972 -12.453  14.641  0.00  0.00    +0.000 HD
ATOM     17  H   UNL     1      -8.419 -13.391  16.860  0.00  0.00    +0.000 HD
ATOM     18  H   UNL     1      -8.220 -11.085  20.243  0.00  0.00    +0.000 HD
ATOM     19  H   UNL     1      -8.696  -9.016  19.011  0.00  0.00    +0.000 HD
ENDBRANCH   2   4
BRANCH   2  20
ATOM     20  N   UNL     1      -9.734  -7.054  18.284  0.00  0.00    +0.000 NA
ATOM     21  C   UNL     1     -11.033  -6.333  18.396  0.00  0.00    +0.000 C 
ATOM     22  C   UNL     1     -10.881  -4.804  18.283  0.00  0.00    +0.000 C 
ATOM     23  N   UNL     1      -9.846  -4.193  19.135  0.00  0.00    +0.000 NA
ATOM     24  C   UNL     1      -8.593  -4.969  19.131  0.00  0.00    +0.000 C 
ATOM     25  C   UNL     1      -8.776  -6.494  19.297  0.00  0.00    +0.000 C 
ATOM     26  H   UNL     1     -11.456  -6.581  19.380  0.00  0.00    +0.000 HD
ATOM     27  H   UNL     1     -11.747  -6.713  17.659  0.00  0.00    +0.000 HD
ATOM     28  H   UNL     1     -11.842  -4.346  18.550  0.00  0.00    +0.000 HD
ATOM     29  H   UNL     1     -10.703  -4.524  17.240  0.00  0.00    +0.000 HD
ATOM     30  H   UNL     1     -10.189  -4.107  20.088  0.00  0.00    +0.000 HD
ATOM     31  H   UNL     1      -7.967  -4.601  19.954  0.00  0.00    +0.000 HD
ATOM     32  H   UNL     1      -8.032  -4.748  18.217  0.00  0.00    +0.000 HD
ATOM     33  H   UNL     1      -9.170  -6.712  20.297  0.00  0.00    +0.000 HD
ATOM     34  H   UNL     1      -7.808  -7.003  19.235  0.00  0.00    +0.000 HD
ENDBRANCH   2  20
TORSDOF 2
ENDMDL
MODEL 6
REMARK VINA RESULT:    -7.981      2.439      3.686
REMARK INTER + INTRA:          -8.867
REMARK INTER:                  -9.189
REMARK INTRA:                   0.322
REMARK UNBOUND:                 0.048
REMARK  Name = 
REMARK  2 active torsions:
REMARK  status: ('A' for Active; 'I' for Inactive)
REMARK    1  A    between atoms: S_2  and  C_4
REMARK    2  A    between atoms: S_2  and  N_14
REMARK                            x       y       z     vdW  Elec       q    Type
REMARK                         _______ _______ _______ _____ _____    ______ ____
ROOT
ATOM      1  O   UNL     1      -8.386  -6.047  17.590  0.00  0.00    +0.000 OA
ATOM      2  S   UNL     1      -9.308  -6.508  16.569  0.00  0.00    +0.000 S 
ATOM      3  O   UNL     1      -9.098  -6.150  15.182  0.00  0.00    +0.000 OA
ENDROOT
BRANCH   2   4
ATOM      4  C   UNL     1      -9.322  -8.288  16.663  0.00  0.00    +0.000 A 
ATOM      5  C   UNL     1      -9.491  -8.965  15.438  0.00  0.00    +0.000 A 
ATOM      6  C   UNL     1      -9.260 -10.334  15.349  0.00  0.00    +0.000 A 
ATOM      7  C   UNL     1      -8.874 -11.039  16.482  0.00  0.00    +0.000 A 
ATOM      8  C   UNL     1      -8.765 -10.394  17.726  0.00  0.00    +0.000 A 
ATOM      9  C   UNL     1      -8.424 -11.117  18.868  0.00  0.00    +0.000 A 
ATOM     10  N   UNL     1      -8.330 -10.594  20.109  0.00  0.00    +0.000 NA
ATOM     11  C   UNL     1      -8.558  -9.272  20.216  0.00  0.00    +0.000 A 
ATOM     12  C   UNL     1      -8.867  -8.449  19.141  0.00  0.00    +0.000 A 
ATOM     13  C   UNL     1      -8.991  -9.000  17.848  0.00  0.00    +0.000 A 
ATOM     14  H   UNL     1      -9.751  -8.425  14.528  0.00  0.00    +0.000 HD
ATOM     15  H   UNL     1      -9.347 -10.842  14.391  0.00  0.00    +0.000 HD
ATOM     16  H   UNL     1      -8.653 -12.102  16.389  0.00  0.00    +0.000 HD
ATOM     17  H   UNL     1      -8.216 -12.183  18.820  0.00  0.00    +0.000 HD
ATOM     18  H   UNL     1      -8.489  -8.872  21.223  0.00  0.00    +0.000 HD
ATOM     19  H   UNL     1      -9.023  -7.394  19.338  0.00  0.00    +0.000 HD
ENDBRANCH   2   4
BRANCH   2  20
ATOM     20  N   UNL     1     -10.864  -5.949  17.015  0.00  0.00    +0.000 NA
ATOM     21  C   UNL     1     -11.714  -5.321  15.966  0.00  0.00    +0.000 C 
ATOM     22  C   UNL     1     -11.279  -3.883  15.624  0.00  0.00    +0.000 C 
ATOM     23  N   UNL     1     -11.075  -2.980  16.770  0.00  0.00    +0.000 NA
ATOM     24  C   UNL     1     -10.342  -3.634  17.870  0.00  0.00    +0.000 C 
ATOM     25  C   UNL     1     -10.835  -5.054  18.222  0.00  0.00    +0.000 C 
ATOM     26  H   UNL     1     -12.744  -5.303  16.352  0.00  0.00    +0.000 HD
ATOM     27  H   UNL     1     -11.743  -5.947  15.069  0.00  0.00    +0.000 HD
ATOM     28  H   UNL     1     -12.052  -3.437  14.986  0.00  0.00    +0.000 HD
ATOM     29  H   UNL     1     -10.371  -3.904  15.014  0.00  0.00    +0.000 HD
ATOM     30  H   UNL     1     -11.972  -2.647  17.113  0.00  0.00    +0.000 HD
ATOM     31  H   UNL     1     -10.437  -3.000  18.761  0.00  0.00    +0.000 HD
ATOM     32  H   UNL     1      -9.273  -3.647  17.635  0.00  0.00    +0.000 HD
ATOM     33  H   UNL     1     -11.850  -5.002  18.632  0.00  0.00    +0.000 HD
ATOM     34  H   UNL     1     -10.212  -5.489  19.010  0.00  0.00    +0.000 HD
ENDBRANCH   2  20
TORSDOF 2
ENDMDL
MODEL 7
REMARK VINA RESULT:    -7.834      2.363      2.989
REMARK INTER + INTRA:          -8.702
REMARK INTER:                  -8.894
REMARK INTRA:                   0.192
REMARK UNBOUND:                 0.048
REMARK  Name = 
REMARK  2 active torsions:
REMARK  status: ('A' for Active; 'I' for Inactive)
REMARK    1  A    between atoms: S_2  and  C_4
REMARK    2  A    between atoms: S_2  and  N_14
REMARK                            x       y       z     vdW  Elec       q    Type
REMARK                         _______ _______ _______ _____ _____    ______ ____
ROOT
ATOM      1  O   UNL     1      -8.418  -5.336  18.638  0.00  0.00    +0.000 OA
ATOM      2  S   UNL     1      -9.024  -6.247  17.684  0.00  0.00    +0.000 S 
ATOM      3  O   UNL     1      -8.636  -6.206  16.290  0.00  0.00    +0.000 OA
ENDROOT
BRANCH   2   4
ATOM      4  C   UNL     1      -8.701  -7.895  18.279  0.00  0.00    +0.000 A 
ATOM      5  C   UNL     1      -8.324  -7.995  19.634  0.00  0.00    +0.000 A 
ATOM      6  C   UNL     1      -8.301  -9.230  20.272  0.00  0.00    +0.000 A 
ATOM      7  C   UNL     1      -8.638 -10.376  19.562  0.00  0.00    +0.000 A 
ATOM      8  C   UNL     1      -8.951 -10.305  18.194  0.00  0.00    +0.000 A 
ATOM      9  C   UNL     1      -9.240 -11.464  17.475  0.00  0.00    +0.000 A 
ATOM     10  N   UNL     1      -9.516 -11.500  16.154  0.00  0.00    +0.000 NA
ATOM     11  C   UNL     1      -9.535 -10.315  15.518  0.00  0.00    +0.000 A 
ATOM     12  C   UNL     1      -9.299  -9.096  16.140  0.00  0.00    +0.000 A 
ATOM     13  C   UNL     1      -8.985  -9.060  17.516  0.00  0.00    +0.000 A 
ATOM     14  H   UNL     1      -8.099  -7.105  20.221  0.00  0.00    +0.000 HD
ATOM     15  H   UNL     1      -8.055  -9.295  21.330  0.00  0.00    +0.000 HD
ATOM     16  H   UNL     1      -8.659 -11.331  20.085  0.00  0.00    +0.000 HD
ATOM     17  H   UNL     1      -9.251 -12.438  17.956  0.00  0.00    +0.000 HD
ATOM     18  H   UNL     1      -9.748 -10.366  14.454  0.00  0.00    +0.000 HD
ATOM     19  H   UNL     1      -9.348  -8.198  15.534  0.00  0.00    +0.000 HD
ENDBRANCH   2   4
BRANCH   2  20
ATOM     20  N   UNL     1     -10.716  -5.987  17.755  0.00  0.00    +0.000 NA
ATOM     21  C   UNL     1     -11.502  -6.126  16.498  0.00  0.00    +0.000 C 
ATOM     22  C   UNL     1     -11.341  -4.918  15.554  0.00  0.00    +0.000 C 
ATOM     23  N   UNL     1     -11.526  -3.591  16.166  0.00  0.00    +0.000 NA
ATOM     24  C   UNL     1     -10.854  -3.484  17.474  0.00  0.00    +0.000 C 
ATOM     25  C   UNL     1     -11.076  -4.687  18.416  0.00  0.00    +0.000 C 
ATOM     26  H   UNL     1     -12.559  -6.218  16.786  0.00  0.00    +0.000 HD
ATOM     27  H   UNL     1     -11.249  -7.060  15.988  0.00  0.00    +0.000 HD
ATOM     28  H   UNL     1     -12.080  -5.015  14.748  0.00  0.00    +0.000 HD
ATOM     29  H   UNL     1     -10.364  -4.957  15.063  0.00  0.00    +0.000 HD
ATOM     30  H   UNL     1     -12.517  -3.396  16.277  0.00  0.00    +0.000 HD
ATOM     31  H   UNL     1     -11.227  -2.578  17.971  0.00  0.00    +0.000 HD
ATOM     32  H   UNL     1      -9.784  -3.311  17.320  0.00  0.00    +0.000 HD
ATOM     33  H   UNL     1     -12.131  -4.735  18.711  0.00  0.00    +0.000 HD
ATOM     34  H   UNL     1     -10.509  -4.556  19.343  0.00  0.00    +0.000 HD
ENDBRANCH   2  20
TORSDOF 2
ENDMDL
MODEL 8
REMARK VINA RESULT:    -7.739      1.765      2.233
REMARK INTER + INTRA:          -8.597
REMARK INTER:                  -8.828
REMARK INTRA:                   0.232
REMARK UNBOUND:                 0.048
REMARK  Name = 
REMARK  2 active torsions:
REMARK  status: ('A' for Active; 'I' for Inactive)
REMARK    1  A    between atoms: S_2  and  C_4
REMARK    2  A    between atoms: S_2  and  N_14
REMARK                            x       y       z     vdW  Elec       q    Type
REMARK                         _______ _______ _______ _____ _____    ______ ____
ROOT
ATOM      1  O   UNL     1      -9.797  -7.586  15.604  0.00  0.00    +0.000 OA
ATOM      2  S   UNL     1     -10.246  -7.334  16.962  0.00  0.00    +0.000 S 
ATOM      3  O   UNL     1     -11.640  -7.504  17.311  0.00  0.00    +0.000 OA
ENDROOT
BRANCH   2   4
ATOM      4  C   UNL     1      -9.297  -8.411  18.018  0.00  0.00    +0.000 A 
ATOM      5  C   UNL     1      -8.936  -7.877  19.272  0.00  0.00    +0.000 A 
ATOM      6  C   UNL     1      -8.428  -8.700  20.272  0.00  0.00    +0.000 A 
ATOM      7  C   UNL     1      -8.262 -10.057  20.025  0.00  0.00    +0.000 A 
ATOM      8  C   UNL     1      -8.553 -10.596  18.760  0.00  0.00    +0.000 A 
ATOM      9  C   UNL     1      -8.338 -11.950  18.502  0.00  0.00    +0.000 A 
ATOM     10  N   UNL     1      -8.553 -12.549  17.312  0.00  0.00    +0.000 NA
ATOM     11  C   UNL     1      -9.037 -11.766  16.331  0.00  0.00    +0.000 A 
ATOM     12  C   UNL     1      -9.323 -10.416  16.485  0.00  0.00    +0.000 A 
ATOM     13  C   UNL     1      -9.074  -9.783  17.721  0.00  0.00    +0.000 A 
ATOM     14  H   UNL     1      -9.099  -6.824  19.503  0.00  0.00    +0.000 HD
ATOM     15  H   UNL     1      -8.196  -8.291  21.252  0.00  0.00    +0.000 HD
ATOM     16  H   UNL     1      -7.906 -10.698  20.830  0.00  0.00    +0.000 HD
ATOM     17  H   UNL     1      -7.964 -12.618  19.274  0.00  0.00    +0.000 HD
ATOM     18  H   UNL     1      -9.192 -12.264  15.379  0.00  0.00    +0.000 HD
ATOM     19  H   UNL     1      -9.719  -9.880  15.629  0.00  0.00    +0.000 HD
ENDBRANCH   2   4
BRANCH   2  20
ATOM     20  N   UNL     1      -9.813  -5.720  17.337  0.00  0.00    +0.000 NA
ATOM     21  C   UNL     1     -10.741  -4.923  18.186  0.00  0.00    +0.000 C 
ATOM     22  C   UNL     1     -11.982  -4.427  17.417  0.00  0.00    +0.000 C 
ATOM     23  N   UNL     1     -11.720  -3.765  16.128  0.00  0.00    +0.000 NA
ATOM     24  C   UNL     1     -10.707  -4.479  15.330  0.00  0.00    +0.000 C 
ATOM     25  C   UNL     1      -9.454  -4.917  16.118  0.00  0.00    +0.000 C 
ATOM     26  H   UNL     1     -10.176  -4.054  18.554  0.00  0.00    +0.000 HD
ATOM     27  H   UNL     1     -11.030  -5.489  19.076  0.00  0.00    +0.000 HD
ATOM     28  H   UNL     1     -12.514  -3.710  18.055  0.00  0.00    +0.000 HD
ATOM     29  H   UNL     1     -12.679  -5.257  17.263  0.00  0.00    +0.000 HD
ATOM     30  H   UNL     1     -11.414  -2.808  16.286  0.00  0.00    +0.000 HD
ATOM     31  H   UNL     1     -10.392  -3.816  14.514  0.00  0.00    +0.000 HD
ATOM     32  H   UNL     1     -11.173  -5.341  14.841  0.00  0.00    +0.000 HD
ATOM     33  H   UNL     1      -8.895  -4.033  16.445  0.00  0.00    +0.000 HD
ATOM     34  H   UNL     1      -8.774  -5.482  15.472  0.00  0.00    +0.000 HD
ENDBRANCH   2  20
TORSDOF 2
ENDMDL
MODEL 9
REMARK VINA RESULT:    -7.663      4.723      7.370
REMARK INTER + INTRA:          -8.511
REMARK INTER:                  -8.502
REMARK INTRA:                  -0.009
REMARK UNBOUND:                 0.048
REMARK  Name = 
REMARK  2 active torsions:
REMARK  status: ('A' for Active; 'I' for Inactive)
REMARK    1  A    between atoms: S_2  and  C_4
REMARK    2  A    between atoms: S_2  and  N_14
REMARK                            x       y       z     vdW  Elec       q    Type
REMARK                         _______ _______ _______ _____ _____    ______ ____
ROOT
ATOM      1  O   UNL     1      -9.333  -7.273  19.934  0.00  0.00    +0.000 OA
ATOM      2  S   UNL     1      -8.772  -6.307  19.008  0.00  0.00    +0.000 S 
ATOM      3  O   UNL     1      -9.516  -5.116  18.657  0.00  0.00    +0.000 OA
ENDROOT
BRANCH   2   4
ATOM      4  C   UNL     1      -7.218  -5.779  19.703  0.00  0.00    +0.000 A 
ATOM      5  C   UNL     1      -6.062  -6.291  19.080  0.00  0.00    +0.000 A 
ATOM      6  C   UNL     1      -4.810  -5.755  19.362  0.00  0.00    +0.000 A 
ATOM      7  C   UNL     1      -4.699  -4.715  20.277  0.00  0.00    +0.000 A 
ATOM      8  C   UNL     1      -5.831  -4.236  20.958  0.00  0.00    +0.000 A 
ATOM      9  C   UNL     1      -5.707  -3.226  21.911  0.00  0.00    +0.000 A 
ATOM     10  N   UNL     1      -6.728  -2.727  22.640  0.00  0.00    +0.000 NA
ATOM     11  C   UNL     1      -7.946  -3.240  22.386  0.00  0.00    +0.000 A 
ATOM     12  C   UNL     1      -8.192  -4.221  21.434  0.00  0.00    +0.000 A 
ATOM     13  C   UNL     1      -7.121  -4.761  20.691  0.00  0.00    +0.000 A 
ATOM     14  H   UNL     1      -6.130  -7.076  18.327  0.00  0.00    +0.000 HD
ATOM     15  H   UNL     1      -3.928  -6.123  18.843  0.00  0.00    +0.000 HD
ATOM     16  H   UNL     1      -3.720  -4.274  20.455  0.00  0.00    +0.000 HD
ATOM     17  H   UNL     1      -4.743  -2.775  22.132  0.00  0.00    +0.000 HD
ATOM     18  H   UNL     1      -8.752  -2.834  22.990  0.00  0.00    +0.000 HD
ATOM     19  H   UNL     1      -9.215  -4.557  21.305  0.00  0.00    +0.000 HD
ENDBRANCH   2   4
BRANCH   2  20
ATOM     20  N   UNL     1      -8.434  -7.150  17.555  0.00  0.00    +0.000 NA
ATOM     21  C   UNL     1      -8.556  -6.410  16.268  0.00  0.00    +0.000 C 
ATOM     22  C   UNL     1     -10.019  -6.208  15.828  0.00  0.00    +0.000 C 
ATOM     23  N   UNL     1     -10.870  -7.410  15.847  0.00  0.00    +0.000 NA
ATOM     24  C   UNL     1     -10.666  -8.218  17.062  0.00  0.00    +0.000 C 
ATOM     25  C   UNL     1      -9.188  -8.445  17.447  0.00  0.00    +0.000 C 
ATOM     26  H   UNL     1      -8.030  -7.002  15.505  0.00  0.00    +0.000 HD
ATOM     27  H   UNL     1      -8.026  -5.455  16.323  0.00  0.00    +0.000 HD
ATOM     28  H   UNL     1     -10.015  -5.821  14.802  0.00  0.00    +0.000 HD
ATOM     29  H   UNL     1     -10.484  -5.425  16.436  0.00  0.00    +0.000 HD
ATOM     30  H   UNL     1     -10.684  -7.979  15.026  0.00  0.00    +0.000 HD
ATOM     31  H   UNL     1     -11.139  -9.196  16.900  0.00  0.00    +0.000 HD
ATOM     32  H   UNL     1     -11.214  -7.766  17.895  0.00  0.00    +0.000 HD
ATOM     33  H   UNL     1      -8.698  -9.063  16.685  0.00  0.00    +0.000 HD
ATOM     34  H   UNL     1      -9.120  -9.010  18.383  0.00  0.00    +0.000 HD
ENDBRANCH   2  20
TORSDOF 2
ENDMDL
