MODEL 1
REMARK VINA RESULT:   -12.862      0.000      0.000
REMARK INTER + INTRA:         -15.876
REMARK INTER:                 -15.494
REMARK INTRA:                  -0.382
REMARK UNBOUND:                -0.382
REMARK  Name = 
REMARK  4 active torsions:
REMARK  status: ('A' for Active; 'I' for Inactive)
REMARK    1  A    between atoms: C_1  and  N_2
REMARK    2  A    between atoms: C_13  and  O_14
REMARK    3  A    between atoms: O_14  and  C_15
REMARK    4  A    between atoms: C_15  and  C_16
REMARK                            x       y       z     vdW  Elec       q    Type
REMARK                         _______ _______ _______ _____ _____    ______ ____
ROOT
ATOM      1  N   UNL     1      -9.469   0.715  23.773  0.00  0.00    +0.000 N 
ATOM      2  C   UNL     1     -10.003   1.964  23.518  0.00  0.00    +0.000 A 
ATOM      3  C   UNL     1     -11.266   1.720  23.050  0.00  0.00    +0.000 A 
ATOM      4  C   UNL     1     -11.203   0.433  22.464  0.00  0.00    +0.000 A 
ATOM      5  C   UNL     1     -12.068  -0.179  21.545  0.00  0.00    +0.000 A 
ATOM      6  C   UNL     1     -11.581  -1.233  20.795  0.00  0.00    +0.000 A 
ATOM      7  C   UNL     1     -10.320  -1.748  21.083  0.00  0.00    +0.000 A 
ATOM      8  C   UNL     1      -9.754  -2.685  20.205  0.00  0.00    +0.000 A 
ATOM      9  N   UNL     1     -10.283  -3.380  19.156  0.00  0.00    +0.000 N 
ATOM     10  C   UNL     1      -9.544  -4.526  18.958  0.00  0.00    +0.000 A 
ATOM     11  C   UNL     1      -9.926  -5.679  18.284  0.00  0.00    +0.000 A 
ATOM     12  C   UNL     1      -9.012  -6.731  18.224  0.00  0.00    +0.000 A 
ATOM     13  C   UNL     1      -7.775  -6.630  18.852  0.00  0.00    +0.000 A 
ATOM     14  C   UNL     1      -7.406  -5.465  19.531  0.00  0.00    +0.000 A 
ATOM     15  C   UNL     1      -8.313  -4.384  19.611  0.00  0.00    +0.000 A 
ATOM     16  C   UNL     1      -8.474  -3.168  20.288  0.00  0.00    +0.000 A 
ATOM     17  C   UNL     1      -7.686  -2.842  21.427  0.00  0.00    +0.000 A 
ATOM     18  C   UNL     1      -8.444  -2.221  22.464  0.00  0.00    +0.000 A 
ATOM     19  C   UNL     1      -9.574  -1.405  22.240  0.00  0.00    +0.000 A 
ATOM     20  C   UNL     1      -9.994  -0.193  22.862  0.00  0.00    +0.000 A 
ATOM     21  C   UNL     1      -8.219  -3.159  23.560  0.00  0.00    +0.000 C 
ATOM     22  O   UNL     1      -8.971  -3.625  24.408  0.00  0.00    +0.000 OA
ATOM     23  N   UNL     1      -6.997  -3.739  23.262  0.00  0.00    +0.000 N 
ATOM     24  C   UNL     1      -6.573  -3.554  21.976  0.00  0.00    +0.000 C 
ATOM     25  O   UNL     1      -5.537  -3.983  21.523  0.00  0.00    +0.000 OA
ATOM     26  H   UNL     1      -9.536   2.871  23.881  0.00  0.00    +0.000 HD
ATOM     27  H   UNL     1     -12.061   2.444  22.943  0.00  0.00    +0.000 HD
ATOM     28  H   UNL     1     -13.016   0.288  21.286  0.00  0.00    +0.000 HD
ATOM     29  H   UNL     1     -12.182  -1.584  19.956  0.00  0.00    +0.000 HD
ATOM     30  H   UNL     1     -11.218  -3.254  18.805  0.00  0.00    +0.000 HD
ATOM     31  H   UNL     1     -10.920  -5.737  17.857  0.00  0.00    +0.000 HD
ATOM     32  H   UNL     1      -7.087  -7.483  18.836  0.00  0.00    +0.000 HD
ATOM     33  H   UNL     1      -6.438  -5.442  20.019  0.00  0.00    +0.000 HD
ATOM     34  H   UNL     1      -6.705  -4.594  23.708  0.00  0.00    +0.000 HD
ENDROOT
BRANCH   1  35
ATOM     35  C   UNL     1      -8.854   0.493  25.060  0.00  0.00    +0.000 C 
ATOM     36  H   UNL     1      -8.700   1.443  25.573  0.00  0.00    +0.000 HD
ATOM     37  H   UNL     1      -7.934  -0.083  24.931  0.00  0.00    +0.000 HD
ATOM     38  H   UNL     1      -9.548  -0.120  25.652  0.00  0.00    +0.000 HD
ENDBRANCH   1  35
BRANCH  12  39
ATOM     39  O   UNL     1      -9.265  -7.904  17.566  0.00  0.00    +0.000 OA
BRANCH  39  40
ATOM     40  C   UNL     1      -9.190  -9.057  18.405  0.00  0.00    +0.000 C 
ATOM     41  H   UNL     1     -10.116  -9.193  18.979  0.00  0.00    +0.000 HD
ATOM     42  H   UNL     1      -8.351  -8.961  19.105  0.00  0.00    +0.000 HD
BRANCH  40  43
ATOM     43  C   UNL     1      -8.982 -10.268  17.549  0.00  0.00    +0.000 A 
ATOM     44  C   UNL     1      -9.138 -10.180  16.160  0.00  0.00    +0.000 A 
ATOM     45  C   UNL     1      -8.939 -11.309  15.368  0.00  0.00    +0.000 A 
ATOM     46  C   UNL     1      -8.589 -12.521  15.957  0.00  0.00    +0.000 A 
ATOM     47  C   UNL     1      -8.439 -12.615  17.340  0.00  0.00    +0.000 A 
ATOM     48  C   UNL     1      -8.638 -11.492  18.135  0.00  0.00    +0.000 A 
ATOM     49  H   UNL     1      -9.426  -9.240  15.700  0.00  0.00    +0.000 HD
ATOM     50  H   UNL     1      -9.068 -11.239  14.293  0.00  0.00    +0.000 HD
ATOM     51  H   UNL     1      -8.438 -13.398  15.334  0.00  0.00    +0.000 HD
ATOM     52  H   UNL     1      -8.174 -13.565  17.799  0.00  0.00    +0.000 HD
ATOM     53  H   UNL     1      -8.532 -11.576  19.215  0.00  0.00    +0.000 HD
ENDBRANCH  40  43
ENDBRANCH  39  40
ENDBRANCH  12  39
TORSDOF 4
ENDMDL
MODEL 2
REMARK VINA RESULT:   -12.352      2.309      3.964
REMARK INTER + INTRA:         -15.262
REMARK INTER:                 -14.797
REMARK INTRA:                  -0.465
REMARK UNBOUND:                -0.382
REMARK  Name = 
REMARK  4 active torsions:
REMARK  status: ('A' for Active; 'I' for Inactive)
REMARK    1  A    between atoms: C_1  and  N_2
REMARK    2  A    between atoms: C_13  and  O_14
REMARK    3  A    between atoms: O_14  and  C_15
REMARK    4  A    between atoms: C_15  and  C_16
REMARK                            x       y       z     vdW  Elec       q    Type
REMARK                         _______ _______ _______ _____ _____    ______ ____
ROOT
ATOM      1  N   UNL     1      -9.601  -0.347  21.998  0.00  0.00    +0.000 N 
ATOM      2  C   UNL     1      -9.317  -0.298  23.350  0.00  0.00    +0.000 A 
ATOM      3  C   UNL     1      -8.051  -0.810  23.463  0.00  0.00    +0.000 A 
ATOM      4  C   UNL     1      -7.904  -1.683  22.359  0.00  0.00    +0.000 A 
ATOM      5  C   UNL     1      -6.981  -2.720  22.153  0.00  0.00    +0.000 A 
ATOM      6  C   UNL     1      -7.299  -3.699  21.231  0.00  0.00    +0.000 A 
ATOM      7  C   UNL     1      -8.431  -3.542  20.434  0.00  0.00    +0.000 A 
ATOM      8  C   UNL     1      -8.853  -4.618  19.638  0.00  0.00    +0.000 A 
ATOM      9  N   UNL     1      -8.253  -5.802  19.319  0.00  0.00    +0.000 N 
ATOM     10  C   UNL     1      -8.777  -6.267  18.133  0.00  0.00    +0.000 A 
ATOM     11  C   UNL     1      -8.221  -7.194  17.261  0.00  0.00    +0.000 A 
ATOM     12  C   UNL     1      -8.928  -7.503  16.100  0.00  0.00    +0.000 A 
ATOM     13  C   UNL     1     -10.135  -6.870  15.817  0.00  0.00    +0.000 A 
ATOM     14  C   UNL     1     -10.680  -5.935  16.702  0.00  0.00    +0.000 A 
ATOM     15  C   UNL     1      -9.984  -5.600  17.885  0.00  0.00    +0.000 A 
ATOM     16  C   UNL     1     -10.019  -4.655  18.918  0.00  0.00    +0.000 A 
ATOM     17  C   UNL     1     -10.803  -3.471  18.815  0.00  0.00    +0.000 A 
ATOM     18  C   UNL     1     -10.127  -2.316  19.309  0.00  0.00    +0.000 A 
ATOM     19  C   UNL     1      -9.177  -2.338  20.352  0.00  0.00    +0.000 A 
ATOM     20  C   UNL     1      -8.959  -1.447  21.443  0.00  0.00    +0.000 A 
ATOM     21  C   UNL     1     -10.130  -1.474  18.117  0.00  0.00    +0.000 C 
ATOM     22  O   UNL     1      -9.269  -0.759  17.616  0.00  0.00    +0.000 OA
ATOM     23  N   UNL     1     -11.237  -1.902  17.403  0.00  0.00    +0.000 N 
ATOM     24  C   UNL     1     -11.743  -3.108  17.799  0.00  0.00    +0.000 C 
ATOM     25  O   UNL     1     -12.701  -3.651  17.301  0.00  0.00    +0.000 OA
ATOM     26  H   UNL     1      -9.925   0.268  24.043  0.00  0.00    +0.000 HD
ATOM     27  H   UNL     1      -7.408  -0.741  24.329  0.00  0.00    +0.000 HD
ATOM     28  H   UNL     1      -6.147  -2.860  22.837  0.00  0.00    +0.000 HD
ATOM     29  H   UNL     1      -6.681  -4.597  21.203  0.00  0.00    +0.000 HD
ATOM     30  H   UNL     1      -7.372  -6.112  19.697  0.00  0.00    +0.000 HD
ATOM     31  H   UNL     1      -7.252  -7.621  17.492  0.00  0.00    +0.000 HD
ATOM     32  H   UNL     1     -10.655  -7.089  14.878  0.00  0.00    +0.000 HD
ATOM     33  H   UNL     1     -11.615  -5.457  16.428  0.00  0.00    +0.000 HD
ATOM     34  H   UNL     1     -11.348  -1.671  16.428  0.00  0.00    +0.000 HD
ENDROOT
BRANCH   1  35
ATOM     35  C   UNL     1     -10.109   0.849  21.371  0.00  0.00    +0.000 C 
ATOM     36  H   UNL     1      -9.403   1.671  21.501  0.00  0.00    +0.000 HD
ATOM     37  H   UNL     1     -11.107   1.071  21.759  0.00  0.00    +0.000 HD
ATOM     38  H   UNL     1     -10.210   0.638  20.298  0.00  0.00    +0.000 HD
ENDBRANCH   1  35
BRANCH  12  39
ATOM     39  O   UNL     1      -8.493  -8.419  15.181  0.00  0.00    +0.000 OA
BRANCH  39  40
ATOM     40  C   UNL     1      -9.444  -9.447  14.906  0.00  0.00    +0.000 C 
ATOM     41  H   UNL     1      -9.439  -9.720  13.842  0.00  0.00    +0.000 HD
ATOM     42  H   UNL     1     -10.453  -9.113  15.180  0.00  0.00    +0.000 HD
BRANCH  40  43
ATOM     43  C   UNL     1      -9.092 -10.662  15.707  0.00  0.00    +0.000 A 
ATOM     44  C   UNL     1      -8.450 -11.745  15.093  0.00  0.00    +0.000 A 
ATOM     45  C   UNL     1      -8.120 -12.871  15.844  0.00  0.00    +0.000 A 
ATOM     46  C   UNL     1      -8.430 -12.920  17.200  0.00  0.00    +0.000 A 
ATOM     47  C   UNL     1      -9.075 -11.848  17.815  0.00  0.00    +0.000 A 
ATOM     48  C   UNL     1      -9.409 -10.722  17.070  0.00  0.00    +0.000 A 
ATOM     49  H   UNL     1      -8.221 -11.715  14.032  0.00  0.00    +0.000 HD
ATOM     50  H   UNL     1      -7.630 -13.711  15.364  0.00  0.00    +0.000 HD
ATOM     51  H   UNL     1      -8.173 -13.803  17.780  0.00  0.00    +0.000 HD
ATOM     52  H   UNL     1      -9.325 -11.892  18.873  0.00  0.00    +0.000 HD
ATOM     53  H   UNL     1      -9.924  -9.894  17.553  0.00  0.00    +0.000 HD
ENDBRANCH  40  43
ENDBRANCH  39  40
ENDBRANCH  12  39
TORSDOF 4
ENDMDL
MODEL 3
REMARK VINA RESULT:   -12.094      1.845      2.209
REMARK INTER + INTRA:         -14.951
REMARK INTER:                 -14.582
REMARK INTRA:                  -0.369
REMARK UNBOUND:                -0.382
REMARK  Name = 
REMARK  4 active torsions:
REMARK  status: ('A' for Active; 'I' for Inactive)
REMARK    1  A    between atoms: C_1  and  N_2
REMARK    2  A    between atoms: C_13  and  O_14
REMARK    3  A    between atoms: O_14  and  C_15
REMARK    4  A    between atoms: C_15  and  C_16
REMARK                            x       y       z     vdW  Elec       q    Type
REMARK                         _______ _______ _______ _____ _____    ______ ____
ROOT
ATOM      1  N   UNL     1     -10.358   1.558  20.633  0.00  0.00    +0.000 N 
ATOM      2  C   UNL     1     -10.376   2.630  19.761  0.00  0.00    +0.000 A 
ATOM      3  C   UNL     1     -11.264   2.275  18.782  0.00  0.00    +0.000 A 
ATOM      4  C   UNL     1     -11.238   0.860  18.752  0.00  0.00    +0.000 A 
ATOM      5  C   UNL     1     -11.662  -0.025  17.749  0.00  0.00    +0.000 A 
ATOM      6  C   UNL     1     -11.145  -1.306  17.752  0.00  0.00    +0.000 A 
ATOM      7  C   UNL     1     -10.355  -1.720  18.822  0.00  0.00    +0.000 A 
ATOM      8  C   UNL     1      -9.680  -2.947  18.731  0.00  0.00    +0.000 A 
ATOM      9  N   UNL     1      -9.779  -3.973  17.836  0.00  0.00    +0.000 N 
ATOM     10  C   UNL     1      -9.343  -5.135  18.434  0.00  0.00    +0.000 A 
ATOM     11  C   UNL     1      -9.613  -6.443  18.052  0.00  0.00    +0.000 A 
ATOM     12  C   UNL     1      -9.075  -7.472  18.825  0.00  0.00    +0.000 A 
ATOM     13  C   UNL     1      -8.322  -7.185  19.959  0.00  0.00    +0.000 A 
ATOM     14  C   UNL     1      -8.062  -5.863  20.334  0.00  0.00    +0.000 A 
ATOM     15  C   UNL     1      -8.597  -4.800  19.571  0.00  0.00    +0.000 A 
ATOM     16  C   UNL     1      -8.766  -3.411  19.641  0.00  0.00    +0.000 A 
ATOM     17  C   UNL     1      -8.585  -2.701  20.860  0.00  0.00    +0.000 A 
ATOM     18  C   UNL     1      -9.575  -1.695  21.066  0.00  0.00    +0.000 A 
ATOM     19  C   UNL     1     -10.213  -0.985  20.027  0.00  0.00    +0.000 A 
ATOM     20  C   UNL     1     -10.573   0.389  19.913  0.00  0.00    +0.000 A 
ATOM     21  C   UNL     1     -10.151  -2.141  22.331  0.00  0.00    +0.000 C 
ATOM     22  O   UNL     1     -11.309  -2.211  22.726  0.00  0.00    +0.000 OA
ATOM     23  N   UNL     1      -9.123  -2.841  22.943  0.00  0.00    +0.000 N 
ATOM     24  C   UNL     1      -8.094  -3.188  22.113  0.00  0.00    +0.000 C 
ATOM     25  O   UNL     1      -7.110  -3.801  22.455  0.00  0.00    +0.000 OA
ATOM     26  H   UNL     1      -9.941   3.587  20.022  0.00  0.00    +0.000 HD
ATOM     27  H   UNL     1     -11.701   2.933  18.044  0.00  0.00    +0.000 HD
ATOM     28  H   UNL     1     -12.215   0.343  16.888  0.00  0.00    +0.000 HD
ATOM     29  H   UNL     1     -11.323  -1.931  16.877  0.00  0.00    +0.000 HD
ATOM     30  H   UNL     1     -10.360  -3.955  17.013  0.00  0.00    +0.000 HD
ATOM     31  H   UNL     1     -10.251  -6.621  17.194  0.00  0.00    +0.000 HD
ATOM     32  H   UNL     1      -7.946  -8.004  20.581  0.00  0.00    +0.000 HD
ATOM     33  H   UNL     1      -7.484  -5.692  21.236  0.00  0.00    +0.000 HD
ATOM     34  H   UNL     1      -9.306  -3.467  23.711  0.00  0.00    +0.000 HD
ENDROOT
BRANCH   1  35
ATOM     35  C   UNL     1     -10.527   1.829  22.041  0.00  0.00    +0.000 C 
ATOM     36  H   UNL     1      -9.856   2.630  22.353  0.00  0.00    +0.000 HD
ATOM     37  H   UNL     1     -10.392   0.905  22.610  0.00  0.00    +0.000 HD
ATOM     38  H   UNL     1     -11.564   2.160  22.188  0.00  0.00    +0.000 HD
ENDBRANCH   1  35
BRANCH  12  39
ATOM     39  O   UNL     1      -9.252  -8.796  18.532  0.00  0.00    +0.000 OA
BRANCH  39  40
ATOM     40  C   UNL     1      -9.560  -9.041  17.160  0.00  0.00    +0.000 C 
ATOM     41  H   UNL     1      -9.016  -8.351  16.501  0.00  0.00    +0.000 HD
ATOM     42  H   UNL     1     -10.636  -8.922  16.986  0.00  0.00    +0.000 HD
BRANCH  40  43
ATOM     43  C   UNL     1      -9.157 -10.441  16.813  0.00  0.00    +0.000 A 
ATOM     44  C   UNL     1      -9.076 -10.836  15.472  0.00  0.00    +0.000 A 
ATOM     45  C   UNL     1      -8.696 -12.139  15.156  0.00  0.00    +0.000 A 
ATOM     46  C   UNL     1      -8.399 -13.045  16.170  0.00  0.00    +0.000 A 
ATOM     47  C   UNL     1      -8.485 -12.658  17.507  0.00  0.00    +0.000 A 
ATOM     48  C   UNL     1      -8.866 -11.361  17.829  0.00  0.00    +0.000 A 
ATOM     49  H   UNL     1      -9.321 -10.136  14.680  0.00  0.00    +0.000 HD
ATOM     50  H   UNL     1      -8.642 -12.444  14.116  0.00  0.00    +0.000 HD
ATOM     51  H   UNL     1      -8.107 -14.060  15.917  0.00  0.00    +0.000 HD
ATOM     52  H   UNL     1      -8.262 -13.371  18.298  0.00  0.00    +0.000 HD
ATOM     53  H   UNL     1      -8.943 -11.070  18.875  0.00  0.00    +0.000 HD
ENDBRANCH  40  43
ENDBRANCH  39  40
ENDBRANCH  12  39
TORSDOF 4
ENDMDL
MODEL 4
REMARK VINA RESULT:   -11.673      3.549      5.484
REMARK INTER + INTRA:         -14.443
REMARK INTER:                 -13.975
REMARK INTRA:                  -0.468
REMARK UNBOUND:                -0.382
REMARK  Name = 
REMARK  4 active torsions:
REMARK  status: ('A' for Active; 'I' for Inactive)
REMARK    1  A    between atoms: C_1  and  N_2
REMARK    2  A    between atoms: C_13  and  O_14
REMARK    3  A    between atoms: O_14  and  C_15
REMARK    4  A    between atoms: C_15  and  C_16
REMARK                            x       y       z     vdW  Elec       q    Type
REMARK                         _______ _______ _______ _____ _____    ______ ____
ROOT
ATOM      1  N   UNL     1     -11.051  -0.612  15.698  0.00  0.00    +0.000 N 
ATOM      2  C   UNL     1     -10.973   0.008  14.465  0.00  0.00    +0.000 A 
ATOM      3  C   UNL     1     -11.730  -0.770  13.630  0.00  0.00    +0.000 A 
ATOM      4  C   UNL     1     -11.685  -2.069  14.190  0.00  0.00    +0.000 A 
ATOM      5  C   UNL     1     -11.972  -3.311  13.602  0.00  0.00    +0.000 A 
ATOM      6  C   UNL     1     -11.444  -4.445  14.188  0.00  0.00    +0.000 A 
ATOM      7  C   UNL     1     -10.787  -4.337  15.412  0.00  0.00    +0.000 A 
ATOM      8  C   UNL     1     -10.092  -5.451  15.908  0.00  0.00    +0.000 A 
ATOM      9  N   UNL     1     -10.068  -6.757  15.511  0.00  0.00    +0.000 N 
ATOM     10  C   UNL     1      -9.696  -7.545  16.578  0.00  0.00    +0.000 A 
ATOM     11  C   UNL     1      -9.902  -8.908  16.743  0.00  0.00    +0.000 A 
ATOM     12  C   UNL     1      -9.452  -9.497  17.924  0.00  0.00    +0.000 A 
ATOM     13  C   UNL     1      -8.847  -8.728  18.913  0.00  0.00    +0.000 A 
ATOM     14  C   UNL     1      -8.650  -7.355  18.735  0.00  0.00    +0.000 A 
ATOM     15  C   UNL     1      -9.100  -6.730  17.549  0.00  0.00    +0.000 A 
ATOM     16  C   UNL     1      -9.292  -5.447  17.021  0.00  0.00    +0.000 A 
ATOM     17  C   UNL     1      -9.270  -4.291  17.851  0.00  0.00    +0.000 A 
ATOM     18  C   UNL     1     -10.290  -3.351  17.516  0.00  0.00    +0.000 A 
ATOM     19  C   UNL     1     -10.803  -3.167  16.214  0.00  0.00    +0.000 A 
ATOM     20  C   UNL     1     -11.162  -1.984  15.505  0.00  0.00    +0.000 A 
ATOM     21  C   UNL     1     -11.012  -3.277  18.782  0.00  0.00    +0.000 C 
ATOM     22  O   UNL     1     -12.210  -3.250  19.043  0.00  0.00    +0.000 OA
ATOM     23  N   UNL     1     -10.060  -3.602  19.734  0.00  0.00    +0.000 N 
ATOM     24  C   UNL     1      -8.933  -4.194  19.238  0.00  0.00    +0.000 C 
ATOM     25  O   UNL     1      -7.991  -4.552  19.905  0.00  0.00    +0.000 OA
ATOM     26  H   UNL     1     -10.585   1.012  14.353  0.00  0.00    +0.000 HD
ATOM     27  H   UNL     1     -12.080  -0.499  12.644  0.00  0.00    +0.000 HD
ATOM     28  H   UNL     1     -12.419  -3.361  12.612  0.00  0.00    +0.000 HD
ATOM     29  H   UNL     1     -11.506  -5.383  13.635  0.00  0.00    +0.000 HD
ATOM     30  H   UNL     1     -10.543  -7.112  14.697  0.00  0.00    +0.000 HD
ATOM     31  H   UNL     1     -10.428  -9.460  15.972  0.00  0.00    +0.000 HD
ATOM     32  H   UNL     1      -8.542  -9.197  19.854  0.00  0.00    +0.000 HD
ATOM     33  H   UNL     1      -8.190  -6.795  19.543  0.00  0.00    +0.000 HD
ATOM     34  H   UNL     1     -10.329  -3.869  20.668  0.00  0.00    +0.000 HD
ENDROOT
BRANCH   1  35
ATOM     35  C   UNL     1     -11.395   0.198  16.842  0.00  0.00    +0.000 C 
ATOM     36  H   UNL     1     -10.498   0.657  17.260  0.00  0.00    +0.000 HD
ATOM     37  H   UNL     1     -11.950  -0.406  17.565  0.00  0.00    +0.000 HD
ATOM     38  H   UNL     1     -12.066   0.993  16.489  0.00  0.00    +0.000 HD
ENDBRANCH   1  35
BRANCH  12  39
ATOM     39  O   UNL     1      -9.576 -10.835  18.186  0.00  0.00    +0.000 OA
BRANCH  39  40
ATOM     40  C   UNL     1      -8.347 -11.553  18.080  0.00  0.00    +0.000 C 
ATOM     41  H   UNL     1      -8.096 -12.053  19.025  0.00  0.00    +0.000 HD
ATOM     42  H   UNL     1      -7.531 -10.870  17.813  0.00  0.00    +0.000 HD
BRANCH  40  43
ATOM     43  C   UNL     1      -8.486 -12.597  17.015  0.00  0.00    +0.000 A 
ATOM     44  C   UNL     1      -8.717 -13.932  17.368  0.00  0.00    +0.000 A 
ATOM     45  C   UNL     1      -8.849 -14.899  16.374  0.00  0.00    +0.000 A 
ATOM     46  C   UNL     1      -8.750 -14.538  15.033  0.00  0.00    +0.000 A 
ATOM     47  C   UNL     1      -8.512 -13.211  14.676  0.00  0.00    +0.000 A 
ATOM     48  C   UNL     1      -8.377 -12.242  15.665  0.00  0.00    +0.000 A 
ATOM     49  H   UNL     1      -8.779 -14.219  18.413  0.00  0.00    +0.000 HD
ATOM     50  H   UNL     1      -9.020 -15.934  16.650  0.00  0.00    +0.000 HD
ATOM     51  H   UNL     1      -8.851 -15.297  14.262  0.00  0.00    +0.000 HD
ATOM     52  H   UNL     1      -8.426 -12.933  13.628  0.00  0.00    +0.000 HD
ATOM     53  H   UNL     1      -8.180 -11.211  15.379  0.00  0.00    +0.000 HD
ENDBRANCH  40  43
ENDBRANCH  39  40
ENDBRANCH  12  39
TORSDOF 4
ENDMDL
MODEL 5
REMARK VINA RESULT:   -11.605      2.492      3.308
REMARK INTER + INTRA:         -14.362
REMARK INTER:                 -13.983
REMARK INTRA:                  -0.379
REMARK UNBOUND:                -0.382
REMARK  Name = 
REMARK  4 active torsions:
REMARK  status: ('A' for Active; 'I' for Inactive)
REMARK    1  A    between atoms: C_1  and  N_2
REMARK    2  A    between atoms: C_13  and  O_14
REMARK    3  A    between atoms: O_14  and  C_15
REMARK    4  A    between atoms: C_15  and  C_16
REMARK                            x       y       z     vdW  Elec       q    Type
REMARK                         _______ _______ _______ _____ _____    ______ ____
ROOT
ATOM      1  N   UNL     1     -11.529   1.363  18.822  0.00  0.00    +0.000 N 
ATOM      2  C   UNL     1     -11.646   2.264  17.780  0.00  0.00    +0.000 A 
ATOM      3  C   UNL     1     -12.426   1.630  16.850  0.00  0.00    +0.000 A 
ATOM      4  C   UNL     1     -12.207   0.248  17.063  0.00  0.00    +0.000 A 
ATOM      5  C   UNL     1     -12.455  -0.841  16.213  0.00  0.00    +0.000 A 
ATOM      6  C   UNL     1     -11.769  -2.018  16.448  0.00  0.00    +0.000 A 
ATOM      7  C   UNL     1     -10.988  -2.134  17.595  0.00  0.00    +0.000 A 
ATOM      8  C   UNL     1     -10.150  -3.250  17.734  0.00  0.00    +0.000 A 
ATOM      9  N   UNL     1     -10.062  -4.413  17.024  0.00  0.00    +0.000 N 
ATOM     10  C   UNL     1      -9.505  -5.387  17.824  0.00  0.00    +0.000 A 
ATOM     11  C   UNL     1      -9.575  -6.765  17.662  0.00  0.00    +0.000 A 
ATOM     12  C   UNL     1      -8.944  -7.566  18.614  0.00  0.00    +0.000 A 
ATOM     13  C   UNL     1      -8.297  -6.993  19.704  0.00  0.00    +0.000 A 
ATOM     14  C   UNL     1      -8.238  -5.604  19.856  0.00  0.00    +0.000 A 
ATOM     15  C   UNL     1      -8.871  -4.768  18.909  0.00  0.00    +0.000 A 
ATOM     16  C   UNL     1      -9.230  -3.424  18.736  0.00  0.00    +0.000 A 
ATOM     17  C   UNL     1      -9.211  -2.505  19.821  0.00  0.00    +0.000 A 
ATOM     18  C   UNL     1     -10.337  -1.630  19.825  0.00  0.00    +0.000 A 
ATOM     19  C   UNL     1     -11.010  -1.198  18.661  0.00  0.00    +0.000 A 
ATOM     20  C   UNL     1     -11.546   0.074  18.305  0.00  0.00    +0.000 A 
ATOM     21  C   UNL     1     -10.913  -1.939  21.130  0.00  0.00    +0.000 C 
ATOM     22  O   UNL     1     -12.070  -2.107  21.497  0.00  0.00    +0.000 OA
ATOM     23  N   UNL     1      -9.834  -2.376  21.881  0.00  0.00    +0.000 N 
ATOM     24  C   UNL     1      -8.725  -2.705  21.152  0.00  0.00    +0.000 C 
ATOM     25  O   UNL     1      -7.686  -3.107  21.622  0.00  0.00    +0.000 OA
ATOM     26  H   UNL     1     -11.359   3.303  17.887  0.00  0.00    +0.000 HD
ATOM     27  H   UNL     1     -12.908   2.089  15.999  0.00  0.00    +0.000 HD
ATOM     28  H   UNL     1     -13.007  -0.702  15.286  0.00  0.00    +0.000 HD
ATOM     29  H   UNL     1     -11.815  -2.798  15.687  0.00  0.00    +0.000 HD
ATOM     30  H   UNL     1     -10.596  -4.614  16.194  0.00  0.00    +0.000 HD
ATOM     31  H   UNL     1     -10.138  -7.171  16.829  0.00  0.00    +0.000 HD
ATOM     32  H   UNL     1      -7.847  -7.637  20.467  0.00  0.00    +0.000 HD
ATOM     33  H   UNL     1      -7.737  -5.206  20.732  0.00  0.00    +0.000 HD
ATOM     34  H   UNL     1      -9.970  -2.886  22.739  0.00  0.00    +0.000 HD
ENDROOT
BRANCH   1  35
ATOM     35  C   UNL     1     -11.806   1.835  20.157  0.00  0.00    +0.000 C 
ATOM     36  H   UNL     1     -12.748   2.385  20.174  0.00  0.00    +0.000 HD
ATOM     37  H   UNL     1     -10.957   2.418  20.523  0.00  0.00    +0.000 HD
ATOM     38  H   UNL     1     -11.903   0.950  20.802  0.00  0.00    +0.000 HD
ENDBRANCH   1  35
BRANCH  12  39
ATOM     39  O   UNL     1      -8.925  -8.932  18.545  0.00  0.00    +0.000 OA
BRANCH  39  40
ATOM     40  C   UNL     1      -9.846  -9.469  17.597  0.00  0.00    +0.000 C 
ATOM     41  H   UNL     1     -10.041  -8.756  16.784  0.00  0.00    +0.000 HD
ATOM     42  H   UNL     1     -10.795  -9.715  18.088  0.00  0.00    +0.000 HD
BRANCH  40  43
ATOM     43  C   UNL     1      -9.261 -10.713  17.003  0.00  0.00    +0.000 A 
ATOM     44  C   UNL     1      -8.999 -10.778  15.628  0.00  0.00    +0.000 A 
ATOM     45  C   UNL     1      -8.451 -11.937  15.082  0.00  0.00    +0.000 A 
ATOM     46  C   UNL     1      -8.167 -13.027  15.900  0.00  0.00    +0.000 A 
ATOM     47  C   UNL     1      -8.432 -12.970  17.267  0.00  0.00    +0.000 A 
ATOM     48  C   UNL     1      -8.981 -11.817  17.818  0.00  0.00    +0.000 A 
ATOM     49  H   UNL     1      -9.234  -9.936  14.986  0.00  0.00    +0.000 HD
ATOM     50  H   UNL     1      -8.257 -11.987  14.016  0.00  0.00    +0.000 HD
ATOM     51  H   UNL     1      -7.742 -13.928  15.467  0.00  0.00    +0.000 HD
ATOM     52  H   UNL     1      -8.218 -13.827  17.903  0.00  0.00    +0.000 HD
ATOM     53  H   UNL     1      -9.197 -11.785  18.884  0.00  0.00    +0.000 HD
ENDBRANCH  40  43
ENDBRANCH  39  40
ENDBRANCH  12  39
TORSDOF 4
ENDMDL
MODEL 6
REMARK VINA RESULT:   -11.347      3.466      4.864
REMARK INTER + INTRA:         -14.051
REMARK INTER:                 -13.711
REMARK INTRA:                  -0.339
REMARK UNBOUND:                -0.382
REMARK  Name = 
REMARK  4 active torsions:
REMARK  status: ('A' for Active; 'I' for Inactive)
REMARK    1  A    between atoms: C_1  and  N_2
REMARK    2  A    between atoms: C_13  and  O_14
REMARK    3  A    between atoms: O_14  and  C_15
REMARK    4  A    between atoms: C_15  and  C_16
REMARK                            x       y       z     vdW  Elec       q    Type
REMARK                         _______ _______ _______ _____ _____    ______ ____
ROOT
ATOM      1  N   UNL     1     -11.990   1.787  18.352  0.00  0.00    +0.000 N 
ATOM      2  C   UNL     1     -12.750   2.423  19.316  0.00  0.00    +0.000 A 
ATOM      3  C   UNL     1     -12.287   1.936  20.509  0.00  0.00    +0.000 A 
ATOM      4  C   UNL     1     -11.776   0.650  20.212  0.00  0.00    +0.000 A 
ATOM      5  C   UNL     1     -11.501  -0.426  21.070  0.00  0.00    +0.000 A 
ATOM      6  C   UNL     1     -11.435  -1.693  20.522  0.00  0.00    +0.000 A 
ATOM      7  C   UNL     1     -11.483  -1.839  19.137  0.00  0.00    +0.000 A 
ATOM      8  C   UNL     1     -11.605  -3.129  18.596  0.00  0.00    +0.000 A 
ATOM      9  N   UNL     1     -11.500  -4.365  19.165  0.00  0.00    +0.000 N 
ATOM     10  C   UNL     1     -11.165  -5.281  18.192  0.00  0.00    +0.000 A 
ATOM     11  C   UNL     1     -10.597  -6.537  18.364  0.00  0.00    +0.000 A 
ATOM     12  C   UNL     1     -10.325  -7.291  17.222  0.00  0.00    +0.000 A 
ATOM     13  C   UNL     1     -10.586  -6.777  15.956  0.00  0.00    +0.000 A 
ATOM     14  C   UNL     1     -11.154  -5.509  15.799  0.00  0.00    +0.000 A 
ATOM     15  C   UNL     1     -11.437  -4.721  16.937  0.00  0.00    +0.000 A 
ATOM     16  C   UNL     1     -11.803  -3.410  17.269  0.00  0.00    +0.000 A 
ATOM     17  C   UNL     1     -11.720  -2.353  16.321  0.00  0.00    +0.000 A 
ATOM     18  C   UNL     1     -11.205  -1.146  16.881  0.00  0.00    +0.000 A 
ATOM     19  C   UNL     1     -11.383  -0.757  18.226  0.00  0.00    +0.000 A 
ATOM     20  C   UNL     1     -11.662   0.515  18.805  0.00  0.00    +0.000 A 
ATOM     21  C   UNL     1     -10.034  -0.937  16.035  0.00  0.00    +0.000 C 
ATOM     22  O   UNL     1      -8.888  -0.585  16.293  0.00  0.00    +0.000 OA
ATOM     23  N   UNL     1     -10.359  -1.568  14.845  0.00  0.00    +0.000 N 
ATOM     24  C   UNL     1     -11.418  -2.428  14.924  0.00  0.00    +0.000 C 
ATOM     25  O   UNL     1     -11.852  -3.073  13.999  0.00  0.00    +0.000 OA
ATOM     26  H   UNL     1     -13.368   3.281  19.083  0.00  0.00    +0.000 HD
ATOM     27  H   UNL     1     -12.485   2.347  21.489  0.00  0.00    +0.000 HD
ATOM     28  H   UNL     1     -11.544  -0.296  22.148  0.00  0.00    +0.000 HD
ATOM     29  H   UNL     1     -11.410  -2.544  21.202  0.00  0.00    +0.000 HD
ATOM     30  H   UNL     1     -11.369  -4.528  20.150  0.00  0.00    +0.000 HD
ATOM     31  H   UNL     1     -10.358  -6.876  19.365  0.00  0.00    +0.000 HD
ATOM     32  H   UNL     1     -10.322  -7.362  15.068  0.00  0.00    +0.000 HD
ATOM     33  H   UNL     1     -11.322  -5.145  14.790  0.00  0.00    +0.000 HD
ATOM     34  H   UNL     1      -9.649  -1.796  14.168  0.00  0.00    +0.000 HD
ENDROOT
BRANCH   1  35
ATOM     35  C   UNL     1     -11.372   2.601  17.333  0.00  0.00    +0.000 C 
ATOM     36  H   UNL     1     -11.058   1.978  16.494  0.00  0.00    +0.000 HD
ATOM     37  H   UNL     1     -10.554   3.178  17.772  0.00  0.00    +0.000 HD
ATOM     38  H   UNL     1     -12.129   3.314  16.980  0.00  0.00    +0.000 HD
ENDBRANCH   1  35
BRANCH  12  39
ATOM     39  O   UNL     1      -9.791  -8.550  17.268  0.00  0.00    +0.000 OA
BRANCH  39  40
ATOM     40  C   UNL     1     -10.422  -9.470  16.378  0.00  0.00    +0.000 C 
ATOM     41  H   UNL     1     -10.474  -9.064  15.358  0.00  0.00    +0.000 HD
ATOM     42  H   UNL     1     -11.439  -9.694  16.722  0.00  0.00    +0.000 HD
BRANCH  40  43
ATOM     43  C   UNL     1      -9.623 -10.736  16.342  0.00  0.00    +0.000 A 
ATOM     44  C   UNL     1      -9.250 -11.364  17.537  0.00  0.00    +0.000 A 
ATOM     45  C   UNL     1      -8.510 -12.544  17.498  0.00  0.00    +0.000 A 
ATOM     46  C   UNL     1      -8.143 -13.096  16.274  0.00  0.00    +0.000 A 
ATOM     47  C   UNL     1      -8.506 -12.471  15.081  0.00  0.00    +0.000 A 
ATOM     48  C   UNL     1      -9.242 -11.292  15.114  0.00  0.00    +0.000 A 
ATOM     49  H   UNL     1      -9.522 -10.927  18.492  0.00  0.00    +0.000 HD
ATOM     50  H   UNL     1      -8.216 -13.023  18.425  0.00  0.00    +0.000 HD
ATOM     51  H   UNL     1      -7.564 -14.015  16.250  0.00  0.00    +0.000 HD
ATOM     52  H   UNL     1      -8.210 -12.900  14.126  0.00  0.00    +0.000 HD
ATOM     53  H   UNL     1      -9.511 -10.804  14.180  0.00  0.00    +0.000 HD
ENDBRANCH  40  43
ENDBRANCH  39  40
ENDBRANCH  12  39
TORSDOF 4
ENDMDL
MODEL 7
REMARK VINA RESULT:   -11.023      2.448      9.467
REMARK INTER + INTRA:         -13.660
REMARK INTER:                 -13.224
REMARK INTRA:                  -0.436
REMARK UNBOUND:                -0.382
REMARK  Name = 
REMARK  4 active torsions:
REMARK  status: ('A' for Active; 'I' for Inactive)
REMARK    1  A    between atoms: C_1  and  N_2
REMARK    2  A    between atoms: C_13  and  O_14
REMARK    3  A    between atoms: O_14  and  C_15
REMARK    4  A    between atoms: C_15  and  C_16
REMARK                            x       y       z     vdW  Elec       q    Type
REMARK                         _______ _______ _______ _____ _____    ______ ____
ROOT
ATOM      1  N   UNL     1      -9.011 -10.807  17.082  0.00  0.00    +0.000 N 
ATOM      2  C   UNL     1      -8.089 -11.787  17.395  0.00  0.00    +0.000 A 
ATOM      3  C   UNL     1      -8.072 -11.832  18.764  0.00  0.00    +0.000 A 
ATOM      4  C   UNL     1      -8.453 -10.534  19.182  0.00  0.00    +0.000 A 
ATOM      5  C   UNL     1      -8.278  -9.904  20.424  0.00  0.00    +0.000 A 
ATOM      6  C   UNL     1      -8.326  -8.524  20.464  0.00  0.00    +0.000 A 
ATOM      7  C   UNL     1      -8.698  -7.821  19.320  0.00  0.00    +0.000 A 
ATOM      8  C   UNL     1      -8.563  -6.424  19.309  0.00  0.00    +0.000 A 
ATOM      9  N   UNL     1      -8.296  -5.530  20.306  0.00  0.00    +0.000 N 
ATOM     10  C   UNL     1      -8.783  -4.294  19.943  0.00  0.00    +0.000 A 
ATOM     11  C   UNL     1      -9.073  -3.216  20.770  0.00  0.00    +0.000 A 
ATOM     12  C   UNL     1      -9.578  -2.058  20.178  0.00  0.00    +0.000 A 
ATOM     13  C   UNL     1      -9.811  -2.008  18.808  0.00  0.00    +0.000 A 
ATOM     14  C   UNL     1      -9.519  -3.102  17.988  0.00  0.00    +0.000 A 
ATOM     15  C   UNL     1      -9.009  -4.290  18.561  0.00  0.00    +0.000 A 
ATOM     16  C   UNL     1      -8.756  -5.623  18.213  0.00  0.00    +0.000 A 
ATOM     17  C   UNL     1      -9.292  -6.197  17.027  0.00  0.00    +0.000 A 
ATOM     18  C   UNL     1      -9.777  -7.524  17.224  0.00  0.00    +0.000 A 
ATOM     19  C   UNL     1      -9.241  -8.433  18.162  0.00  0.00    +0.000 A 
ATOM     20  C   UNL     1      -8.985  -9.832  18.071  0.00  0.00    +0.000 A 
ATOM     21  C   UNL     1     -11.173  -7.361  16.831  0.00  0.00    +0.000 C 
ATOM     22  O   UNL     1     -12.217  -7.780  17.318  0.00  0.00    +0.000 OA
ATOM     23  N   UNL     1     -11.152  -6.298  15.942  0.00  0.00    +0.000 N 
ATOM     24  C   UNL     1     -10.007  -5.553  15.968  0.00  0.00    +0.000 C 
ATOM     25  O   UNL     1      -9.798  -4.586  15.272  0.00  0.00    +0.000 OA
ATOM     26  H   UNL     1      -7.711 -12.477  16.652  0.00  0.00    +0.000 HD
ATOM     27  H   UNL     1      -7.636 -12.610  19.374  0.00  0.00    +0.000 HD
ATOM     28  H   UNL     1      -7.915 -10.467  21.281  0.00  0.00    +0.000 HD
ATOM     29  H   UNL     1      -8.006  -8.027  21.381  0.00  0.00    +0.000 HD
ATOM     30  H   UNL     1      -8.083  -5.786  21.256  0.00  0.00    +0.000 HD
ATOM     31  H   UNL     1      -8.929  -3.317  21.839  0.00  0.00    +0.000 HD
ATOM     32  H   UNL     1     -10.253  -1.108  18.365  0.00  0.00    +0.000 HD
ATOM     33  H   UNL     1      -9.735  -3.020  16.928  0.00  0.00    +0.000 HD
ATOM     34  H   UNL     1     -11.998  -5.807  15.699  0.00  0.00    +0.000 HD
ENDROOT
BRANCH   1  35
ATOM     35  C   UNL     1     -10.035 -11.126  16.116  0.00  0.00    +0.000 C 
ATOM     36  H   UNL     1      -9.580 -11.409  15.165  0.00  0.00    +0.000 HD
ATOM     37  H   UNL     1     -10.732 -10.288  16.030  0.00  0.00    +0.000 HD
ATOM     38  H   UNL     1     -10.597 -11.985  16.507  0.00  0.00    +0.000 HD
ENDBRANCH   1  35
BRANCH  12  39
ATOM     39  O   UNL     1      -9.876  -0.926  20.887  0.00  0.00    +0.000 OA
BRANCH  39  40
ATOM     40  C   UNL     1     -10.931  -1.105  21.831  0.00  0.00    +0.000 C 
ATOM     41  H   UNL     1     -11.528  -1.997  21.596  0.00  0.00    +0.000 HD
ATOM     42  H   UNL     1     -11.591  -0.228  21.833  0.00  0.00    +0.000 HD
BRANCH  40  43
ATOM     43  C   UNL     1     -10.339  -1.280  23.195  0.00  0.00    +0.000 A 
ATOM     44  C   UNL     1     -10.734  -2.357  23.999  0.00  0.00    +0.000 A 
ATOM     45  C   UNL     1     -10.176  -2.517  25.265  0.00  0.00    +0.000 A 
ATOM     46  C   UNL     1      -9.229  -1.608  25.731  0.00  0.00    +0.000 A 
ATOM     47  C   UNL     1      -8.838  -0.531  24.937  0.00  0.00    +0.000 A 
ATOM     48  C   UNL     1      -9.393  -0.364  23.673  0.00  0.00    +0.000 A 
ATOM     49  H   UNL     1     -11.483  -3.058  23.645  0.00  0.00    +0.000 HD
ATOM     50  H   UNL     1     -10.490  -3.347  25.889  0.00  0.00    +0.000 HD
ATOM     51  H   UNL     1      -8.800  -1.737  26.720  0.00  0.00    +0.000 HD
ATOM     52  H   UNL     1      -8.105   0.184  25.306  0.00  0.00    +0.000 HD
ATOM     53  H   UNL     1      -9.091   0.486  23.064  0.00  0.00    +0.000 HD
ENDBRANCH  40  43
ENDBRANCH  39  40
ENDBRANCH  12  39
TORSDOF 4
ENDMDL
MODEL 8
REMARK VINA RESULT:   -10.769      5.327      7.369
REMARK INTER + INTRA:         -13.354
REMARK INTER:                 -12.955
REMARK INTRA:                  -0.399
REMARK UNBOUND:                -0.382
REMARK  Name = 
REMARK  4 active torsions:
REMARK  status: ('A' for Active; 'I' for Inactive)
REMARK    1  A    between atoms: C_1  and  N_2
REMARK    2  A    between atoms: C_13  and  O_14
REMARK    3  A    between atoms: O_14  and  C_15
REMARK    4  A    between atoms: C_15  and  C_16
REMARK                            x       y       z     vdW  Elec       q    Type
REMARK                         _______ _______ _______ _____ _____    ______ ____
ROOT
ATOM      1  N   UNL     1     -12.556   0.491  12.246  0.00  0.00    +0.000 N 
ATOM      2  C   UNL     1     -12.341   0.649  10.890  0.00  0.00    +0.000 A 
ATOM      3  C   UNL     1     -12.860  -0.482  10.317  0.00  0.00    +0.000 A 
ATOM      4  C   UNL     1     -12.767  -1.480  11.316  0.00  0.00    +0.000 A 
ATOM      5  C   UNL     1     -12.816  -2.877  11.196  0.00  0.00    +0.000 A 
ATOM      6  C   UNL     1     -12.273  -3.637  12.214  0.00  0.00    +0.000 A 
ATOM      7  C   UNL     1     -11.845  -3.006  13.380  0.00  0.00    +0.000 A 
ATOM      8  C   UNL     1     -11.126  -3.751  14.328  0.00  0.00    +0.000 A 
ATOM      9  N   UNL     1     -10.894  -5.091  14.444  0.00  0.00    +0.000 N 
ATOM     10  C   UNL     1     -10.622  -5.388  15.761  0.00  0.00    +0.000 A 
ATOM     11  C   UNL     1     -10.703  -6.624  16.389  0.00  0.00    +0.000 A 
ATOM     12  C   UNL     1     -10.394  -6.686  17.748  0.00  0.00    +0.000 A 
ATOM     13  C   UNL     1     -10.050  -5.534  18.448  0.00  0.00    +0.000 A 
ATOM     14  C   UNL     1      -9.976  -4.296  17.803  0.00  0.00    +0.000 A 
ATOM     15  C   UNL     1     -10.287  -4.203  16.428  0.00  0.00    +0.000 A 
ATOM     16  C   UNL     1     -10.527  -3.231  15.446  0.00  0.00    +0.000 A 
ATOM     17  C   UNL     1     -10.769  -1.872  15.790  0.00  0.00    +0.000 A 
ATOM     18  C   UNL     1     -11.815  -1.285  15.018  0.00  0.00    +0.000 A 
ATOM     19  C   UNL     1     -12.121  -1.650  13.689  0.00  0.00    +0.000 A 
ATOM     20  C   UNL     1     -12.483  -0.860  12.559  0.00  0.00    +0.000 A 
ATOM     21  C   UNL     1     -12.742  -0.893  16.076  0.00  0.00    +0.000 C 
ATOM     22  O   UNL     1     -13.962  -0.970  16.167  0.00  0.00    +0.000 OA
ATOM     23  N   UNL     1     -11.932  -0.709  17.184  0.00  0.00    +0.000 N 
ATOM     24  C   UNL     1     -10.680  -1.246  17.074  0.00  0.00    +0.000 C 
ATOM     25  O   UNL     1      -9.829  -1.194  17.931  0.00  0.00    +0.000 OA
ATOM     26  H   UNL     1     -12.051   1.600  10.463  0.00  0.00    +0.000 HD
ATOM     27  H   UNL     1     -13.068  -0.630   9.267  0.00  0.00    +0.000 HD
ATOM     28  H   UNL     1     -13.084  -3.340  10.248  0.00  0.00    +0.000 HD
ATOM     29  H   UNL     1     -12.140  -4.705  12.041  0.00  0.00    +0.000 HD
ATOM     30  H   UNL     1     -11.186  -5.778  13.768  0.00  0.00    +0.000 HD
ATOM     31  H   UNL     1     -11.030  -7.486  15.820  0.00  0.00    +0.000 HD
ATOM     32  H   UNL     1      -9.857  -5.591  19.525  0.00  0.00    +0.000 HD
ATOM     33  H   UNL     1      -9.721  -3.424  18.397  0.00  0.00    +0.000 HD
ATOM     34  H   UNL     1     -12.321  -0.675  18.113  0.00  0.00    +0.000 HD
ENDROOT
BRANCH   1  35
ATOM     35  C   UNL     1     -13.171   1.582  12.964  0.00  0.00    +0.000 C 
ATOM     36  H   UNL     1     -13.458   2.374  12.272  0.00  0.00    +0.000 HD
ATOM     37  H   UNL     1     -12.500   1.922  13.758  0.00  0.00    +0.000 HD
ATOM     38  H   UNL     1     -14.077   1.187  13.444  0.00  0.00    +0.000 HD
ENDBRANCH   1  35
BRANCH  12  39
ATOM     39  O   UNL     1     -10.414  -7.850  18.467  0.00  0.00    +0.000 OA
BRANCH  39  40
ATOM     40  C   UNL     1      -9.114  -8.349  18.780  0.00  0.00    +0.000 C 
ATOM     41  H   UNL     1      -8.966  -8.418  19.866  0.00  0.00    +0.000 HD
ATOM     42  H   UNL     1      -8.344  -7.692  18.359  0.00  0.00    +0.000 HD
BRANCH  40  43
ATOM     43  C   UNL     1      -8.967  -9.720  18.196  0.00  0.00    +0.000 A 
ATOM     44  C   UNL     1      -8.460 -10.765  18.978  0.00  0.00    +0.000 A 
ATOM     45  C   UNL     1      -8.329 -12.040  18.431  0.00  0.00    +0.000 A 
ATOM     46  C   UNL     1      -8.699 -12.272  17.109  0.00  0.00    +0.000 A 
ATOM     47  C   UNL     1      -9.198 -11.234  16.324  0.00  0.00    +0.000 A 
ATOM     48  C   UNL     1      -9.328  -9.959  16.864  0.00  0.00    +0.000 A 
ATOM     49  H   UNL     1      -8.157 -10.583  20.004  0.00  0.00    +0.000 HD
ATOM     50  H   UNL     1      -7.929 -12.845  19.037  0.00  0.00    +0.000 HD
ATOM     51  H   UNL     1      -8.592 -13.268  16.687  0.00  0.00    +0.000 HD
ATOM     52  H   UNL     1      -9.477 -11.416  15.288  0.00  0.00    +0.000 HD
ATOM     53  H   UNL     1      -9.707  -9.150  16.241  0.00  0.00    +0.000 HD
ENDBRANCH  40  43
ENDBRANCH  39  40
ENDBRANCH  12  39
TORSDOF 4
ENDMDL
MODEL 9
REMARK VINA RESULT:   -10.006      4.007      5.612
REMARK INTER + INTRA:         -12.435
REMARK INTER:                 -12.024
REMARK INTRA:                  -0.411
REMARK UNBOUND:                -0.382
REMARK  Name = 
REMARK  4 active torsions:
REMARK  status: ('A' for Active; 'I' for Inactive)
REMARK    1  A    between atoms: C_1  and  N_2
REMARK    2  A    between atoms: C_13  and  O_14
REMARK    3  A    between atoms: O_14  and  C_15
REMARK    4  A    between atoms: C_15  and  C_16
REMARK                            x       y       z     vdW  Elec       q    Type
REMARK                         _______ _______ _______ _____ _____    ______ ____
ROOT
ATOM      1  N   UNL     1     -11.162   2.216  15.872  0.00  0.00    +0.000 N 
ATOM      2  C   UNL     1     -12.070   3.018  16.536  0.00  0.00    +0.000 A 
ATOM      3  C   UNL     1     -11.817   2.812  17.866  0.00  0.00    +0.000 A 
ATOM      4  C   UNL     1     -11.268   1.510  17.943  0.00  0.00    +0.000 A 
ATOM      5  C   UNL     1     -11.146   0.650  19.045  0.00  0.00    +0.000 A 
ATOM      6  C   UNL     1     -10.993  -0.701  18.802  0.00  0.00    +0.000 A 
ATOM      7  C   UNL     1     -10.808  -1.141  17.494  0.00  0.00    +0.000 A 
ATOM      8  C   UNL     1     -10.842  -2.519  17.231  0.00  0.00    +0.000 A 
ATOM      9  N   UNL     1     -10.840  -3.602  18.062  0.00  0.00    +0.000 N 
ATOM     10  C   UNL     1     -10.348  -4.693  17.379  0.00  0.00    +0.000 A 
ATOM     11  C   UNL     1      -9.823  -5.864  17.909  0.00  0.00    +0.000 A 
ATOM     12  C   UNL     1      -9.365  -6.835  17.018  0.00  0.00    +0.000 A 
ATOM     13  C   UNL     1      -9.407  -6.611  15.646  0.00  0.00    +0.000 A 
ATOM     14  C   UNL     1      -9.935  -5.425  15.127  0.00  0.00    +0.000 A 
ATOM     15  C   UNL     1     -10.403  -4.423  16.006  0.00  0.00    +0.000 A 
ATOM     16  C   UNL     1     -10.815  -3.084  15.982  0.00  0.00    +0.000 A 
ATOM     17  C   UNL     1     -10.570  -2.251  14.855  0.00  0.00    +0.000 A 
ATOM     18  C   UNL     1     -10.151  -0.937  15.219  0.00  0.00    +0.000 A 
ATOM     19  C   UNL     1     -10.552  -0.275  16.400  0.00  0.00    +0.000 A 
ATOM     20  C   UNL     1     -10.920   1.081  16.637  0.00  0.00    +0.000 A 
ATOM     21  C   UNL     1      -8.854  -0.874  14.553  0.00  0.00    +0.000 C 
ATOM     22  O   UNL     1      -7.767  -0.439  14.915  0.00  0.00    +0.000 OA
ATOM     23  N   UNL     1      -8.976  -1.755  13.491  0.00  0.00    +0.000 N 
ATOM     24  C   UNL     1     -10.036  -2.612  13.577  0.00  0.00    +0.000 C 
ATOM     25  O   UNL     1     -10.311  -3.454  12.754  0.00  0.00    +0.000 OA
ATOM     26  H   UNL     1     -12.638   3.785  16.025  0.00  0.00    +0.000 HD
ATOM     27  H   UNL     1     -12.176   3.416  18.688  0.00  0.00    +0.000 HD
ATOM     28  H   UNL     1     -11.370   1.006  20.048  0.00  0.00    +0.000 HD
ATOM     29  H   UNL     1     -11.087  -1.387  19.645  0.00  0.00    +0.000 HD
ATOM     30  H   UNL     1     -10.877  -3.547  19.068  0.00  0.00    +0.000 HD
ATOM     31  H   UNL     1      -9.757  -5.974  18.986  0.00  0.00    +0.000 HD
ATOM     32  H   UNL     1      -9.000  -7.363  14.961  0.00  0.00    +0.000 HD
ATOM     33  H   UNL     1      -9.930  -5.291  14.050  0.00  0.00    +0.000 HD
ATOM     34  H   UNL     1      -8.163  -2.099  13.005  0.00  0.00    +0.000 HD
ENDROOT
BRANCH   1  35
ATOM     35  C   UNL     1     -10.377   2.813  14.818  0.00  0.00    +0.000 C 
ATOM     36  H   UNL     1      -9.524   2.177  14.577  0.00  0.00    +0.000 HD
ATOM     37  H   UNL     1     -10.092   3.829  15.104  0.00  0.00    +0.000 HD
ATOM     38  H   UNL     1     -11.023   2.887  13.932  0.00  0.00    +0.000 HD
ENDBRANCH   1  35
BRANCH  12  39
ATOM     39  O   UNL     1      -8.851  -8.037  17.423  0.00  0.00    +0.000 OA
BRANCH  39  40
ATOM     40  C   UNL     1      -9.844  -9.044  17.620  0.00  0.00    +0.000 C 
ATOM     41  H   UNL     1     -10.772  -8.797  17.087  0.00  0.00    +0.000 HD
ATOM     42  H   UNL     1     -10.067  -9.151  18.689  0.00  0.00    +0.000 HD
BRANCH  40  43
ATOM     43  C   UNL     1      -9.327 -10.346  17.091  0.00  0.00    +0.000 A 
ATOM     44  C   UNL     1      -9.271 -10.569  15.710  0.00  0.00    +0.000 A 
ATOM     45  C   UNL     1      -8.785 -11.781  15.223  0.00  0.00    +0.000 A 
ATOM     46  C   UNL     1      -8.358 -12.767  16.108  0.00  0.00    +0.000 A 
ATOM     47  C   UNL     1      -8.418 -12.552  17.484  0.00  0.00    +0.000 A 
ATOM     48  C   UNL     1      -8.904 -11.346  17.976  0.00  0.00    +0.000 A 
ATOM     49  H   UNL     1      -9.618  -9.808  15.018  0.00  0.00    +0.000 HD
ATOM     50  H   UNL     1      -8.750 -11.953  14.153  0.00  0.00    +0.000 HD
ATOM     51  H   UNL     1      -7.983 -13.710  15.722  0.00  0.00    +0.000 HD
ATOM     52  H   UNL     1      -8.092 -13.328  18.174  0.00  0.00    +0.000 HD
ATOM     53  H   UNL     1      -8.959 -11.190  19.052  0.00  0.00    +0.000 HD
ENDBRANCH  40  43
ENDBRANCH  39  40
ENDBRANCH  12  39
TORSDOF 4
ENDMDL
