REMARK  Name = 
REMARK  7 active torsions:
REMARK  status: ('A' for Active; 'I' for Inactive)
REMARK    1  A    between atoms: C_1  and  N_2
REMARK    2  A    between atoms: N_2  and  C_3
REMARK    3  A    between atoms: C_3  and  C_4
REMARK    4  A    between atoms: C_4  and  C_5
REMARK    5  A    between atoms: C_5  and  N_6
REMARK    6  A    between atoms: C_8  and  C_9
REMARK    7  A    between atoms: C_10  and  C_11
REMARK                            x       y       z     vdW  Elec       q    Type
REMARK                         _______ _______ _______ _____ _____    ______ ____
ROOT
ATOM      1  N   UNL     1      -1.025  -1.756   0.755  0.00  0.00    +0.000 N 
ATOM      2  C   UNL     1      -0.659  -1.660   2.109  0.00  0.00    +0.000 A 
ATOM      3  C   UNL     1       0.601  -1.101   1.865  0.00  0.00    +0.000 A 
ATOM      4  C   UNL     1       1.133  -2.078   0.985  0.00  0.00    +0.000 A 
ATOM      5  C   UNL     1       2.361  -2.757   0.851  0.00  0.00    +0.000 A 
ATOM      6  C   UNL     1       2.476  -3.782  -0.096  0.00  0.00    +0.000 A 
ATOM      7  C   UNL     1       1.367  -4.170  -0.854  0.00  0.00    +0.000 A 
ATOM      8  C   UNL     1       0.110  -3.560  -0.701  0.00  0.00    +0.000 A 
ATOM      9  C   UNL     1       0.009  -2.522   0.235  0.00  0.00    +0.000 A 
ATOM     10  H   UNL     1      -0.861  -2.590   2.646  0.00  0.00    +0.000 HD
ATOM     11  H   UNL     1       3.166  -2.590   1.564  0.00  0.00    +0.000 HD
ATOM     12  H   UNL     1       3.419  -4.317  -0.196  0.00  0.00    +0.000 HD
ATOM     13  H   UNL     1       1.478  -5.015  -1.537  0.00  0.00    +0.000 HD
ATOM     14  H   UNL     1      -0.760  -3.966  -1.201  0.00  0.00    +0.000 HD
ENDROOT
BRANCH   3  15
ATOM     15  C   UNL     1       0.709   0.317   1.988  0.00  0.00    +0.000 C 
ATOM     16  C   UNL     1       1.126   1.337   1.220  0.00  0.00    +0.000 C 
ATOM     17  C   UNL     1       0.595   2.586   1.882  0.00  0.00    +0.000 C 
ATOM     18  O   UNL     1       0.649   3.726   1.466  0.00  0.00    +0.000 OA
ATOM     19  N   UNL     1      -0.000   2.239   3.033  0.00  0.00    +0.000 N 
ATOM     20  C   UNL     1       0.081   0.927   3.221  0.00  0.00    +0.000 C 
ATOM     21  O   UNL     1      -0.267   0.351   4.224  0.00  0.00    +0.000 OA
ATOM     22  H   UNL     1      -0.406   2.896   3.693  0.00  0.00    +0.000 HD
BRANCH  16  23
ATOM     23  C   UNL     1       1.892   1.487   0.015  0.00  0.00    +0.000 A 
ATOM     24  C   UNL     1       2.857   2.482  -0.023  0.00  0.00    +0.000 A 
ATOM     25  N   UNL     1       3.435   2.506  -1.253  0.00  0.00    +0.000 N 
ATOM     26  C   UNL     1       2.911   1.514  -2.036  0.00  0.00    +0.000 A 
ATOM     27  C   UNL     1       3.258   1.168  -3.349  0.00  0.00    +0.000 A 
ATOM     28  C   UNL     1       2.545   0.147  -3.971  0.00  0.00    +0.000 A 
ATOM     29  C   UNL     1       1.499  -0.475  -3.301  0.00  0.00    +0.000 A 
ATOM     30  C   UNL     1       1.165  -0.111  -1.984  0.00  0.00    +0.000 A 
ATOM     31  C   UNL     1       1.900   0.879  -1.294  0.00  0.00    +0.000 A 
ATOM     32  H   UNL     1       3.147   3.217   0.719  0.00  0.00    +0.000 HD
ATOM     33  H   UNL     1       4.134   3.171  -1.557  0.00  0.00    +0.000 HD
ATOM     34  H   UNL     1       4.062   1.678  -3.871  0.00  0.00    +0.000 HD
ATOM     35  H   UNL     1       2.804  -0.151  -4.983  0.00  0.00    +0.000 HD
ATOM     36  H   UNL     1       0.935  -1.259  -3.805  0.00  0.00    +0.000 HD
ATOM     37  H   UNL     1       0.332  -0.609  -1.515  0.00  0.00    +0.000 HD
ENDBRANCH  16  23
ENDBRANCH   3  15
BRANCH   1  38
ATOM     38  C   UNL     1      -2.304  -1.234   0.272  0.00  0.00    +0.000 C 
ATOM     39  H   UNL     1      -2.616  -1.845  -0.576  0.00  0.00    +0.000 HD
ATOM     40  H   UNL     1      -3.011  -1.380   1.097  0.00  0.00    +0.000 HD
BRANCH  38  41
ATOM     41  C   UNL     1      -2.274   0.277  -0.091  0.00  0.00    +0.000 C 
ATOM     42  H   UNL     1      -1.855   0.868   0.731  0.00  0.00    +0.000 HD
ATOM     43  H   UNL     1      -1.587   0.417  -0.933  0.00  0.00    +0.000 HD
BRANCH  41  44
ATOM     44  C   UNL     1      -3.618   0.909  -0.517  0.00  0.00    +0.000 C 
ATOM     45  H   UNL     1      -3.425   1.891  -0.971  0.00  0.00    +0.000 HD
ATOM     46  H   UNL     1      -4.043   0.292  -1.316  0.00  0.00    +0.000 HD
BRANCH  44  47
ATOM     47  N   UNL     1      -4.657   1.064   0.508  0.00  0.00    +0.000 NA
ATOM     48  H   UNL     1      -5.517   1.356   0.035  0.00  0.00    +0.000 HD
BRANCH  47  49
ATOM     49  C   UNL     1      -4.360   2.101   1.497  0.00  0.00    +0.000 C 
ATOM     50  H   UNL     1      -5.207   2.187   2.189  0.00  0.00    +0.000 HD
ATOM     51  H   UNL     1      -4.223   3.086   1.037  0.00  0.00    +0.000 HD
ATOM     52  H   UNL     1      -3.481   1.851   2.095  0.00  0.00    +0.000 HD
ENDBRANCH  47  49
ENDBRANCH  44  47
ENDBRANCH  41  44
ENDBRANCH  38  41
ENDBRANCH   1  38
TORSDOF 7
