REMARK  Name = 
REMARK  2 active torsions:
REMARK  status: ('A' for Active; 'I' for Inactive)
REMARK    1  A    between atoms: C_6  and  C_7
REMARK    2  A    between atoms: C_15  and  O_16
REMARK                            x       y       z     vdW  Elec       q    Type
REMARK                         _______ _______ _______ _____ _____    ______ ____
ROOT
ATOM      1  C   UNL     1      -0.104   0.361   0.634  0.00  0.00    +0.000 A 
ATOM      2  C   UNL     1      -0.226   1.370   1.574  0.00  0.00    +0.000 A 
ATOM      3  N   UNL     1       0.592   2.403   1.214  0.00  0.00    +0.000 N 
ATOM      4  C   UNL     1       1.248   2.106   0.041  0.00  0.00    +0.000 A 
ATOM      5  C   UNL     1       2.178   2.869  -0.679  0.00  0.00    +0.000 A 
ATOM      6  C   UNL     1       2.681   2.325  -1.863  0.00  0.00    +0.000 A 
ATOM      7 BR   UNL     1       3.952   3.307  -2.866  0.00  0.00    +0.000 Br
ATOM      8  C   UNL     1       2.265   1.084  -2.328  0.00  0.00    +0.000 A 
ATOM      9  C   UNL     1       1.327   0.346  -1.599  0.00  0.00    +0.000 A 
ATOM     10  C   UNL     1       0.814   0.839  -0.371  0.00  0.00    +0.000 A 
ATOM     11  H   UNL     1      -0.825   1.426   2.474  0.00  0.00    +0.000 HD
ATOM     12  H   UNL     1       0.700   3.266   1.731  0.00  0.00    +0.000 HD
ATOM     13  H   UNL     1       2.495   3.846  -0.328  0.00  0.00    +0.000 HD
ATOM     14  H   UNL     1       2.670   0.693  -3.256  0.00  0.00    +0.000 HD
ENDROOT
BRANCH   1  20
ATOM     15  N   UNL     1      -3.939  -2.007   2.045  0.00  0.00    +0.000 N 
ATOM     16  C   UNL     1      -2.704  -2.016   1.429  0.00  0.00    +0.000 A 
ATOM     17  N   UNL     1      -2.290  -3.184   0.933  0.00  0.00    +0.000 NA
ATOM     18  C   UNL     1      -1.069  -3.192   0.375  0.00  0.00    +0.000 A 
ATOM     19  C   UNL     1      -0.274  -2.080   0.291  0.00  0.00    +0.000 A 
ATOM     20  C   UNL     1      -0.824  -0.905   0.751  0.00  0.00    +0.000 A 
ATOM     21  N   UNL     1      -2.038  -0.861   1.343  0.00  0.00    +0.000 NA
ATOM     22  H   UNL     1      -4.493  -2.769   1.685  0.00  0.00    +0.000 HD
ATOM     23  H   UNL     1      -4.334  -1.078   1.997  0.00  0.00    +0.000 HD
ATOM     24  H   UNL     1      -0.738  -4.147  -0.017  0.00  0.00    +0.000 HD
ATOM     25  H   UNL     1       0.720  -2.139  -0.127  0.00  0.00    +0.000 HD
ENDBRANCH   1  20
BRANCH   9  26
ATOM     26  O   UNL     1       0.903  -0.860  -2.106  0.00  0.00    +0.000 OA
ATOM     27  H   UNL     1       1.311  -1.002  -2.975  0.00  0.00    +0.000 HD
ENDBRANCH   9  26
TORSDOF 2
