MODEL 1
REMARK VINA RESULT:    -7.792      0.000      0.000
REMARK INTER + INTRA:          -9.802
REMARK INTER:                  -9.614
REMARK INTRA:                  -0.188
REMARK UNBOUND:                -0.188
REMARK  Name = 
REMARK  6 active torsions:
REMARK  status: ('A' for Active; 'I' for Inactive)
REMARK    1  A    between atoms: C_1  and  N_2
REMARK    2  A    between atoms: N_2  and  C_3
REMARK    3  A    between atoms: C_7  and  C_8
REMARK    4  A    between atoms: C_9  and  O_10
REMARK    5  A    between atoms: O_10  and  C_11
REMARK    6  A    between atoms: C_35  and  O_36
REMARK                            x       y       z     vdW  Elec       q    Type
REMARK                         _______ _______ _______ _____ _____    ______ ____
ROOT
ATOM      1  C   UNL     1      -9.952  -7.482  15.453  0.00  0.00    +0.000 C 
ATOM      2  C   UNL     1     -10.136  -6.025  15.033  0.00  0.00    +0.000 C 
ATOM      3  C   UNL     1     -11.239  -5.315  15.784  0.00  0.00    +0.000 C 
ATOM      4  O   UNL     1     -11.585  -5.946  17.019  0.00  0.00    +0.000 OA
ATOM      5  C   UNL     1     -10.442  -6.455  17.766  0.00  0.00    +0.000 C 
ATOM      6  C   UNL     1     -10.026  -7.748  17.018  0.00  0.00    +0.000 C 
ATOM      7  N   UNL     1      -9.412  -5.410  17.864  0.00  0.00    +0.000 N 
ATOM      8  C   UNL     1      -8.226  -5.424  18.614  0.00  0.00    +0.000 A 
ATOM      9  C   UNL     1      -7.085  -6.217  18.426  0.00  0.00    +0.000 A 
ATOM     10  C   UNL     1      -6.095  -6.191  19.399  0.00  0.00    +0.000 A 
ATOM     11  C   UNL     1      -6.231  -5.388  20.528  0.00  0.00    +0.000 A 
ATOM     12  C   UNL     1      -7.278  -4.457  20.638  0.00  0.00    +0.000 A 
ATOM     13  C   UNL     1      -8.253  -4.379  19.621  0.00  0.00    +0.000 A 
ATOM     14  C   UNL     1      -9.251  -3.449  19.203  0.00  0.00    +0.000 A 
ATOM     15  C   UNL     1      -9.480  -2.121  19.590  0.00  0.00    +0.000 A 
ATOM     16  C   UNL     1     -10.255  -1.355  18.660  0.00  0.00    +0.000 A 
ATOM     17  C   UNL     1     -10.713  -2.086  17.543  0.00  0.00    +0.000 A 
ATOM     18  C   UNL     1     -11.531  -1.729  16.436  0.00  0.00    +0.000 A 
ATOM     19  C   UNL     1     -12.476  -0.738  16.121  0.00  0.00    +0.000 A 
ATOM     20  C   UNL     1     -13.068  -0.724  14.845  0.00  0.00    +0.000 A 
ATOM     21  C   UNL     1     -12.645  -1.580  13.833  0.00  0.00    +0.000 A 
ATOM     22  C   UNL     1     -11.775  -2.626  14.114  0.00  0.00    +0.000 A 
ATOM     23  C   UNL     1     -11.390  -2.787  15.445  0.00  0.00    +0.000 A 
ATOM     24  N   UNL     1     -10.897  -3.935  16.056  0.00  0.00    +0.000 N 
ATOM     25  C   UNL     1     -10.486  -3.411  17.213  0.00  0.00    +0.000 A 
ATOM     26  C   UNL     1      -9.753  -4.136  18.117  0.00  0.00    +0.000 A 
ATOM     27  C   UNL     1     -10.284  -0.004  19.098  0.00  0.00    +0.000 C 
ATOM     28  O   UNL     1     -10.715   1.029  18.607  0.00  0.00    +0.000 OA
ATOM     29  N   UNL     1      -9.668  -0.058  20.349  0.00  0.00    +0.000 N 
ATOM     30  C   UNL     1      -9.065  -1.313  20.726  0.00  0.00    +0.000 C 
ATOM     31  H   UNL     1     -10.799  -8.048  15.033  0.00  0.00    +0.000 HD
ATOM     32  H   UNL     1     -10.369  -5.950  13.963  0.00  0.00    +0.000 HD
ATOM     33  H   UNL     1      -9.183  -5.484  15.151  0.00  0.00    +0.000 HD
ATOM     34  H   UNL     1     -12.157  -5.304  15.186  0.00  0.00    +0.000 HD
ATOM     35  H   UNL     1     -10.859  -8.464  17.131  0.00  0.00    +0.000 HD
ATOM     36  H   UNL     1      -6.980  -6.844  17.541  0.00  0.00    +0.000 HD
ATOM     37  H   UNL     1      -5.220  -6.827  19.275  0.00  0.00    +0.000 HD
ATOM     38  H   UNL     1      -5.478  -5.448  21.308  0.00  0.00    +0.000 HD
ATOM     39  H   UNL     1      -7.308  -3.787  21.492  0.00  0.00    +0.000 HD
ATOM     40  H   UNL     1     -12.805  -0.036  16.880  0.00  0.00    +0.000 HD
ATOM     41  H   UNL     1     -13.871  -0.023  14.633  0.00  0.00    +0.000 HD
ATOM     42  H   UNL     1     -13.030  -1.480  12.825  0.00  0.00    +0.000 HD
ATOM     43  H   UNL     1     -11.459  -3.323  13.345  0.00  0.00    +0.000 HD
ATOM     44  H   UNL     1      -9.759   0.715  20.988  0.00  0.00    +0.000 HD
ATOM     45  H   UNL     1      -7.984  -1.211  20.835  0.00  0.00    +0.000 HD
ENDROOT
BRANCH   5  46
ATOM     46  C   UNL     1     -11.050  -6.710  19.167  0.00  0.00    +0.000 C 
ATOM     47  H   UNL     1     -11.436  -5.776  19.598  0.00  0.00    +0.000 HD
ATOM     48  H   UNL     1     -10.337  -7.112  19.891  0.00  0.00    +0.000 HD
ATOM     49  H   UNL     1     -11.912  -7.384  19.108  0.00  0.00    +0.000 HD
ENDBRANCH   5  46
BRANCH   1  50
ATOM     50  N   UNL     1      -8.716  -8.012  14.840  0.00  0.00    +0.000 NA
ATOM     51  H   UNL     1      -7.948  -7.926  15.510  0.00  0.00    +0.000 HD
BRANCH  50  52
ATOM     52  C   UNL     1      -8.835  -9.370  14.338  0.00  0.00    +0.000 C 
ATOM     53  H   UNL     1      -9.877  -9.643  14.136  0.00  0.00    +0.000 HD
ATOM     54  H   UNL     1      -8.245  -9.509  13.422  0.00  0.00    +0.000 HD
ATOM     55  H   UNL     1      -8.433 -10.072  15.070  0.00  0.00    +0.000 HD
ENDBRANCH  50  52
ENDBRANCH   1  50
BRANCH  30  56
ATOM     56  O   UNL     1      -9.676  -1.708  21.929  0.00  0.00    +0.000 OA
ATOM     57  H   UNL     1      -9.737  -2.677  21.896  0.00  0.00    +0.000 HD
ENDBRANCH  30  56
BRANCH   6  58
ATOM     58  O   UNL     1      -8.866  -8.469  17.465  0.00  0.00    +0.000 OA
BRANCH  58  59
ATOM     59  C   UNL     1      -9.098  -9.738  18.059  0.00  0.00    +0.000 C 
ATOM     60  H   UNL     1      -8.128 -10.191  18.279  0.00  0.00    +0.000 HD
ATOM     61  H   UNL     1      -9.616  -9.637  19.015  0.00  0.00    +0.000 HD
ATOM     62  H   UNL     1      -9.660 -10.402  17.399  0.00  0.00    +0.000 HD
ENDBRANCH  58  59
ENDBRANCH   6  58
TORSDOF 6
ENDMDL
MODEL 2
REMARK VINA RESULT:    -7.643      4.235      6.680
REMARK INTER + INTRA:          -9.618
REMARK INTER:                  -9.379
REMARK INTRA:                  -0.239
REMARK UNBOUND:                -0.188
REMARK  Name = 
REMARK  6 active torsions:
REMARK  status: ('A' for Active; 'I' for Inactive)
REMARK    1  A    between atoms: C_1  and  N_2
REMARK    2  A    between atoms: N_2  and  C_3
REMARK    3  A    between atoms: C_7  and  C_8
REMARK    4  A    between atoms: C_9  and  O_10
REMARK    5  A    between atoms: O_10  and  C_11
REMARK    6  A    between atoms: C_35  and  O_36
REMARK                            x       y       z     vdW  Elec       q    Type
REMARK                         _______ _______ _______ _____ _____    ______ ____
ROOT
ATOM      1  C   UNL     1      -8.093  -3.051  22.053  0.00  0.00    +0.000 C 
ATOM      2  C   UNL     1      -8.341  -2.294  20.749  0.00  0.00    +0.000 C 
ATOM      3  C   UNL     1      -9.803  -2.189  20.382  0.00  0.00    +0.000 C 
ATOM      4  O   UNL     1     -10.685  -2.389  21.489  0.00  0.00    +0.000 OA
ATOM      5  C   UNL     1     -10.229  -1.775  22.729  0.00  0.00    +0.000 C 
ATOM      6  C   UNL     1      -9.096  -2.707  23.236  0.00  0.00    +0.000 C 
ATOM      7  N   UNL     1      -9.846  -0.378  22.477  0.00  0.00    +0.000 N 
ATOM      8  C   UNL     1      -9.493   0.610  23.410  0.00  0.00    +0.000 A 
ATOM      9  C   UNL     1      -8.350   0.677  24.218  0.00  0.00    +0.000 A 
ATOM     10  C   UNL     1      -8.293   1.656  25.201  0.00  0.00    +0.000 A 
ATOM     11  C   UNL     1      -9.343   2.554  25.370  0.00  0.00    +0.000 A 
ATOM     12  C   UNL     1     -10.407   2.612  24.453  0.00  0.00    +0.000 A 
ATOM     13  C   UNL     1     -10.452   1.699  23.378  0.00  0.00    +0.000 A 
ATOM     14  C   UNL     1     -11.135   1.592  22.130  0.00  0.00    +0.000 A 
ATOM     15  C   UNL     1     -11.908   2.529  21.429  0.00  0.00    +0.000 A 
ATOM     16  C   UNL     1     -12.055   2.253  20.031  0.00  0.00    +0.000 A 
ATOM     17  C   UNL     1     -11.451   1.049  19.608  0.00  0.00    +0.000 A 
ATOM     18  C   UNL     1     -11.403   0.394  18.347  0.00  0.00    +0.000 A 
ATOM     19  C   UNL     1     -12.132   0.400  17.146  0.00  0.00    +0.000 A 
ATOM     20  C   UNL     1     -11.720  -0.421  16.081  0.00  0.00    +0.000 A 
ATOM     21  C   UNL     1     -10.529  -1.137  16.127  0.00  0.00    +0.000 A 
ATOM     22  C   UNL     1      -9.816  -1.240  17.315  0.00  0.00    +0.000 A 
ATOM     23  C   UNL     1     -10.370  -0.628  18.439  0.00  0.00    +0.000 A 
ATOM     24  N   UNL     1     -10.112  -0.910  19.776  0.00  0.00    +0.000 N 
ATOM     25  C   UNL     1     -10.718   0.134  20.344  0.00  0.00    +0.000 A 
ATOM     26  C   UNL     1     -10.596   0.403  21.684  0.00  0.00    +0.000 A 
ATOM     27  C   UNL     1     -12.726   3.347  19.421  0.00  0.00    +0.000 C 
ATOM     28  O   UNL     1     -12.989   3.630  18.261  0.00  0.00    +0.000 OA
ATOM     29  N   UNL     1     -13.094   4.144  20.506  0.00  0.00    +0.000 N 
ATOM     30  C   UNL     1     -12.576   3.767  21.798  0.00  0.00    +0.000 C 
ATOM     31  H   UNL     1      -8.265  -4.119  21.842  0.00  0.00    +0.000 HD
ATOM     32  H   UNL     1      -7.827  -2.777  19.909  0.00  0.00    +0.000 HD
ATOM     33  H   UNL     1      -7.891  -1.290  20.815  0.00  0.00    +0.000 HD
ATOM     34  H   UNL     1     -10.065  -2.960  19.649  0.00  0.00    +0.000 HD
ATOM     35  H   UNL     1      -9.566  -3.675  23.482  0.00  0.00    +0.000 HD
ATOM     36  H   UNL     1      -7.528  -0.025  24.083  0.00  0.00    +0.000 HD
ATOM     37  H   UNL     1      -7.422   1.696  25.853  0.00  0.00    +0.000 HD
ATOM     38  H   UNL     1      -9.305   3.257  26.196  0.00  0.00    +0.000 HD
ATOM     39  H   UNL     1     -11.167   3.380  24.565  0.00  0.00    +0.000 HD
ATOM     40  H   UNL     1     -13.051   0.973  17.067  0.00  0.00    +0.000 HD
ATOM     41  H   UNL     1     -12.340  -0.495  15.190  0.00  0.00    +0.000 HD
ATOM     42  H   UNL     1     -10.169  -1.673  15.257  0.00  0.00    +0.000 HD
ATOM     43  H   UNL     1      -8.902  -1.821  17.379  0.00  0.00    +0.000 HD
ATOM     44  H   UNL     1     -13.784   4.867  20.387  0.00  0.00    +0.000 HD
ATOM     45  H   UNL     1     -11.909   4.537  22.192  0.00  0.00    +0.000 HD
ENDROOT
BRANCH   5  46
ATOM     46  C   UNL     1     -11.506  -1.809  23.605  0.00  0.00    +0.000 C 
ATOM     47  H   UNL     1     -12.150  -0.948  23.382  0.00  0.00    +0.000 HD
ATOM     48  H   UNL     1     -11.305  -1.775  24.678  0.00  0.00    +0.000 HD
ATOM     49  H   UNL     1     -12.112  -2.694  23.385  0.00  0.00    +0.000 HD
ENDBRANCH   5  46
BRANCH   1  50
ATOM     50  N   UNL     1      -6.675  -2.897  22.442  0.00  0.00    +0.000 NA
ATOM     51  H   UNL     1      -6.573  -3.136  23.430  0.00  0.00    +0.000 HD
BRANCH  50  52
ATOM     52  C   UNL     1      -5.746  -3.646  21.613  0.00  0.00    +0.000 C 
ATOM     53  H   UNL     1      -5.421  -4.574  22.096  0.00  0.00    +0.000 HD
ATOM     54  H   UNL     1      -6.189  -3.887  20.637  0.00  0.00    +0.000 HD
ATOM     55  H   UNL     1      -4.863  -3.040  21.407  0.00  0.00    +0.000 HD
ENDBRANCH  50  52
ENDBRANCH   1  50
BRANCH  30  56
ATOM     56  O   UNL     1     -13.687   3.561  22.633  0.00  0.00    +0.000 OA
ATOM     57  H   UNL     1     -13.487   2.770  23.160  0.00  0.00    +0.000 HD
ENDBRANCH  30  56
BRANCH   6  58
ATOM     58  O   UNL     1      -8.375  -2.343  24.424  0.00  0.00    +0.000 OA
BRANCH  58  59
ATOM     59  C   UNL     1      -8.785  -2.966  25.631  0.00  0.00    +0.000 C 
ATOM     60  H   UNL     1      -9.220  -2.200  26.278  0.00  0.00    +0.000 HD
ATOM     61  H   UNL     1      -9.573  -3.700  25.448  0.00  0.00    +0.000 HD
ATOM     62  H   UNL     1      -7.951  -3.440  26.152  0.00  0.00    +0.000 HD
ENDBRANCH  58  59
ENDBRANCH   6  58
TORSDOF 6
ENDMDL
MODEL 3
REMARK VINA RESULT:    -7.588      5.068      9.039
REMARK INTER + INTRA:          -9.549
REMARK INTER:                  -9.187
REMARK INTRA:                  -0.362
REMARK UNBOUND:                -0.188
REMARK  Name = 
REMARK  6 active torsions:
REMARK  status: ('A' for Active; 'I' for Inactive)
REMARK    1  A    between atoms: C_1  and  N_2
REMARK    2  A    between atoms: N_2  and  C_3
REMARK    3  A    between atoms: C_7  and  C_8
REMARK    4  A    between atoms: C_9  and  O_10
REMARK    5  A    between atoms: O_10  and  C_11
REMARK    6  A    between atoms: C_35  and  O_36
REMARK                            x       y       z     vdW  Elec       q    Type
REMARK                         _______ _______ _______ _____ _____    ______ ____
ROOT
ATOM      1  C   UNL     1     -11.104   4.110  19.015  0.00  0.00    +0.000 C 
ATOM      2  C   UNL     1     -10.094   3.957  20.152  0.00  0.00    +0.000 C 
ATOM      3  C   UNL     1     -10.735   3.745  21.504  0.00  0.00    +0.000 C 
ATOM      4  O   UNL     1     -12.082   3.274  21.428  0.00  0.00    +0.000 OA
ATOM      5  C   UNL     1     -12.308   2.285  20.382  0.00  0.00    +0.000 C 
ATOM      6  C   UNL     1     -12.333   3.104  19.065  0.00  0.00    +0.000 C 
ATOM      7  N   UNL     1     -11.282   1.235  20.466  0.00  0.00    +0.000 N 
ATOM      8  C   UNL     1     -11.209   0.029  19.752  0.00  0.00    +0.000 A 
ATOM      9  C   UNL     1     -10.973  -0.161  18.383  0.00  0.00    +0.000 A 
ATOM     10  C   UNL     1     -11.123  -1.437  17.858  0.00  0.00    +0.000 A 
ATOM     11  C   UNL     1     -11.490  -2.502  18.676  0.00  0.00    +0.000 A 
ATOM     12  C   UNL     1     -11.551  -2.361  20.073  0.00  0.00    +0.000 A 
ATOM     13  C   UNL     1     -11.306  -1.101  20.658  0.00  0.00    +0.000 A 
ATOM     14  C   UNL     1     -10.992  -0.598  21.956  0.00  0.00    +0.000 A 
ATOM     15  C   UNL     1     -10.614  -1.269  23.128  0.00  0.00    +0.000 A 
ATOM     16  C   UNL     1      -9.943  -0.450  24.092  0.00  0.00    +0.000 A 
ATOM     17  C   UNL     1      -9.833   0.909  23.727  0.00  0.00    +0.000 A 
ATOM     18  C   UNL     1      -9.295   2.041  24.400  0.00  0.00    +0.000 A 
ATOM     19  C   UNL     1      -8.988   2.414  25.720  0.00  0.00    +0.000 A 
ATOM     20  C   UNL     1      -8.420   3.676  25.969  0.00  0.00    +0.000 A 
ATOM     21  C   UNL     1      -8.019   4.516  24.934  0.00  0.00    +0.000 A 
ATOM     22  C   UNL     1      -8.371   4.230  23.621  0.00  0.00    +0.000 A 
ATOM     23  C   UNL     1      -9.160   3.099  23.410  0.00  0.00    +0.000 A 
ATOM     24  N   UNL     1      -9.972   2.820  22.316  0.00  0.00    +0.000 N 
ATOM     25  C   UNL     1     -10.247   1.538  22.566  0.00  0.00    +0.000 A 
ATOM     26  C   UNL     1     -10.901   0.746  21.657  0.00  0.00    +0.000 A 
ATOM     27  C   UNL     1      -9.488  -1.279  25.153  0.00  0.00    +0.000 C 
ATOM     28  O   UNL     1      -8.791  -1.078  26.136  0.00  0.00    +0.000 OA
ATOM     29  N   UNL     1     -10.052  -2.520  24.856  0.00  0.00    +0.000 N 
ATOM     30  C   UNL     1     -10.715  -2.647  23.581  0.00  0.00    +0.000 C 
ATOM     31  H   UNL     1     -11.557   5.109  19.119  0.00  0.00    +0.000 HD
ATOM     32  H   UNL     1      -9.453   4.844  20.230  0.00  0.00    +0.000 HD
ATOM     33  H   UNL     1      -9.403   3.130  19.921  0.00  0.00    +0.000 HD
ATOM     34  H   UNL     1     -10.779   4.690  22.054  0.00  0.00    +0.000 HD
ATOM     35  H   UNL     1     -13.219   3.761  19.115  0.00  0.00    +0.000 HD
ATOM     36  H   UNL     1     -10.684   0.674  17.745  0.00  0.00    +0.000 HD
ATOM     37  H   UNL     1     -10.971  -1.588  16.790  0.00  0.00    +0.000 HD
ATOM     38  H   UNL     1     -11.676  -3.472  18.223  0.00  0.00    +0.000 HD
ATOM     39  H   UNL     1     -11.758  -3.231  20.689  0.00  0.00    +0.000 HD
ATOM     40  H   UNL     1      -9.261   1.768  26.548  0.00  0.00    +0.000 HD
ATOM     41  H   UNL     1      -8.277   4.008  26.994  0.00  0.00    +0.000 HD
ATOM     42  H   UNL     1      -7.480   5.432  25.140  0.00  0.00    +0.000 HD
ATOM     43  H   UNL     1      -8.096   4.889  22.804  0.00  0.00    +0.000 HD
ATOM     44  H   UNL     1     -10.087  -3.239  25.560  0.00  0.00    +0.000 HD
ATOM     45  H   UNL     1     -10.201  -3.369  22.942  0.00  0.00    +0.000 HD
ENDROOT
BRANCH   5  46
ATOM     46  C   UNL     1     -13.683   1.693  20.778  0.00  0.00    +0.000 C 
ATOM     47  H   UNL     1     -13.769   0.652  20.437  0.00  0.00    +0.000 HD
ATOM     48  H   UNL     1     -14.533   2.228  20.350  0.00  0.00    +0.000 HD
ATOM     49  H   UNL     1     -13.799   1.656  21.867  0.00  0.00    +0.000 HD
ENDBRANCH   5  46
BRANCH   1  50
ATOM     50  N   UNL     1     -10.390   4.077  17.722  0.00  0.00    +0.000 NA
ATOM     51  H   UNL     1     -10.294   5.031  17.370  0.00  0.00    +0.000 HD
BRANCH  50  52
ATOM     52  C   UNL     1      -9.108   3.395  17.768  0.00  0.00    +0.000 C 
ATOM     53  H   UNL     1      -9.191   2.343  17.472  0.00  0.00    +0.000 HD
ATOM     54  H   UNL     1      -8.370   3.890  17.122  0.00  0.00    +0.000 HD
ATOM     55  H   UNL     1      -8.703   3.435  18.780  0.00  0.00    +0.000 HD
ENDBRANCH  50  52
ENDBRANCH   1  50
BRANCH  30  56
ATOM     56  O   UNL     1     -12.037  -3.038  23.851  0.00  0.00    +0.000 OA
ATOM     57  H   UNL     1     -12.401  -2.367  24.451  0.00  0.00    +0.000 HD
ENDBRANCH  30  56
BRANCH   6  58
ATOM     58  O   UNL     1     -12.470   2.408  17.815  0.00  0.00    +0.000 OA
BRANCH  58  59
ATOM     59  C   UNL     1     -13.729   2.510  17.167  0.00  0.00    +0.000 C 
ATOM     60  H   UNL     1     -14.324   1.635  17.441  0.00  0.00    +0.000 HD
ATOM     61  H   UNL     1     -14.284   3.383  17.519  0.00  0.00    +0.000 HD
ATOM     62  H   UNL     1     -13.629   2.547  16.081  0.00  0.00    +0.000 HD
ENDBRANCH  58  59
ENDBRANCH   6  58
TORSDOF 6
ENDMDL
MODEL 4
REMARK VINA RESULT:    -7.548      2.967      7.064
REMARK INTER + INTRA:          -9.501
REMARK INTER:                  -9.221
REMARK INTRA:                  -0.280
REMARK UNBOUND:                -0.188
REMARK  Name = 
REMARK  6 active torsions:
REMARK  status: ('A' for Active; 'I' for Inactive)
REMARK    1  A    between atoms: C_1  and  N_2
REMARK    2  A    between atoms: N_2  and  C_3
REMARK    3  A    between atoms: C_7  and  C_8
REMARK    4  A    between atoms: C_9  and  O_10
REMARK    5  A    between atoms: O_10  and  C_11
REMARK    6  A    between atoms: C_35  and  O_36
REMARK                            x       y       z     vdW  Elec       q    Type
REMARK                         _______ _______ _______ _____ _____    ______ ____
ROOT
ATOM      1  C   UNL     1     -11.553  -0.601  16.225  0.00  0.00    +0.000 C 
ATOM      2  C   UNL     1     -11.218  -1.869  17.009  0.00  0.00    +0.000 C 
ATOM      3  C   UNL     1      -9.789  -1.915  17.499  0.00  0.00    +0.000 C 
ATOM      4  O   UNL     1      -9.163  -0.631  17.554  0.00  0.00    +0.000 OA
ATOM      5  C   UNL     1     -10.035   0.434  18.034  0.00  0.00    +0.000 C 
ATOM      6  C   UNL     1     -10.972   0.745  16.837  0.00  0.00    +0.000 C 
ATOM      7  N   UNL     1     -10.699   0.007  19.275  0.00  0.00    +0.000 N 
ATOM      8  C   UNL     1     -11.500   0.768  20.140  0.00  0.00    +0.000 A 
ATOM      9  C   UNL     1     -12.775   1.300  19.905  0.00  0.00    +0.000 A 
ATOM     10  C   UNL     1     -13.308   2.176  20.842  0.00  0.00    +0.000 A 
ATOM     11  C   UNL     1     -12.594   2.507  21.991  0.00  0.00    +0.000 A 
ATOM     12  C   UNL     1     -11.401   1.842  22.324  0.00  0.00    +0.000 A 
ATOM     13  C   UNL     1     -10.876   0.870  21.447  0.00  0.00    +0.000 A 
ATOM     14  C   UNL     1      -9.921  -0.188  21.515  0.00  0.00    +0.000 A 
ATOM     15  C   UNL     1      -9.279  -0.768  22.619  0.00  0.00    +0.000 A 
ATOM     16  C   UNL     1      -8.750  -2.077  22.379  0.00  0.00    +0.000 A 
ATOM     17  C   UNL     1      -8.907  -2.536  21.054  0.00  0.00    +0.000 A 
ATOM     18  C   UNL     1      -8.493  -3.728  20.398  0.00  0.00    +0.000 A 
ATOM     19  C   UNL     1      -7.536  -4.739  20.589  0.00  0.00    +0.000 A 
ATOM     20  C   UNL     1      -7.465  -5.808  19.678  0.00  0.00    +0.000 A 
ATOM     21  C   UNL     1      -8.407  -5.973  18.668  0.00  0.00    +0.000 A 
ATOM     22  C   UNL     1      -9.322  -4.964  18.388  0.00  0.00    +0.000 A 
ATOM     23  C   UNL     1      -9.218  -3.792  19.137  0.00  0.00    +0.000 A 
ATOM     24  N   UNL     1      -9.693  -2.527  18.808  0.00  0.00    +0.000 N 
ATOM     25  C   UNL     1      -9.525  -1.916  19.983  0.00  0.00    +0.000 A 
ATOM     26  C   UNL     1     -10.016  -0.657  20.221  0.00  0.00    +0.000 A 
ATOM     27  C   UNL     1      -8.264  -2.602  23.608  0.00  0.00    +0.000 C 
ATOM     28  O   UNL     1      -7.826  -3.693  23.940  0.00  0.00    +0.000 OA
ATOM     29  N   UNL     1      -8.374  -1.522  24.485  0.00  0.00    +0.000 N 
ATOM     30  C   UNL     1      -9.059  -0.351  23.995  0.00  0.00    +0.000 C 
ATOM     31  H   UNL     1     -11.066  -0.693  15.241  0.00  0.00    +0.000 HD
ATOM     32  H   UNL     1     -11.383  -2.765  16.398  0.00  0.00    +0.000 HD
ATOM     33  H   UNL     1     -11.916  -1.973  17.856  0.00  0.00    +0.000 HD
ATOM     34  H   UNL     1      -9.176  -2.517  16.821  0.00  0.00    +0.000 HD
ATOM     35  H   UNL     1     -10.336   1.155  16.034  0.00  0.00    +0.000 HD
ATOM     36  H   UNL     1     -13.333   1.040  19.007  0.00  0.00    +0.000 HD
ATOM     37  H   UNL     1     -14.285   2.618  20.653  0.00  0.00    +0.000 HD
ATOM     38  H   UNL     1     -13.002   3.253  22.666  0.00  0.00    +0.000 HD
ATOM     39  H   UNL     1     -10.913   2.063  23.269  0.00  0.00    +0.000 HD
ATOM     40  H   UNL     1      -6.804  -4.655  21.387  0.00  0.00    +0.000 HD
ATOM     41  H   UNL     1      -6.661  -6.535  19.765  0.00  0.00    +0.000 HD
ATOM     42  H   UNL     1      -8.406  -6.860  18.047  0.00  0.00    +0.000 HD
ATOM     43  H   UNL     1     -10.043  -5.060  17.584  0.00  0.00    +0.000 HD
ATOM     44  H   UNL     1      -7.888  -1.538  25.366  0.00  0.00    +0.000 HD
ATOM     45  H   UNL     1      -9.974  -0.166  24.561  0.00  0.00    +0.000 HD
ENDROOT
BRANCH   5  46
ATOM     46  C   UNL     1      -9.029   1.567  18.353  0.00  0.00    +0.000 C 
ATOM     47  H   UNL     1      -8.163   1.517  17.679  0.00  0.00    +0.000 HD
ATOM     48  H   UNL     1      -8.630   1.529  19.370  0.00  0.00    +0.000 HD
ATOM     49  H   UNL     1      -9.476   2.552  18.185  0.00  0.00    +0.000 HD
ENDBRANCH   5  46
BRANCH   1  50
ATOM     50  N   UNL     1     -13.012  -0.542  15.996  0.00  0.00    +0.000 NA
ATOM     51  H   UNL     1     -13.415   0.180  16.597  0.00  0.00    +0.000 HD
BRANCH  50  52
ATOM     52  C   UNL     1     -13.389  -0.350  14.606  0.00  0.00    +0.000 C 
ATOM     53  H   UNL     1     -14.460  -0.515  14.444  0.00  0.00    +0.000 HD
ATOM     54  H   UNL     1     -13.126   0.658  14.259  0.00  0.00    +0.000 HD
ATOM     55  H   UNL     1     -12.836  -1.046  13.973  0.00  0.00    +0.000 HD
ENDBRANCH  50  52
ENDBRANCH   1  50
BRANCH  30  56
ATOM     56  O   UNL     1      -8.154   0.719  24.103  0.00  0.00    +0.000 OA
ATOM     57  H   UNL     1      -7.275   0.351  23.915  0.00  0.00    +0.000 HD
ENDBRANCH  30  56
BRANCH   6  58
ATOM     58  O   UNL     1     -12.015   1.718  17.005  0.00  0.00    +0.000 OA
BRANCH  58  59
ATOM     59  C   UNL     1     -11.864   2.939  16.296  0.00  0.00    +0.000 C 
ATOM     60  H   UNL     1     -12.776   3.525  16.431  0.00  0.00    +0.000 HD
ATOM     61  H   UNL     1     -11.049   3.537  16.710  0.00  0.00    +0.000 HD
ATOM     62  H   UNL     1     -11.699   2.776  15.229  0.00  0.00    +0.000 HD
ENDBRANCH  58  59
ENDBRANCH   6  58
TORSDOF 6
ENDMDL
MODEL 5
REMARK VINA RESULT:    -7.524      2.640      8.058
REMARK INTER + INTRA:          -9.471
REMARK INTER:                  -9.363
REMARK INTRA:                  -0.108
REMARK UNBOUND:                -0.188
REMARK  Name = 
REMARK  6 active torsions:
REMARK  status: ('A' for Active; 'I' for Inactive)
REMARK    1  A    between atoms: C_1  and  N_2
REMARK    2  A    between atoms: N_2  and  C_3
REMARK    3  A    between atoms: C_7  and  C_8
REMARK    4  A    between atoms: C_9  and  O_10
REMARK    5  A    between atoms: O_10  and  C_11
REMARK    6  A    between atoms: C_35  and  O_36
REMARK                            x       y       z     vdW  Elec       q    Type
REMARK                         _______ _______ _______ _____ _____    ______ ____
ROOT
ATOM      1  C   UNL     1      -9.350   0.160  23.423  0.00  0.00    +0.000 C 
ATOM      2  C   UNL     1      -8.709  -0.847  22.468  0.00  0.00    +0.000 C 
ATOM      3  C   UNL     1      -9.656  -1.933  22.014  0.00  0.00    +0.000 C 
ATOM      4  O   UNL     1     -11.035  -1.589  22.166  0.00  0.00    +0.000 OA
ATOM      5  C   UNL     1     -11.342  -0.205  21.827  0.00  0.00    +0.000 C 
ATOM      6  C   UNL     1     -10.819   0.621  23.032  0.00  0.00    +0.000 C 
ATOM      7  N   UNL     1     -10.754   0.125  20.520  0.00  0.00    +0.000 N 
ATOM      8  C   UNL     1     -10.927   1.290  19.756  0.00  0.00    +0.000 A 
ATOM      9  C   UNL     1     -10.480   2.589  20.035  0.00  0.00    +0.000 A 
ATOM     10  C   UNL     1     -10.921   3.627  19.224  0.00  0.00    +0.000 A 
ATOM     11  C   UNL     1     -11.778   3.378  18.157  0.00  0.00    +0.000 A 
ATOM     12  C   UNL     1     -12.086   2.065  17.759  0.00  0.00    +0.000 A 
ATOM     13  C   UNL     1     -11.575   0.976  18.496  0.00  0.00    +0.000 A 
ATOM     14  C   UNL     1     -11.398  -0.426  18.296  0.00  0.00    +0.000 A 
ATOM     15  C   UNL     1     -11.516  -1.205  17.136  0.00  0.00    +0.000 A 
ATOM     16  C   UNL     1     -10.836  -2.464  17.192  0.00  0.00    +0.000 A 
ATOM     17  C   UNL     1     -10.217  -2.737  18.431  0.00  0.00    +0.000 A 
ATOM     18  C   UNL     1      -9.496  -3.864  18.913  0.00  0.00    +0.000 A 
ATOM     19  C   UNL     1      -9.373  -5.228  18.599  0.00  0.00    +0.000 A 
ATOM     20  C   UNL     1      -8.492  -6.034  19.343  0.00  0.00    +0.000 A 
ATOM     21  C   UNL     1      -7.631  -5.494  20.293  0.00  0.00    +0.000 A 
ATOM     22  C   UNL     1      -7.769  -4.171  20.695  0.00  0.00    +0.000 A 
ATOM     23  C   UNL     1      -8.819  -3.445  20.132  0.00  0.00    +0.000 A 
ATOM     24  N   UNL     1      -9.426  -2.299  20.632  0.00  0.00    +0.000 N 
ATOM     25  C   UNL     1     -10.148  -1.948  19.566  0.00  0.00    +0.000 A 
ATOM     26  C   UNL     1     -10.814  -0.750  19.504  0.00  0.00    +0.000 A 
ATOM     27  C   UNL     1     -10.912  -3.078  15.913  0.00  0.00    +0.000 C 
ATOM     28  O   UNL     1     -10.413  -4.085  15.434  0.00  0.00    +0.000 OA
ATOM     29  N   UNL     1     -11.771  -2.238  15.203  0.00  0.00    +0.000 N 
ATOM     30  C   UNL     1     -12.152  -1.003  15.844  0.00  0.00    +0.000 C 
ATOM     31  H   UNL     1      -9.465  -0.346  24.395  0.00  0.00    +0.000 HD
ATOM     32  H   UNL     1      -7.847  -1.338  22.936  0.00  0.00    +0.000 HD
ATOM     33  H   UNL     1      -8.292  -0.314  21.598  0.00  0.00    +0.000 HD
ATOM     34  H   UNL     1      -9.507  -2.839  22.611  0.00  0.00    +0.000 HD
ATOM     35  H   UNL     1     -11.433   0.335  23.904  0.00  0.00    +0.000 HD
ATOM     36  H   UNL     1      -9.808   2.781  20.870  0.00  0.00    +0.000 HD
ATOM     37  H   UNL     1     -10.602   4.643  19.452  0.00  0.00    +0.000 HD
ATOM     38  H   UNL     1     -12.168   4.218  17.590  0.00  0.00    +0.000 HD
ATOM     39  H   UNL     1     -12.689   1.904  16.871  0.00  0.00    +0.000 HD
ATOM     40  H   UNL     1     -10.010  -5.675  17.842  0.00  0.00    +0.000 HD
ATOM     41  H   UNL     1      -8.471  -7.107  19.171  0.00  0.00    +0.000 HD
ATOM     42  H   UNL     1      -6.881  -6.108  20.775  0.00  0.00    +0.000 HD
ATOM     43  H   UNL     1      -7.129  -3.740  21.458  0.00  0.00    +0.000 HD
ATOM     44  H   UNL     1     -12.186  -2.554  14.342  0.00  0.00    +0.000 HD
ATOM     45  H   UNL     1     -11.777  -0.141  15.288  0.00  0.00    +0.000 HD
ENDROOT
BRANCH   5  46
ATOM     46  C   UNL     1     -12.885  -0.228  21.706  0.00  0.00    +0.000 C 
ATOM     47  H   UNL     1     -13.248  -1.256  21.572  0.00  0.00    +0.000 HD
ATOM     48  H   UNL     1     -13.270   0.347  20.860  0.00  0.00    +0.000 HD
ATOM     49  H   UNL     1     -13.360   0.133  22.625  0.00  0.00    +0.000 HD
ENDBRANCH   5  46
BRANCH   1  50
ATOM     50  N   UNL     1      -8.427   1.298  23.620  0.00  0.00    +0.000 NA
ATOM     51  H   UNL     1      -8.747   2.088  23.057  0.00  0.00    +0.000 HD
BRANCH  50  52
ATOM     52  C   UNL     1      -8.237   1.676  25.010  0.00  0.00    +0.000 C 
ATOM     53  H   UNL     1      -7.275   1.329  25.402  0.00  0.00    +0.000 HD
ATOM     54  H   UNL     1      -8.304   2.765  25.138  0.00  0.00    +0.000 HD
ATOM     55  H   UNL     1      -9.032   1.247  25.622  0.00  0.00    +0.000 HD
ENDBRANCH  50  52
ENDBRANCH   1  50
BRANCH  30  56
ATOM     56  O   UNL     1     -13.556  -1.004  15.919  0.00  0.00    +0.000 OA
ATOM     57  H   UNL     1     -13.792  -0.331  16.577  0.00  0.00    +0.000 HD
ENDBRANCH  30  56
BRANCH   6  58
ATOM     58  O   UNL     1     -10.906   2.054  22.984  0.00  0.00    +0.000 OA
BRANCH  58  59
ATOM     59  C   UNL     1     -12.145   2.628  23.372  0.00  0.00    +0.000 C 
ATOM     60  H   UNL     1     -12.572   3.135  22.503  0.00  0.00    +0.000 HD
ATOM     61  H   UNL     1     -12.862   1.858  23.664  0.00  0.00    +0.000 HD
ATOM     62  H   UNL     1     -12.026   3.350  24.183  0.00  0.00    +0.000 HD
ENDBRANCH  58  59
ENDBRANCH   6  58
TORSDOF 6
ENDMDL
MODEL 6
REMARK VINA RESULT:    -7.192      3.679      7.807
REMARK INTER + INTRA:          -9.062
REMARK INTER:                  -8.773
REMARK INTRA:                  -0.289
REMARK UNBOUND:                -0.188
REMARK  Name = 
REMARK  6 active torsions:
REMARK  status: ('A' for Active; 'I' for Inactive)
REMARK    1  A    between atoms: C_1  and  N_2
REMARK    2  A    between atoms: N_2  and  C_3
REMARK    3  A    between atoms: C_7  and  C_8
REMARK    4  A    between atoms: C_9  and  O_10
REMARK    5  A    between atoms: O_10  and  C_11
REMARK    6  A    between atoms: C_35  and  O_36
REMARK                            x       y       z     vdW  Elec       q    Type
REMARK                         _______ _______ _______ _____ _____    ______ ____
ROOT
ATOM      1  C   UNL     1     -10.740  -2.535  18.353  0.00  0.00    +0.000 C 
ATOM      2  C   UNL     1     -10.918  -2.453  19.868  0.00  0.00    +0.000 C 
ATOM      3  C   UNL     1      -9.772  -1.767  20.574  0.00  0.00    +0.000 C 
ATOM      4  O   UNL     1      -8.987  -0.938  19.714  0.00  0.00    +0.000 OA
ATOM      5  C   UNL     1      -9.768  -0.179  18.746  0.00  0.00    +0.000 C 
ATOM      6  C   UNL     1     -10.174  -1.218  17.667  0.00  0.00    +0.000 C 
ATOM      7  N   UNL     1     -10.878   0.501  19.431  0.00  0.00    +0.000 N 
ATOM      8  C   UNL     1     -11.778   1.443  18.908  0.00  0.00    +0.000 A 
ATOM      9  C   UNL     1     -12.783   1.249  17.951  0.00  0.00    +0.000 A 
ATOM     10  C   UNL     1     -13.440   2.365  17.448  0.00  0.00    +0.000 A 
ATOM     11  C   UNL     1     -13.111   3.642  17.893  0.00  0.00    +0.000 A 
ATOM     12  C   UNL     1     -12.238   3.834  18.978  0.00  0.00    +0.000 A 
ATOM     13  C   UNL     1     -11.626   2.717  19.586  0.00  0.00    +0.000 A 
ATOM     14  C   UNL     1     -10.952   2.438  20.812  0.00  0.00    +0.000 A 
ATOM     15  C   UNL     1     -10.834   3.200  21.984  0.00  0.00    +0.000 A 
ATOM     16  C   UNL     1     -10.493   2.446  23.153  0.00  0.00    +0.000 A 
ATOM     17  C   UNL     1     -10.270   1.073  22.916  0.00  0.00    +0.000 A 
ATOM     18  C   UNL     1      -9.874   0.006  23.770  0.00  0.00    +0.000 A 
ATOM     19  C   UNL     1      -9.231  -0.146  25.010  0.00  0.00    +0.000 A 
ATOM     20  C   UNL     1      -9.045  -1.435  25.540  0.00  0.00    +0.000 A 
ATOM     21  C   UNL     1      -9.602  -2.561  24.942  0.00  0.00    +0.000 A 
ATOM     22  C   UNL     1     -10.176  -2.474  23.679  0.00  0.00    +0.000 A 
ATOM     23  C   UNL     1     -10.128  -1.232  23.047  0.00  0.00    +0.000 A 
ATOM     24  N   UNL     1     -10.234  -0.964  21.687  0.00  0.00    +0.000 N 
ATOM     25  C   UNL     1     -10.370   0.363  21.732  0.00  0.00    +0.000 A 
ATOM     26  C   UNL     1     -10.684   1.098  20.618  0.00  0.00    +0.000 A 
ATOM     27  C   UNL     1     -10.552   3.308  24.281  0.00  0.00    +0.000 C 
ATOM     28  O   UNL     1     -10.452   3.124  25.485  0.00  0.00    +0.000 OA
ATOM     29  N   UNL     1     -10.762   4.566  23.715  0.00  0.00    +0.000 N 
ATOM     30  C   UNL     1     -11.023   4.608  22.297  0.00  0.00    +0.000 C 
ATOM     31  H   UNL     1      -9.973  -3.302  18.160  0.00  0.00    +0.000 HD
ATOM     32  H   UNL     1     -11.021  -3.453  20.307  0.00  0.00    +0.000 HD
ATOM     33  H   UNL     1     -11.869  -1.946  20.100  0.00  0.00    +0.000 HD
ATOM     34  H   UNL     1      -9.081  -2.511  20.984  0.00  0.00    +0.000 HD
ATOM     35  H   UNL     1      -9.242  -1.547  17.176  0.00  0.00    +0.000 HD
ATOM     36  H   UNL     1     -13.040   0.249  17.605  0.00  0.00    +0.000 HD
ATOM     37  H   UNL     1     -14.201   2.226  16.682  0.00  0.00    +0.000 HD
ATOM     38  H   UNL     1     -13.586   4.499  17.425  0.00  0.00    +0.000 HD
ATOM     39  H   UNL     1     -12.068   4.837  19.356  0.00  0.00    +0.000 HD
ATOM     40  H   UNL     1      -8.811   0.716  25.518  0.00  0.00    +0.000 HD
ATOM     41  H   UNL     1      -8.458  -1.563  26.447  0.00  0.00    +0.000 HD
ATOM     42  H   UNL     1      -9.547  -3.530  25.423  0.00  0.00    +0.000 HD
ATOM     43  H   UNL     1     -10.587  -3.347  23.183  0.00  0.00    +0.000 HD
ATOM     44  H   UNL     1     -10.614   5.396  24.264  0.00  0.00    +0.000 HD
ATOM     45  H   UNL     1     -12.028   4.982  22.094  0.00  0.00    +0.000 HD
ENDROOT
BRANCH   5  46
ATOM     46  C   UNL     1      -8.748   0.874  18.249  0.00  0.00    +0.000 C 
ATOM     47  H   UNL     1      -8.048   0.426  17.531  0.00  0.00    +0.000 HD
ATOM     48  H   UNL     1      -8.137   1.306  19.045  0.00  0.00    +0.000 HD
ATOM     49  H   UNL     1      -9.248   1.684  17.707  0.00  0.00    +0.000 HD
ENDBRANCH   5  46
BRANCH   1  50
ATOM     50  N   UNL     1     -12.001  -3.003  17.739  0.00  0.00    +0.000 NA
ATOM     51  H   UNL     1     -12.424  -2.232  17.218  0.00  0.00    +0.000 HD
BRANCH  50  52
ATOM     52  C   UNL     1     -11.856  -4.189  16.913  0.00  0.00    +0.000 C 
ATOM     53  H   UNL     1     -12.819  -4.674  16.718  0.00  0.00    +0.000 HD
ATOM     54  H   UNL     1     -11.376  -3.949  15.954  0.00  0.00    +0.000 HD
ATOM     55  H   UNL     1     -11.204  -4.909  17.410  0.00  0.00    +0.000 HD
ENDBRANCH  50  52
ENDBRANCH   1  50
BRANCH  30  56
ATOM     56  O   UNL     1     -10.036   5.431  21.729  0.00  0.00    +0.000 OA
ATOM     57  H   UNL     1      -9.856   6.128  22.382  0.00  0.00    +0.000 HD
ENDBRANCH  30  56
BRANCH   6  58
ATOM     58  O   UNL     1     -11.025  -0.802  16.586  0.00  0.00    +0.000 OA
BRANCH  58  59
ATOM     59  C   UNL     1     -10.439  -0.773  15.294  0.00  0.00    +0.000 C 
ATOM     60  H   UNL     1      -9.443  -0.333  15.382  0.00  0.00    +0.000 HD
ATOM     61  H   UNL     1     -10.297  -1.783  14.903  0.00  0.00    +0.000 HD
ATOM     62  H   UNL     1     -11.028  -0.182  14.590  0.00  0.00    +0.000 HD
ENDBRANCH  58  59
ENDBRANCH   6  58
TORSDOF 6
ENDMDL
MODEL 7
REMARK VINA RESULT:    -6.971      3.383      6.280
REMARK INTER + INTRA:          -8.789
REMARK INTER:                  -8.501
REMARK INTRA:                  -0.288
REMARK UNBOUND:                -0.188
REMARK  Name = 
REMARK  6 active torsions:
REMARK  status: ('A' for Active; 'I' for Inactive)
REMARK    1  A    between atoms: C_1  and  N_2
REMARK    2  A    between atoms: N_2  and  C_3
REMARK    3  A    between atoms: C_7  and  C_8
REMARK    4  A    between atoms: C_9  and  O_10
REMARK    5  A    between atoms: O_10  and  C_11
REMARK    6  A    between atoms: C_35  and  O_36
REMARK                            x       y       z     vdW  Elec       q    Type
REMARK                         _______ _______ _______ _____ _____    ______ ____
ROOT
ATOM      1  C   UNL     1     -10.645  -0.886  17.642  0.00  0.00    +0.000 C 
ATOM      2  C   UNL     1     -10.266   0.393  18.388  0.00  0.00    +0.000 C 
ATOM      3  C   UNL     1     -11.196   0.720  19.534  0.00  0.00    +0.000 C 
ATOM      4  O   UNL     1     -11.946  -0.404  19.999  0.00  0.00    +0.000 OA
ATOM      5  C   UNL     1     -11.186  -1.647  20.046  0.00  0.00    +0.000 C 
ATOM      6  C   UNL     1     -11.084  -2.102  18.566  0.00  0.00    +0.000 C 
ATOM      7  N   UNL     1      -9.908  -1.418  20.736  0.00  0.00    +0.000 N 
ATOM      8  C   UNL     1      -8.947  -2.364  21.126  0.00  0.00    +0.000 A 
ATOM      9  C   UNL     1      -8.112  -3.144  20.314  0.00  0.00    +0.000 A 
ATOM     10  C   UNL     1      -7.361  -4.148  20.911  0.00  0.00    +0.000 A 
ATOM     11  C   UNL     1      -7.430  -4.364  22.284  0.00  0.00    +0.000 A 
ATOM     12  C   UNL     1      -8.119  -3.477  23.129  0.00  0.00    +0.000 A 
ATOM     13  C   UNL     1      -8.815  -2.383  22.572  0.00  0.00    +0.000 A 
ATOM     14  C   UNL     1      -9.363  -1.150  23.037  0.00  0.00    +0.000 A 
ATOM     15  C   UNL     1      -9.214  -0.491  24.266  0.00  0.00    +0.000 A 
ATOM     16  C   UNL     1      -9.516   0.908  24.231  0.00  0.00    +0.000 A 
ATOM     17  C   UNL     1      -9.976   1.375  22.981  0.00  0.00    +0.000 A 
ATOM     18  C   UNL     1     -10.419   2.652  22.540  0.00  0.00    +0.000 A 
ATOM     19  C   UNL     1     -10.917   3.833  23.115  0.00  0.00    +0.000 A 
ATOM     20  C   UNL     1     -11.231   4.928  22.289  0.00  0.00    +0.000 A 
ATOM     21  C   UNL     1     -10.932   4.929  20.931  0.00  0.00    +0.000 A 
ATOM     22  C   UNL     1     -10.516   3.762  20.301  0.00  0.00    +0.000 A 
ATOM     23  C   UNL     1     -10.452   2.610  21.085  0.00  0.00    +0.000 A 
ATOM     24  N   UNL     1     -10.479   1.288  20.657  0.00  0.00    +0.000 N 
ATOM     25  C   UNL     1     -10.136   0.680  21.795  0.00  0.00    +0.000 A 
ATOM     26  C   UNL     1      -9.856  -0.662  21.845  0.00  0.00    +0.000 A 
ATOM     27  C   UNL     1      -9.183   1.476  25.491  0.00  0.00    +0.000 C 
ATOM     28  O   UNL     1      -9.158   2.621  25.917  0.00  0.00    +0.000 OA
ATOM     29  N   UNL     1      -8.856   0.364  26.268  0.00  0.00    +0.000 N 
ATOM     30  C   UNL     1      -8.772  -0.906  25.588  0.00  0.00    +0.000 C 
ATOM     31  H   UNL     1     -11.539  -0.655  17.041  0.00  0.00    +0.000 HD
ATOM     32  H   UNL     1     -10.264   1.256  17.712  0.00  0.00    +0.000 HD
ATOM     33  H   UNL     1      -9.227   0.315  18.748  0.00  0.00    +0.000 HD
ATOM     34  H   UNL     1     -11.935   1.464  19.220  0.00  0.00    +0.000 HD
ATOM     35  H   UNL     1     -12.110  -2.338  18.234  0.00  0.00    +0.000 HD
ATOM     36  H   UNL     1      -8.058  -2.972  19.240  0.00  0.00    +0.000 HD
ATOM     37  H   UNL     1      -6.733  -4.778  20.284  0.00  0.00    +0.000 HD
ATOM     38  H   UNL     1      -6.892  -5.206  22.711  0.00  0.00    +0.000 HD
ATOM     39  H   UNL     1      -8.084  -3.626  24.203  0.00  0.00    +0.000 HD
ATOM     40  H   UNL     1     -11.132   3.875  24.178  0.00  0.00    +0.000 HD
ATOM     41  H   UNL     1     -11.711   5.804  22.719  0.00  0.00    +0.000 HD
ATOM     42  H   UNL     1     -11.075   5.821  20.332  0.00  0.00    +0.000 HD
ATOM     43  H   UNL     1     -10.311   3.735  19.237  0.00  0.00    +0.000 HD
ATOM     44  H   UNL     1      -8.804   0.448  27.270  0.00  0.00    +0.000 HD
ATOM     45  H   UNL     1      -7.755  -1.301  25.620  0.00  0.00    +0.000 HD
ENDROOT
BRANCH   5  46
ATOM     46  C   UNL     1     -12.087  -2.554  20.919  0.00  0.00    +0.000 C 
ATOM     47  H   UNL     1     -11.766  -3.602  20.849  0.00  0.00    +0.000 HD
ATOM     48  H   UNL     1     -13.141  -2.534  20.634  0.00  0.00    +0.000 HD
ATOM     49  H   UNL     1     -12.002  -2.291  21.980  0.00  0.00    +0.000 HD
ENDBRANCH   5  46
BRANCH   1  50
ATOM     50  N   UNL     1      -9.559  -1.242  16.705  0.00  0.00    +0.000 NA
ATOM     51  H   UNL     1      -9.098  -2.092  17.037  0.00  0.00    +0.000 HD
BRANCH  50  52
ATOM     52  C   UNL     1      -9.985  -1.373  15.323  0.00  0.00    +0.000 C 
ATOM     53  H   UNL     1      -9.167  -1.696  14.669  0.00  0.00    +0.000 HD
ATOM     54  H   UNL     1     -10.819  -2.081  15.228  0.00  0.00    +0.000 HD
ATOM     55  H   UNL     1     -10.355  -0.414  14.957  0.00  0.00    +0.000 HD
ENDBRANCH  50  52
ENDBRANCH   1  50
BRANCH  30  56
ATOM     56  O   UNL     1      -9.685  -1.764  26.225  0.00  0.00    +0.000 OA
ATOM     57  H   UNL     1      -9.218  -2.138  26.990  0.00  0.00    +0.000 HD
ENDBRANCH  30  56
BRANCH   6  58
ATOM     58  O   UNL     1     -10.323  -3.279  18.251  0.00  0.00    +0.000 OA
BRANCH  58  59
ATOM     59  C   UNL     1     -11.061  -4.424  17.853  0.00  0.00    +0.000 C 
ATOM     60  H   UNL     1     -11.730  -4.131  17.040  0.00  0.00    +0.000 HD
ATOM     61  H   UNL     1     -10.403  -5.197  17.449  0.00  0.00    +0.000 HD
ATOM     62  H   UNL     1     -11.656  -4.834  18.672  0.00  0.00    +0.000 HD
ENDBRANCH  58  59
ENDBRANCH   6  58
TORSDOF 6
ENDMDL
MODEL 8
REMARK VINA RESULT:    -6.960      1.795      2.719
REMARK INTER + INTRA:          -8.775
REMARK INTER:                  -8.494
REMARK INTRA:                  -0.281
REMARK UNBOUND:                -0.188
REMARK  Name = 
REMARK  6 active torsions:
REMARK  status: ('A' for Active; 'I' for Inactive)
REMARK    1  A    between atoms: C_1  and  N_2
REMARK    2  A    between atoms: N_2  and  C_3
REMARK    3  A    between atoms: C_7  and  C_8
REMARK    4  A    between atoms: C_9  and  O_10
REMARK    5  A    between atoms: O_10  and  C_11
REMARK    6  A    between atoms: C_35  and  O_36
REMARK                            x       y       z     vdW  Elec       q    Type
REMARK                         _______ _______ _______ _____ _____    ______ ____
ROOT
ATOM      1  C   UNL     1     -10.444  -4.800  15.130  0.00  0.00    +0.000 C 
ATOM      2  C   UNL     1     -10.450  -3.352  15.619  0.00  0.00    +0.000 C 
ATOM      3  C   UNL     1     -11.366  -3.117  16.797  0.00  0.00    +0.000 C 
ATOM      4  O   UNL     1     -11.691  -4.310  17.515  0.00  0.00    +0.000 OA
ATOM      5  C   UNL     1     -10.573  -5.233  17.669  0.00  0.00    +0.000 C 
ATOM      6  C   UNL     1     -10.418  -5.900  16.277  0.00  0.00    +0.000 C 
ATOM      7  N   UNL     1      -9.397  -4.504  18.166  0.00  0.00    +0.000 N 
ATOM      8  C   UNL     1      -8.163  -5.024  18.588  0.00  0.00    +0.000 A 
ATOM      9  C   UNL     1      -7.172  -5.650  17.819  0.00  0.00    +0.000 A 
ATOM     10  C   UNL     1      -6.107  -6.251  18.477  0.00  0.00    +0.000 A 
ATOM     11  C   UNL     1      -6.024  -6.222  19.866  0.00  0.00    +0.000 A 
ATOM     12  C   UNL     1      -6.909  -5.445  20.633  0.00  0.00    +0.000 A 
ATOM     13  C   UNL     1      -7.948  -4.736  19.994  0.00  0.00    +0.000 A 
ATOM     14  C   UNL     1      -8.832  -3.664  20.320  0.00  0.00    +0.000 A 
ATOM     15  C   UNL     1      -8.829  -2.776  21.406  0.00  0.00    +0.000 A 
ATOM     16  C   UNL     1      -9.563  -1.566  21.187  0.00  0.00    +0.000 A 
ATOM     17  C   UNL     1     -10.220  -1.500  19.939  0.00  0.00    +0.000 A 
ATOM     18  C   UNL     1     -11.072  -0.522  19.356  0.00  0.00    +0.000 A 
ATOM     19  C   UNL     1     -11.885   0.538  19.793  0.00  0.00    +0.000 A 
ATOM     20  C   UNL     1     -12.579   1.314  18.846  0.00  0.00    +0.000 A 
ATOM     21  C   UNL     1     -12.377   1.155  17.479  0.00  0.00    +0.000 A 
ATOM     22  C   UNL     1     -11.648   0.075  16.997  0.00  0.00    +0.000 A 
ATOM     23  C   UNL     1     -11.175  -0.839  17.939  0.00  0.00    +0.000 A 
ATOM     24  N   UNL     1     -10.803  -2.162  17.730  0.00  0.00    +0.000 N 
ATOM     25  C   UNL     1     -10.219  -2.417  18.902  0.00  0.00    +0.000 A 
ATOM     26  C   UNL     1      -9.524  -3.577  19.129  0.00  0.00    +0.000 A 
ATOM     27  C   UNL     1      -9.355  -0.703  22.297  0.00  0.00    +0.000 C 
ATOM     28  O   UNL     1      -9.672   0.454  22.532  0.00  0.00    +0.000 OA
ATOM     29  N   UNL     1      -8.646  -1.500  23.196  0.00  0.00    +0.000 N 
ATOM     30  C   UNL     1      -8.203  -2.787  22.718  0.00  0.00    +0.000 C 
ATOM     31  H   UNL     1     -11.399  -4.966  14.606  0.00  0.00    +0.000 HD
ATOM     32  H   UNL     1     -10.762  -2.669  14.820  0.00  0.00    +0.000 HD
ATOM     33  H   UNL     1      -9.421  -3.044  15.867  0.00  0.00    +0.000 HD
ATOM     34  H   UNL     1     -12.321  -2.704  16.457  0.00  0.00    +0.000 HD
ATOM     35  H   UNL     1     -11.333  -6.492  16.104  0.00  0.00    +0.000 HD
ATOM     36  H   UNL     1      -7.239  -5.670  16.732  0.00  0.00    +0.000 HD
ATOM     37  H   UNL     1      -5.349  -6.765  17.889  0.00  0.00    +0.000 HD
ATOM     38  H   UNL     1      -5.222  -6.766  20.355  0.00  0.00    +0.000 HD
ATOM     39  H   UNL     1      -6.766  -5.376  21.707  0.00  0.00    +0.000 HD
ATOM     40  H   UNL     1     -12.040   0.707  20.853  0.00  0.00    +0.000 HD
ATOM     41  H   UNL     1     -13.287   2.066  19.185  0.00  0.00    +0.000 HD
ATOM     42  H   UNL     1     -12.830   1.835  16.769  0.00  0.00    +0.000 HD
ATOM     43  H   UNL     1     -11.507  -0.085  15.934  0.00  0.00    +0.000 HD
ATOM     44  H   UNL     1      -8.566  -1.221  24.160  0.00  0.00    +0.000 HD
ATOM     45  H   UNL     1      -7.113  -2.842  22.696  0.00  0.00    +0.000 HD
ENDROOT
BRANCH   5  46
ATOM     46  C   UNL     1     -11.086  -6.193  18.770  0.00  0.00    +0.000 C 
ATOM     47  H   UNL     1     -11.581  -5.631  19.574  0.00  0.00    +0.000 HD
ATOM     48  H   UNL     1     -10.297  -6.780  19.245  0.00  0.00    +0.000 HD
ATOM     49  H   UNL     1     -11.847  -6.875  18.377  0.00  0.00    +0.000 HD
ENDBRANCH   5  46
BRANCH   1  50
ATOM     50  N   UNL     1      -9.358  -4.976  14.144  0.00  0.00    +0.000 NA
ATOM     51  H   UNL     1      -9.647  -5.666  13.449  0.00  0.00    +0.000 HD
BRANCH  50  52
ATOM     52  C   UNL     1      -8.917  -3.741  13.518  0.00  0.00    +0.000 C 
ATOM     53  H   UNL     1      -7.837  -3.592  13.620  0.00  0.00    +0.000 HD
ATOM     54  H   UNL     1      -9.182  -3.719  12.452  0.00  0.00    +0.000 HD
ATOM     55  H   UNL     1      -9.425  -2.892  13.977  0.00  0.00    +0.000 HD
ENDBRANCH  50  52
ENDBRANCH   1  50
BRANCH  30  56
ATOM     56  O   UNL     1      -8.756  -3.749  23.580  0.00  0.00    +0.000 OA
ATOM     57  H   UNL     1      -8.019  -4.092  24.112  0.00  0.00    +0.000 HD
ENDBRANCH  30  56
BRANCH   6  58
ATOM     58  O   UNL     1      -9.341  -6.827  16.066  0.00  0.00    +0.000 OA
BRANCH  58  59
ATOM     59  C   UNL     1      -9.678  -8.206  16.091  0.00  0.00    +0.000 C 
ATOM     60  H   UNL     1     -10.023  -8.453  17.099  0.00  0.00    +0.000 HD
ATOM     61  H   UNL     1     -10.511  -8.421  15.418  0.00  0.00    +0.000 HD
ATOM     62  H   UNL     1      -8.826  -8.841  15.842  0.00  0.00    +0.000 HD
ENDBRANCH  58  59
ENDBRANCH   6  58
TORSDOF 6
ENDMDL
MODEL 9
REMARK VINA RESULT:    -6.874      2.467      6.747
REMARK INTER + INTRA:          -8.669
REMARK INTER:                  -8.402
REMARK INTRA:                  -0.268
REMARK UNBOUND:                -0.188
REMARK  Name = 
REMARK  6 active torsions:
REMARK  status: ('A' for Active; 'I' for Inactive)
REMARK    1  A    between atoms: C_1  and  N_2
REMARK    2  A    between atoms: N_2  and  C_3
REMARK    3  A    between atoms: C_7  and  C_8
REMARK    4  A    between atoms: C_9  and  O_10
REMARK    5  A    between atoms: O_10  and  C_11
REMARK    6  A    between atoms: C_35  and  O_36
REMARK                            x       y       z     vdW  Elec       q    Type
REMARK                         _______ _______ _______ _____ _____    ______ ____
ROOT
ATOM      1  C   UNL     1     -12.634   0.870  16.671  0.00  0.00    +0.000 C 
ATOM      2  C   UNL     1     -12.566  -0.654  16.768  0.00  0.00    +0.000 C 
ATOM      3  C   UNL     1     -11.188  -1.214  16.502  0.00  0.00    +0.000 C 
ATOM      4  O   UNL     1     -10.141  -0.254  16.663  0.00  0.00    +0.000 OA
ATOM      5  C   UNL     1     -10.326   0.641  17.798  0.00  0.00    +0.000 C 
ATOM      6  C   UNL     1     -11.416   1.644  17.335  0.00  0.00    +0.000 C 
ATOM      7  N   UNL     1     -10.647  -0.144  18.999  0.00  0.00    +0.000 N 
ATOM      8  C   UNL     1     -10.758   0.300  20.326  0.00  0.00    +0.000 A 
ATOM      9  C   UNL     1     -11.733   1.136  20.887  0.00  0.00    +0.000 A 
ATOM     10  C   UNL     1     -11.545   1.592  22.185  0.00  0.00    +0.000 A 
ATOM     11  C   UNL     1     -10.420   1.216  22.913  0.00  0.00    +0.000 A 
ATOM     12  C   UNL     1      -9.533   0.237  22.431  0.00  0.00    +0.000 A 
ATOM     13  C   UNL     1      -9.744  -0.327  21.155  0.00  0.00    +0.000 A 
ATOM     14  C   UNL     1      -9.301  -1.478  20.439  0.00  0.00    +0.000 A 
ATOM     15  C   UNL     1      -8.599  -2.611  20.876  0.00  0.00    +0.000 A 
ATOM     16  C   UNL     1      -8.721  -3.754  20.022  0.00  0.00    +0.000 A 
ATOM     17  C   UNL     1      -9.474  -3.528  18.850  0.00  0.00    +0.000 A 
ATOM     18  C   UNL     1      -9.791  -4.358  17.740  0.00  0.00    +0.000 A 
ATOM     19  C   UNL     1      -9.287  -5.524  17.139  0.00  0.00    +0.000 A 
ATOM     20  C   UNL     1      -9.938  -6.062  16.014  0.00  0.00    +0.000 A 
ATOM     21  C   UNL     1     -11.150  -5.555  15.558  0.00  0.00    +0.000 A 
ATOM     22  C   UNL     1     -11.649  -4.361  16.065  0.00  0.00    +0.000 A 
ATOM     23  C   UNL     1     -10.862  -3.698  17.007  0.00  0.00    +0.000 A 
ATOM     24  N   UNL     1     -10.900  -2.351  17.351  0.00  0.00    +0.000 N 
ATOM     25  C   UNL     1     -10.130  -2.379  18.441  0.00  0.00    +0.000 A 
ATOM     26  C   UNL     1      -9.994  -1.288  19.261  0.00  0.00    +0.000 A 
ATOM     27  C   UNL     1      -8.091  -4.861  20.652  0.00  0.00    +0.000 C 
ATOM     28  O   UNL     1      -8.018  -6.051  20.383  0.00  0.00    +0.000 OA
ATOM     29  N   UNL     1      -7.482  -4.291  21.770  0.00  0.00    +0.000 N 
ATOM     30  C   UNL     1      -7.790  -2.909  22.048  0.00  0.00    +0.000 C 
ATOM     31  H   UNL     1     -12.579   1.126  15.601  0.00  0.00    +0.000 HD
ATOM     32  H   UNL     1     -13.254  -1.125  16.055  0.00  0.00    +0.000 HD
ATOM     33  H   UNL     1     -12.925  -0.976  17.760  0.00  0.00    +0.000 HD
ATOM     34  H   UNL     1     -11.116  -1.564  15.467  0.00  0.00    +0.000 HD
ATOM     35  H   UNL     1     -10.980   2.226  16.504  0.00  0.00    +0.000 HD
ATOM     36  H   UNL     1     -12.613   1.428  20.316  0.00  0.00    +0.000 HD
ATOM     37  H   UNL     1     -12.283   2.267  22.617  0.00  0.00    +0.000 HD
ATOM     38  H   UNL     1     -10.262   1.649  23.896  0.00  0.00    +0.000 HD
ATOM     39  H   UNL     1      -8.713  -0.095  23.059  0.00  0.00    +0.000 HD
ATOM     40  H   UNL     1      -8.358  -5.962  17.490  0.00  0.00    +0.000 HD
ATOM     41  H   UNL     1      -9.492  -6.902  15.487  0.00  0.00    +0.000 HD
ATOM     42  H   UNL     1     -11.695  -6.050  14.764  0.00  0.00    +0.000 HD
ATOM     43  H   UNL     1     -12.576  -3.933  15.700  0.00  0.00    +0.000 HD
ATOM     44  H   UNL     1      -6.774  -4.801  22.272  0.00  0.00    +0.000 HD
ATOM     45  H   UNL     1      -8.319  -2.809  22.997  0.00  0.00    +0.000 HD
ENDROOT
BRANCH   5  46
ATOM     46  C   UNL     1      -8.921   1.272  17.956  0.00  0.00    +0.000 C 
ATOM     47  H   UNL     1      -8.736   2.008  17.162  0.00  0.00    +0.000 HD
ATOM     48  H   UNL     1      -8.105   0.548  17.900  0.00  0.00    +0.000 HD
ATOM     49  H   UNL     1      -8.840   1.827  18.897  0.00  0.00    +0.000 HD
ENDBRANCH   5  46
BRANCH   1  50
ATOM     50  N   UNL     1     -13.946   1.330  17.172  0.00  0.00    +0.000 NA
ATOM     51  H   UNL     1     -13.850   2.282  17.531  0.00  0.00    +0.000 HD
BRANCH  50  52
ATOM     52  C   UNL     1     -15.022   1.233  16.200  0.00  0.00    +0.000 C 
ATOM     53  H   UNL     1     -14.651   1.286  15.171  0.00  0.00    +0.000 HD
ATOM     54  H   UNL     1     -15.590   0.301  16.328  0.00  0.00    +0.000 HD
ATOM     55  H   UNL     1     -15.732   2.047  16.351  0.00  0.00    +0.000 HD
ENDBRANCH  50  52
ENDBRANCH   1  50
BRANCH  30  56
ATOM     56  O   UNL     1      -6.566  -2.217  22.057  0.00  0.00    +0.000 OA
ATOM     57  H   UNL     1      -5.873  -2.892  21.967  0.00  0.00    +0.000 HD
ENDBRANCH  30  56
BRANCH   6  58
ATOM     58  O   UNL     1     -11.889   2.635  18.261  0.00  0.00    +0.000 OA
BRANCH  58  59
ATOM     59  C   UNL     1     -11.512   3.979  18.000  0.00  0.00    +0.000 C 
ATOM     60  H   UNL     1     -12.384   4.615  18.170  0.00  0.00    +0.000 HD
ATOM     61  H   UNL     1     -10.742   4.315  18.698  0.00  0.00    +0.000 HD
ATOM     62  H   UNL     1     -11.167   4.115  16.973  0.00  0.00    +0.000 HD
ENDBRANCH  58  59
ENDBRANCH   6  58
TORSDOF 6
ENDMDL
