MODEL 1
REMARK VINA RESULT:   -10.867      0.000      0.000
REMARK INTER + INTRA:         -14.629
REMARK INTER:                 -14.997
REMARK INTRA:                   0.368
REMARK UNBOUND:                 0.368
REMARK  Name = 
REMARK  8 active torsions:
REMARK  status: ('A' for Active; 'I' for Inactive)
REMARK    1  A    between atoms: C_1  and  O_2
REMARK    2  A    between atoms: O_2  and  C_3
REMARK    3  A    between atoms: C_3  and  C_5
REMARK    4  A    between atoms: C_9  and  N_10
REMARK    5  A    between atoms: C_11  and  C_13
REMARK    6  A    between atoms: C_13  and  N_14
REMARK    7  A    between atoms: N_17  and  C_18
REMARK    8  A    between atoms: C_25  and  C_26
REMARK                            x       y       z     vdW  Elec       q    Type
REMARK                         _______ _______ _______ _____ _____    ______ ____
ROOT
ATOM      1  C   UNL     1     -10.390  -6.310  17.704  0.00  0.00    +0.000 C 
ATOM      2  C   UNL     1     -10.817  -7.372  18.752  0.00  0.00    +0.000 C 
ATOM      3  C   UNL     1      -9.695  -8.388  19.022  0.00  0.00    +0.000 C 
ATOM      4  N   UNL     1      -9.305  -8.944  17.728  0.00  0.00    +0.000 N 
ATOM      5  C   UNL     1      -8.672  -7.962  16.861  0.00  0.00    +0.000 C 
ATOM      6  C   UNL     1      -9.782  -6.985  16.456  0.00  0.00    +0.000 C 
ATOM      7  H   UNL     1     -11.692  -7.923  18.384  0.00  0.00    +0.000 HD
ATOM      8  H   UNL     1     -11.120  -6.901  19.696  0.00  0.00    +0.000 HD
ATOM      9  H   UNL     1     -10.099  -9.151  19.701  0.00  0.00    +0.000 HD
ATOM     10  H   UNL     1      -8.835  -7.933  19.532  0.00  0.00    +0.000 HD
ATOM     11  H   UNL     1      -8.208  -8.403  15.980  0.00  0.00    +0.000 HD
ATOM     12  H   UNL     1      -7.863  -7.435  17.383  0.00  0.00    +0.000 HD
ATOM     13  H   UNL     1     -10.573  -7.546  15.939  0.00  0.00    +0.000 HD
ATOM     14  H   UNL     1      -9.396  -6.255  15.737  0.00  0.00    +0.000 HD
ENDROOT
BRANCH   4  15
ATOM     15  C   UNL     1      -8.799 -10.239  17.743  0.00  0.00    +0.000 A 
ATOM     16  N   UNL     1      -8.472 -10.791  18.944  0.00  0.00    +0.000 NA
ATOM     17  C   UNL     1      -8.147 -12.093  19.018  0.00  0.00    +0.000 A 
ATOM     18  N   UNL     1      -8.115 -12.985  18.024  0.00  0.00    +0.000 NA
ATOM     19  C   UNL     1      -8.432 -12.419  16.853  0.00  0.00    +0.000 A 
ATOM     20  N   UNL     1      -8.521 -13.125  15.689  0.00  0.00    +0.000 N 
ATOM     21  C   UNL     1      -8.867 -12.291  14.667  0.00  0.00    +0.000 A 
ATOM     22  C   UNL     1      -9.027 -11.013  15.180  0.00  0.00    +0.000 A 
ATOM     23  C   UNL     1      -8.757 -11.089  16.602  0.00  0.00    +0.000 A 
ATOM     24  H   UNL     1      -7.898 -12.467  20.005  0.00  0.00    +0.000 HD
ATOM     25  H   UNL     1      -8.371 -14.121  15.627  0.00  0.00    +0.000 HD
ATOM     26  H   UNL     1      -8.988 -12.671  13.662  0.00  0.00    +0.000 HD
BRANCH  22  27
ATOM     27  C   UNL     1      -9.424  -9.846  14.348  0.00  0.00    +0.000 C 
ATOM     28  H   UNL     1      -8.541  -9.299  13.998  0.00  0.00    +0.000 HD
ATOM     29  H   UNL     1     -10.008  -9.125  14.920  0.00  0.00    +0.000 HD
ATOM     30  H   UNL     1      -9.985 -10.166  13.467  0.00  0.00    +0.000 HD
ENDBRANCH  22  27
ENDBRANCH   4  15
BRANCH   1  32
ATOM     31  N   UNL     1      -8.408  -5.933  19.146  0.00  0.00    +0.000 N 
ATOM     32  C   UNL     1      -9.381  -5.325  18.364  0.00  0.00    +0.000 C 
ATOM     33  O   UNL     1      -9.448  -4.118  18.137  0.00  0.00    +0.000 OA
ATOM     34  H   UNL     1      -8.290  -6.930  18.990  0.00  0.00    +0.000 HD
BRANCH  31  39
ATOM     35  C   UNL     1      -6.762  -3.736  21.660  0.00  0.00    +0.000 A 
ATOM     36  C   UNL     1      -5.411  -3.983  21.385  0.00  0.00    +0.000 A 
ATOM     37  C   UNL     1      -5.050  -4.808  20.327  0.00  0.00    +0.000 A 
ATOM     38  C   UNL     1      -6.038  -5.418  19.556  0.00  0.00    +0.000 A 
ATOM     39  C   UNL     1      -7.394  -5.235  19.844  0.00  0.00    +0.000 A 
ATOM     40  C   UNL     1      -7.756  -4.355  20.871  0.00  0.00    +0.000 A 
ATOM     41  H   UNL     1      -4.622  -3.543  21.989  0.00  0.00    +0.000 HD
ATOM     42  H   UNL     1      -4.002  -4.995  20.107  0.00  0.00    +0.000 HD
ATOM     43  H   UNL     1      -5.703  -6.040  18.731  0.00  0.00    +0.000 HD
ATOM     44  H   UNL     1      -8.804  -4.166  21.096  0.00  0.00    +0.000 HD
BRANCH  35  45
ATOM     45  C   UNL     1      -7.172  -2.862  22.790  0.00  0.00    +0.000 C 
ATOM     46  O   UNL     1      -7.011  -1.653  22.811  0.00  0.00    +0.000 OA
BRANCH  45  47
ATOM     47  O   UNL     1      -7.742  -3.612  23.768  0.00  0.00    +0.000 OA
BRANCH  47  48
ATOM     48  C   UNL     1      -8.887  -3.033  24.390  0.00  0.00    +0.000 C 
ATOM     49  H   UNL     1      -9.629  -3.825  24.522  0.00  0.00    +0.000 HD
ATOM     50  H   UNL     1      -9.314  -2.261  23.744  0.00  0.00    +0.000 HD
ATOM     51  H   UNL     1      -8.635  -2.628  25.374  0.00  0.00    +0.000 HD
ENDBRANCH  47  48
ENDBRANCH  45  47
ENDBRANCH  35  45
ENDBRANCH  31  39
ENDBRANCH   1  32
BRANCH   1  52
ATOM     52  N   UNL     1     -11.575  -5.511  17.284  0.00  0.00    +0.000 NA
ATOM     53  H   UNL     1     -12.087  -6.053  16.582  0.00  0.00    +0.000 HD
ATOM     54  H   UNL     1     -11.243  -4.688  16.777  0.00  0.00    +0.000 HD
ENDBRANCH   1  52
TORSDOF 8
ENDMDL
MODEL 2
REMARK VINA RESULT:   -10.520      1.574      2.055
REMARK INTER + INTRA:         -14.150
REMARK INTER:                 -13.214
REMARK INTRA:                  -0.935
REMARK UNBOUND:                 0.368
REMARK  Name = 
REMARK  8 active torsions:
REMARK  status: ('A' for Active; 'I' for Inactive)
REMARK    1  A    between atoms: C_1  and  O_2
REMARK    2  A    between atoms: O_2  and  C_3
REMARK    3  A    between atoms: C_3  and  C_5
REMARK    4  A    between atoms: C_9  and  N_10
REMARK    5  A    between atoms: C_11  and  C_13
REMARK    6  A    between atoms: C_13  and  N_14
REMARK    7  A    between atoms: N_17  and  C_18
REMARK    8  A    between atoms: C_25  and  C_26
REMARK                            x       y       z     vdW  Elec       q    Type
REMARK                         _______ _______ _______ _____ _____    ______ ____
ROOT
ATOM      1  C   UNL     1     -10.289  -5.808  16.462  0.00  0.00    +0.000 C 
ATOM      2  C   UNL     1     -11.238  -7.027  16.608  0.00  0.00    +0.000 C 
ATOM      3  C   UNL     1     -10.704  -8.046  17.628  0.00  0.00    +0.000 C 
ATOM      4  N   UNL     1      -9.346  -8.389  17.212  0.00  0.00    +0.000 N 
ATOM      5  C   UNL     1      -8.421  -7.272  17.332  0.00  0.00    +0.000 C 
ATOM      6  C   UNL     1      -8.832  -6.272  16.246  0.00  0.00    +0.000 C 
ATOM      7  H   UNL     1     -11.339  -7.535  15.640  0.00  0.00    +0.000 HD
ATOM      8  H   UNL     1     -12.249  -6.711  16.900  0.00  0.00    +0.000 HD
ATOM      9  H   UNL     1     -11.380  -8.912  17.611  0.00  0.00    +0.000 HD
ATOM     10  H   UNL     1     -10.716  -7.654  18.654  0.00  0.00    +0.000 HD
ATOM     11  H   UNL     1      -7.378  -7.564  17.211  0.00  0.00    +0.000 HD
ATOM     12  H   UNL     1      -8.481  -6.812  18.327  0.00  0.00    +0.000 HD
ATOM     13  H   UNL     1      -8.762  -6.765  15.267  0.00  0.00    +0.000 HD
ATOM     14  H   UNL     1      -8.130  -5.432  16.224  0.00  0.00    +0.000 HD
ENDROOT
BRANCH   4  15
ATOM     15  C   UNL     1      -8.900  -9.659  17.559  0.00  0.00    +0.000 A 
ATOM     16  N   UNL     1      -8.697  -9.934  18.878  0.00  0.00    +0.000 NA
ATOM     17  C   UNL     1      -8.436 -11.193  19.268  0.00  0.00    +0.000 A 
ATOM     18  N   UNL     1      -8.361 -12.287  18.505  0.00  0.00    +0.000 NA
ATOM     19  C   UNL     1      -8.556 -11.992  17.213  0.00  0.00    +0.000 A 
ATOM     20  N   UNL     1      -8.580 -12.940  16.232  0.00  0.00    +0.000 N 
ATOM     21  C   UNL     1      -8.804 -12.349  15.024  0.00  0.00    +0.000 A 
ATOM     22  C   UNL     1      -8.950 -10.985  15.223  0.00  0.00    +0.000 A 
ATOM     23  C   UNL     1      -8.802 -10.745  16.644  0.00  0.00    +0.000 A 
ATOM     24  H   UNL     1      -8.285 -11.342  20.333  0.00  0.00    +0.000 HD
ATOM     25  H   UNL     1      -8.469 -13.927  16.407  0.00  0.00    +0.000 HD
ATOM     26  H   UNL     1      -8.859 -12.943  14.122  0.00  0.00    +0.000 HD
BRANCH  22  27
ATOM     27  C   UNL     1      -9.226 -10.027  14.120  0.00  0.00    +0.000 C 
ATOM     28  H   UNL     1      -9.912  -9.239  14.451  0.00  0.00    +0.000 HD
ATOM     29  H   UNL     1      -9.723 -10.513  13.280  0.00  0.00    +0.000 HD
ATOM     30  H   UNL     1      -8.307  -9.544  13.782  0.00  0.00    +0.000 HD
ENDBRANCH  22  27
ENDBRANCH   4  15
BRANCH   1  32
ATOM     31  N   UNL     1      -9.264  -4.211  18.058  0.00  0.00    +0.000 N 
ATOM     32  C   UNL     1     -10.417  -4.912  17.728  0.00  0.00    +0.000 C 
ATOM     33  O   UNL     1     -11.489  -4.823  18.325  0.00  0.00    +0.000 OA
ATOM     34  H   UNL     1      -8.575  -4.141  17.315  0.00  0.00    +0.000 HD
BRANCH  31  39
ATOM     35  C   UNL     1      -8.217  -2.889  21.377  0.00  0.00    +0.000 A 
ATOM     36  C   UNL     1      -8.724  -1.583  21.314  0.00  0.00    +0.000 A 
ATOM     37  C   UNL     1      -9.471  -1.173  20.218  0.00  0.00    +0.000 A 
ATOM     38  C   UNL     1      -9.690  -2.053  19.160  0.00  0.00    +0.000 A 
ATOM     39  C   UNL     1      -9.149  -3.343  19.169  0.00  0.00    +0.000 A 
ATOM     40  C   UNL     1      -8.449  -3.775  20.303  0.00  0.00    +0.000 A 
ATOM     41  H   UNL     1      -8.541  -0.869  22.112  0.00  0.00    +0.000 HD
ATOM     42  H   UNL     1      -9.871  -0.163  20.171  0.00  0.00    +0.000 HD
ATOM     43  H   UNL     1     -10.295  -1.688  18.334  0.00  0.00    +0.000 HD
ATOM     44  H   UNL     1      -8.045  -4.785  20.352  0.00  0.00    +0.000 HD
BRANCH  35  45
ATOM     45  C   UNL     1      -7.410  -3.349  22.537  0.00  0.00    +0.000 C 
ATOM     46  O   UNL     1      -6.370  -3.977  22.438  0.00  0.00    +0.000 OA
BRANCH  45  47
ATOM     47  O   UNL     1      -8.008  -2.962  23.694  0.00  0.00    +0.000 OA
BRANCH  47  48
ATOM     48  C   UNL     1      -8.075  -3.963  24.707  0.00  0.00    +0.000 C 
ATOM     49  H   UNL     1      -7.302  -3.739  25.447  0.00  0.00    +0.000 HD
ATOM     50  H   UNL     1      -7.869  -4.947  24.277  0.00  0.00    +0.000 HD
ATOM     51  H   UNL     1      -9.048  -3.948  25.208  0.00  0.00    +0.000 HD
ENDBRANCH  47  48
ENDBRANCH  45  47
ENDBRANCH  35  45
ENDBRANCH  31  39
ENDBRANCH   1  32
BRANCH   1  52
ATOM     52  N   UNL     1     -10.704  -4.982  15.294  0.00  0.00    +0.000 NA
ATOM     53  H   UNL     1     -10.975  -4.058  15.641  0.00  0.00    +0.000 HD
ATOM     54  H   UNL     1     -11.568  -5.375  14.914  0.00  0.00    +0.000 HD
ENDBRANCH   1  52
TORSDOF 8
ENDMDL
MODEL 3
REMARK VINA RESULT:   -10.340      3.195      8.305
REMARK INTER + INTRA:         -13.902
REMARK INTER:                 -13.639
REMARK INTRA:                  -0.263
REMARK UNBOUND:                 0.368
REMARK  Name = 
REMARK  8 active torsions:
REMARK  status: ('A' for Active; 'I' for Inactive)
REMARK    1  A    between atoms: C_1  and  O_2
REMARK    2  A    between atoms: O_2  and  C_3
REMARK    3  A    between atoms: C_3  and  C_5
REMARK    4  A    between atoms: C_9  and  N_10
REMARK    5  A    between atoms: C_11  and  C_13
REMARK    6  A    between atoms: C_13  and  N_14
REMARK    7  A    between atoms: N_17  and  C_18
REMARK    8  A    between atoms: C_25  and  C_26
REMARK                            x       y       z     vdW  Elec       q    Type
REMARK                         _______ _______ _______ _____ _____    ______ ____
ROOT
ATOM      1  C   UNL     1     -10.417  -6.709  17.941  0.00  0.00    +0.000 C 
ATOM      2  C   UNL     1     -10.101  -5.233  17.582  0.00  0.00    +0.000 C 
ATOM      3  C   UNL     1      -8.720  -4.803  18.105  0.00  0.00    +0.000 C 
ATOM      4  N   UNL     1      -8.701  -5.091  19.538  0.00  0.00    +0.000 N 
ATOM      5  C   UNL     1      -8.746  -6.517  19.827  0.00  0.00    +0.000 C 
ATOM      6  C   UNL     1     -10.155  -6.977  19.438  0.00  0.00    +0.000 C 
ATOM      7  H   UNL     1     -10.854  -4.573  18.032  0.00  0.00    +0.000 HD
ATOM      8  H   UNL     1     -10.150  -5.067  16.498  0.00  0.00    +0.000 HD
ATOM      9  H   UNL     1      -8.606  -3.732  17.891  0.00  0.00    +0.000 HD
ATOM     10  H   UNL     1      -7.900  -5.320  17.587  0.00  0.00    +0.000 HD
ATOM     11  H   UNL     1      -8.539  -6.749  20.871  0.00  0.00    +0.000 HD
ATOM     12  H   UNL     1      -7.986  -7.062  19.251  0.00  0.00    +0.000 HD
ATOM     13  H   UNL     1     -10.887  -6.411  20.031  0.00  0.00    +0.000 HD
ATOM     14  H   UNL     1     -10.291  -8.032  19.699  0.00  0.00    +0.000 HD
ENDROOT
BRANCH   4  15
ATOM     15  C   UNL     1      -7.880  -4.283  20.316  0.00  0.00    +0.000 A 
ATOM     16  N   UNL     1      -8.466  -3.437  21.209  0.00  0.00    +0.000 NA
ATOM     17  C   UNL     1      -7.708  -2.771  22.098  0.00  0.00    +0.000 A 
ATOM     18  N   UNL     1      -6.383  -2.837  22.255  0.00  0.00    +0.000 NA
ATOM     19  C   UNL     1      -5.829  -3.667  21.362  0.00  0.00    +0.000 A 
ATOM     20  N   UNL     1      -4.495  -3.948  21.341  0.00  0.00    +0.000 N 
ATOM     21  C   UNL     1      -4.222  -4.826  20.334  0.00  0.00    +0.000 A 
ATOM     22  C   UNL     1      -5.411  -5.140  19.694  0.00  0.00    +0.000 A 
ATOM     23  C   UNL     1      -6.462  -4.400  20.362  0.00  0.00    +0.000 A 
ATOM     24  H   UNL     1      -8.239  -2.115  22.780  0.00  0.00    +0.000 HD
ATOM     25  H   UNL     1      -3.833  -3.567  22.001  0.00  0.00    +0.000 HD
ATOM     26  H   UNL     1      -3.212  -5.170  20.160  0.00  0.00    +0.000 HD
BRANCH  22  27
ATOM     27  C   UNL     1      -5.494  -6.089  18.552  0.00  0.00    +0.000 C 
ATOM     28  H   UNL     1      -5.773  -5.567  17.630  0.00  0.00    +0.000 HD
ATOM     29  H   UNL     1      -6.270  -6.840  18.709  0.00  0.00    +0.000 HD
ATOM     30  H   UNL     1      -4.533  -6.577  18.377  0.00  0.00    +0.000 HD
ENDBRANCH  22  27
ENDBRANCH   4  15
BRANCH   1  32
ATOM     31  N   UNL     1      -9.998  -8.961  16.993  0.00  0.00    +0.000 N 
ATOM     32  C   UNL     1      -9.561  -7.644  17.038  0.00  0.00    +0.000 C 
ATOM     33  O   UNL     1      -8.613  -7.195  16.395  0.00  0.00    +0.000 OA
ATOM     34  H   UNL     1     -10.951  -9.110  17.314  0.00  0.00    +0.000 HD
BRANCH  31  39
ATOM     35  C   UNL     1      -8.634 -12.304  16.087  0.00  0.00    +0.000 A 
ATOM     36  C   UNL     1      -8.315 -12.104  14.737  0.00  0.00    +0.000 A 
ATOM     37  C   UNL     1      -8.478 -10.853  14.156  0.00  0.00    +0.000 A 
ATOM     38  C   UNL     1      -8.992  -9.800  14.910  0.00  0.00    +0.000 A 
ATOM     39  C   UNL     1      -9.372  -9.985  16.244  0.00  0.00    +0.000 A 
ATOM     40  C   UNL     1      -9.148 -11.230  16.845  0.00  0.00    +0.000 A 
ATOM     41  H   UNL     1      -7.942 -12.916  14.119  0.00  0.00    +0.000 HD
ATOM     42  H   UNL     1      -8.225 -10.694  13.111  0.00  0.00    +0.000 HD
ATOM     43  H   UNL     1      -9.084  -8.839  14.413  0.00  0.00    +0.000 HD
ATOM     44  H   UNL     1      -9.403 -11.394  17.891  0.00  0.00    +0.000 HD
BRANCH  35  45
ATOM     45  C   UNL     1      -8.473 -13.635  16.729  0.00  0.00    +0.000 C 
ATOM     46  O   UNL     1      -8.663 -14.695  16.158  0.00  0.00    +0.000 OA
BRANCH  45  47
ATOM     47  O   UNL     1      -8.087 -13.477  18.022  0.00  0.00    +0.000 OA
BRANCH  47  48
ATOM     48  C   UNL     1      -8.877 -14.176  18.981  0.00  0.00    +0.000 C 
ATOM     49  H   UNL     1      -9.595 -14.792  18.433  0.00  0.00    +0.000 HD
ATOM     50  H   UNL     1      -9.430 -13.466  19.601  0.00  0.00    +0.000 HD
ATOM     51  H   UNL     1      -8.255 -14.834  19.595  0.00  0.00    +0.000 HD
ENDBRANCH  47  48
ENDBRANCH  45  47
ENDBRANCH  35  45
ENDBRANCH  31  39
ENDBRANCH   1  32
BRANCH   1  52
ATOM     52  N   UNL     1     -11.849  -7.003  17.648  0.00  0.00    +0.000 NA
ATOM     53  H   UNL     1     -12.156  -6.367  16.907  0.00  0.00    +0.000 HD
ATOM     54  H   UNL     1     -12.404  -6.732  18.462  0.00  0.00    +0.000 HD
ENDBRANCH   1  52
TORSDOF 8
ENDMDL
MODEL 4
REMARK VINA RESULT:   -10.236      3.233      8.580
REMARK INTER + INTRA:         -13.758
REMARK INTER:                 -13.245
REMARK INTRA:                  -0.513
REMARK UNBOUND:                 0.368
REMARK  Name = 
REMARK  8 active torsions:
REMARK  status: ('A' for Active; 'I' for Inactive)
REMARK    1  A    between atoms: C_1  and  O_2
REMARK    2  A    between atoms: O_2  and  C_3
REMARK    3  A    between atoms: C_3  and  C_5
REMARK    4  A    between atoms: C_9  and  N_10
REMARK    5  A    between atoms: C_11  and  C_13
REMARK    6  A    between atoms: C_13  and  N_14
REMARK    7  A    between atoms: N_17  and  C_18
REMARK    8  A    between atoms: C_25  and  C_26
REMARK                            x       y       z     vdW  Elec       q    Type
REMARK                         _______ _______ _______ _____ _____    ______ ____
ROOT
ATOM      1  C   UNL     1     -10.487  -6.453  17.684  0.00  0.00    +0.000 C 
ATOM      2  C   UNL     1      -9.955  -5.011  17.476  0.00  0.00    +0.000 C 
ATOM      3  C   UNL     1      -8.560  -4.824  18.094  0.00  0.00    +0.000 C 
ATOM      4  N   UNL     1      -8.658  -5.231  19.494  0.00  0.00    +0.000 N 
ATOM      5  C   UNL     1      -8.910  -6.656  19.649  0.00  0.00    +0.000 C 
ATOM      6  C   UNL     1     -10.346  -6.881  19.160  0.00  0.00    +0.000 C 
ATOM      7  H   UNL     1     -10.636  -4.293  17.952  0.00  0.00    +0.000 HD
ATOM      8  H   UNL     1      -9.922  -4.749  16.410  0.00  0.00    +0.000 HD
ATOM      9  H   UNL     1      -8.291  -3.764  17.983  0.00  0.00    +0.000 HD
ATOM     10  H   UNL     1      -7.790  -5.403  17.566  0.00  0.00    +0.000 HD
ATOM     11  H   UNL     1      -8.795  -7.002  20.675  0.00  0.00    +0.000 HD
ATOM     12  H   UNL     1      -8.201  -7.251  19.059  0.00  0.00    +0.000 HD
ATOM     13  H   UNL     1     -11.025  -6.271  19.771  0.00  0.00    +0.000 HD
ATOM     14  H   UNL     1     -10.637  -7.925  19.318  0.00  0.00    +0.000 HD
ENDROOT
BRANCH   4  15
ATOM     15  C   UNL     1      -7.779  -4.614  20.376  0.00  0.00    +0.000 A 
ATOM     16  N   UNL     1      -6.538  -5.152  20.534  0.00  0.00    +0.000 NA
ATOM     17  C   UNL     1      -5.605  -4.491  21.239  0.00  0.00    +0.000 A 
ATOM     18  N   UNL     1      -5.719  -3.297  21.829  0.00  0.00    +0.000 NA
ATOM     19  C   UNL     1      -6.948  -2.792  21.668  0.00  0.00    +0.000 A 
ATOM     20  N   UNL     1      -7.309  -1.561  22.133  0.00  0.00    +0.000 N 
ATOM     21  C   UNL     1      -8.612  -1.311  21.816  0.00  0.00    +0.000 A 
ATOM     22  C   UNL     1      -9.108  -2.397  21.111  0.00  0.00    +0.000 A 
ATOM     23  C   UNL     1      -8.030  -3.359  21.000  0.00  0.00    +0.000 A 
ATOM     24  H   UNL     1      -4.638  -4.976  21.325  0.00  0.00    +0.000 HD
ATOM     25  H   UNL     1      -6.678  -0.939  22.614  0.00  0.00    +0.000 HD
ATOM     26  H   UNL     1      -9.080  -0.379  22.102  0.00  0.00    +0.000 HD
BRANCH  22  27
ATOM     27  C   UNL     1     -10.498  -2.462  20.588  0.00  0.00    +0.000 C 
ATOM     28  H   UNL     1     -11.175  -2.894  21.334  0.00  0.00    +0.000 HD
ATOM     29  H   UNL     1     -10.569  -3.112  19.716  0.00  0.00    +0.000 HD
ATOM     30  H   UNL     1     -10.871  -1.465  20.342  0.00  0.00    +0.000 HD
ENDBRANCH  22  27
ENDBRANCH   4  15
BRANCH   1  32
ATOM     31  N   UNL     1     -10.004  -8.764  16.927  0.00  0.00    +0.000 N 
ATOM     32  C   UNL     1      -9.717  -7.419  16.737  0.00  0.00    +0.000 C 
ATOM     33  O   UNL     1      -8.965  -6.976  15.870  0.00  0.00    +0.000 OA
ATOM     34  H   UNL     1     -10.856  -8.954  17.448  0.00  0.00    +0.000 HD
BRANCH  31  39
ATOM     35  C   UNL     1      -8.696 -12.144  16.077  0.00  0.00    +0.000 A 
ATOM     36  C   UNL     1      -8.447 -11.995  14.706  0.00  0.00    +0.000 A 
ATOM     37  C   UNL     1      -8.636 -10.766  14.088  0.00  0.00    +0.000 A 
ATOM     38  C   UNL     1      -9.108  -9.684  14.828  0.00  0.00    +0.000 A 
ATOM     39  C   UNL     1      -9.419  -9.817  16.185  0.00  0.00    +0.000 A 
ATOM     40  C   UNL     1      -9.169 -11.040  16.820  0.00  0.00    +0.000 A 
ATOM     41  H   UNL     1      -8.107 -12.831  14.100  0.00  0.00    +0.000 HD
ATOM     42  H   UNL     1      -8.437 -10.647  13.026  0.00  0.00    +0.000 HD
ATOM     43  H   UNL     1      -9.223  -8.741  14.301  0.00  0.00    +0.000 HD
ATOM     44  H   UNL     1      -9.369 -11.164  17.883  0.00  0.00    +0.000 HD
BRANCH  35  45
ATOM     45  C   UNL     1      -8.506 -13.451  16.759  0.00  0.00    +0.000 C 
ATOM     46  O   UNL     1      -8.627 -14.532  16.208  0.00  0.00    +0.000 OA
BRANCH  45  47
ATOM     47  O   UNL     1      -8.181 -13.246  18.062  0.00  0.00    +0.000 OA
BRANCH  47  48
ATOM     48  C   UNL     1      -8.790 -14.143  18.988  0.00  0.00    +0.000 C 
ATOM     49  H   UNL     1      -8.359 -15.135  18.820  0.00  0.00    +0.000 HD
ATOM     50  H   UNL     1      -9.866 -14.197  18.807  0.00  0.00    +0.000 HD
ATOM     51  H   UNL     1      -8.578 -13.845  20.019  0.00  0.00    +0.000 HD
ENDBRANCH  47  48
ENDBRANCH  45  47
ENDBRANCH  35  45
ENDBRANCH  31  39
ENDBRANCH   1  32
BRANCH   1  52
ATOM     52  N   UNL     1     -11.927  -6.519  17.305  0.00  0.00    +0.000 NA
ATOM     53  H   UNL     1     -11.984  -6.527  16.283  0.00  0.00    +0.000 HD
ATOM     54  H   UNL     1     -12.371  -5.640  17.578  0.00  0.00    +0.000 HD
ENDBRANCH   1  52
TORSDOF 8
ENDMDL
MODEL 5
REMARK VINA RESULT:   -10.065      1.741      2.673
REMARK INTER + INTRA:         -13.521
REMARK INTER:                 -12.865
REMARK INTRA:                  -0.656
REMARK UNBOUND:                 0.368
REMARK  Name = 
REMARK  8 active torsions:
REMARK  status: ('A' for Active; 'I' for Inactive)
REMARK    1  A    between atoms: C_1  and  O_2
REMARK    2  A    between atoms: O_2  and  C_3
REMARK    3  A    between atoms: C_3  and  C_5
REMARK    4  A    between atoms: C_9  and  N_10
REMARK    5  A    between atoms: C_11  and  C_13
REMARK    6  A    between atoms: C_13  and  N_14
REMARK    7  A    between atoms: N_17  and  C_18
REMARK    8  A    between atoms: C_25  and  C_26
REMARK                            x       y       z     vdW  Elec       q    Type
REMARK                         _______ _______ _______ _____ _____    ______ ____
ROOT
ATOM      1  C   UNL     1     -10.014  -5.612  16.660  0.00  0.00    +0.000 C 
ATOM      2  C   UNL     1     -11.195  -6.608  16.509  0.00  0.00    +0.000 C 
ATOM      3  C   UNL     1     -10.830  -8.007  17.031  0.00  0.00    +0.000 C 
ATOM      4  N   UNL     1      -9.610  -8.413  16.337  0.00  0.00    +0.000 N 
ATOM      5  C   UNL     1      -8.457  -7.603  16.703  0.00  0.00    +0.000 C 
ATOM      6  C   UNL     1      -8.711  -6.219  16.097  0.00  0.00    +0.000 C 
ATOM      7  H   UNL     1     -11.467  -6.701  15.450  0.00  0.00    +0.000 HD
ATOM      8  H   UNL     1     -12.091  -6.245  17.030  0.00  0.00    +0.000 HD
ATOM      9  H   UNL     1     -11.678  -8.671  16.811  0.00  0.00    +0.000 HD
ATOM     10  H   UNL     1     -10.689  -8.022  18.120  0.00  0.00    +0.000 HD
ATOM     11  H   UNL     1      -7.514  -8.013  16.345  0.00  0.00    +0.000 HD
ATOM     12  H   UNL     1      -8.350  -7.536  17.794  0.00  0.00    +0.000 HD
ATOM     13  H   UNL     1      -8.815  -6.324  15.008  0.00  0.00    +0.000 HD
ATOM     14  H   UNL     1      -7.845  -5.570  16.266  0.00  0.00    +0.000 HD
ENDROOT
BRANCH   4  15
ATOM     15  C   UNL     1      -9.429  -9.780  16.160  0.00  0.00    +0.000 A 
ATOM     16  N   UNL     1      -9.531 -10.288  14.900  0.00  0.00    +0.000 NA
ATOM     17  C   UNL     1      -9.192 -11.566  14.663  0.00  0.00    +0.000 A 
ATOM     18  N   UNL     1      -8.723 -12.464  15.535  0.00  0.00    +0.000 NA
ATOM     19  C   UNL     1      -8.639 -11.945  16.767  0.00  0.00    +0.000 A 
ATOM     20  N   UNL     1      -8.142 -12.640  17.830  0.00  0.00    +0.000 N 
ATOM     21  C   UNL     1      -8.172 -11.860  18.948  0.00  0.00    +0.000 A 
ATOM     22  C   UNL     1      -8.682 -10.618  18.602  0.00  0.00    +0.000 A 
ATOM     23  C   UNL     1      -8.978 -10.661  17.184  0.00  0.00    +0.000 A 
ATOM     24  H   UNL     1      -9.296 -11.906  13.637  0.00  0.00    +0.000 HD
ATOM     25  H   UNL     1      -7.789 -13.583  17.765  0.00  0.00    +0.000 HD
ATOM     26  H   UNL     1      -7.815 -12.239  19.896  0.00  0.00    +0.000 HD
BRANCH  22  27
ATOM     27  C   UNL     1      -8.841  -9.504  19.573  0.00  0.00    +0.000 C 
ATOM     28  H   UNL     1      -7.866  -9.092  19.857  0.00  0.00    +0.000 HD
ATOM     29  H   UNL     1      -9.298  -9.844  20.503  0.00  0.00    +0.000 HD
ATOM     30  H   UNL     1      -9.431  -8.691  19.143  0.00  0.00    +0.000 HD
ENDBRANCH  22  27
ENDBRANCH   4  15
BRANCH   1  32
ATOM     31  N   UNL     1      -8.794  -4.387  18.437  0.00  0.00    +0.000 N 
ATOM     32  C   UNL     1      -9.860  -5.233  18.162  0.00  0.00    +0.000 C 
ATOM     33  O   UNL     1     -10.673  -5.633  18.994  0.00  0.00    +0.000 OA
ATOM     34  H   UNL     1      -8.411  -3.900  17.632  0.00  0.00    +0.000 HD
BRANCH  31  39
ATOM     35  C   UNL     1      -8.989  -2.485  21.631  0.00  0.00    +0.000 A 
ATOM     36  C   UNL     1      -7.963  -3.094  22.366  0.00  0.00    +0.000 A 
ATOM     37  C   UNL     1      -7.165  -4.069  21.781  0.00  0.00    +0.000 A 
ATOM     38  C   UNL     1      -7.408  -4.467  20.468  0.00  0.00    +0.000 A 
ATOM     39  C   UNL     1      -8.461  -3.918  19.730  0.00  0.00    +0.000 A 
ATOM     40  C   UNL     1      -9.224  -2.891  20.300  0.00  0.00    +0.000 A 
ATOM     41  H   UNL     1      -7.773  -2.823  23.401  0.00  0.00    +0.000 HD
ATOM     42  H   UNL     1      -6.364  -4.537  22.348  0.00  0.00    +0.000 HD
ATOM     43  H   UNL     1      -6.745  -5.221  20.053  0.00  0.00    +0.000 HD
ATOM     44  H   UNL     1     -10.029  -2.421  19.737  0.00  0.00    +0.000 HD
BRANCH  35  45
ATOM     45  C   UNL     1      -9.859  -1.443  22.237  0.00  0.00    +0.000 C 
ATOM     46  O   UNL     1      -9.522  -0.282  22.397  0.00  0.00    +0.000 OA
BRANCH  45  47
ATOM     47  O   UNL     1     -11.059  -1.985  22.572  0.00  0.00    +0.000 OA
BRANCH  47  48
ATOM     48  C   UNL     1     -11.174  -2.414  23.927  0.00  0.00    +0.000 C 
ATOM     49  H   UNL     1     -12.235  -2.583  24.132  0.00  0.00    +0.000 HD
ATOM     50  H   UNL     1     -10.810  -1.634  24.600  0.00  0.00    +0.000 HD
ATOM     51  H   UNL     1     -10.638  -3.355  24.086  0.00  0.00    +0.000 HD
ENDBRANCH  47  48
ENDBRANCH  45  47
ENDBRANCH  35  45
ENDBRANCH  31  39
ENDBRANCH   1  32
BRANCH   1  52
ATOM     52  N   UNL     1     -10.315  -4.356  15.917  0.00  0.00    +0.000 NA
ATOM     53  H   UNL     1     -10.140  -3.568  16.547  0.00  0.00    +0.000 HD
ATOM     54  H   UNL     1     -11.321  -4.322  15.740  0.00  0.00    +0.000 HD
ENDBRANCH   1  52
TORSDOF 8
ENDMDL
MODEL 6
REMARK VINA RESULT:   -10.027      2.623      2.919
REMARK INTER + INTRA:         -13.469
REMARK INTER:                 -12.980
REMARK INTRA:                  -0.490
REMARK UNBOUND:                 0.368
REMARK  Name = 
REMARK  8 active torsions:
REMARK  status: ('A' for Active; 'I' for Inactive)
REMARK    1  A    between atoms: C_1  and  O_2
REMARK    2  A    between atoms: O_2  and  C_3
REMARK    3  A    between atoms: C_3  and  C_5
REMARK    4  A    between atoms: C_9  and  N_10
REMARK    5  A    between atoms: C_11  and  C_13
REMARK    6  A    between atoms: C_13  and  N_14
REMARK    7  A    between atoms: N_17  and  C_18
REMARK    8  A    between atoms: C_25  and  C_26
REMARK                            x       y       z     vdW  Elec       q    Type
REMARK                         _______ _______ _______ _____ _____    ______ ____
ROOT
ATOM      1  C   UNL     1     -10.687  -5.994  16.600  0.00  0.00    +0.000 C 
ATOM      2  C   UNL     1     -11.440  -7.065  17.432  0.00  0.00    +0.000 C 
ATOM      3  C   UNL     1     -10.471  -7.953  18.229  0.00  0.00    +0.000 C 
ATOM      4  N   UNL     1      -9.513  -8.501  17.271  0.00  0.00    +0.000 N 
ATOM      5  C   UNL     1      -8.646  -7.483  16.696  0.00  0.00    +0.000 C 
ATOM      6  C   UNL     1      -9.543  -6.637  15.786  0.00  0.00    +0.000 C 
ATOM      7  H   UNL     1     -12.021  -7.712  16.762  0.00  0.00    +0.000 HD
ATOM      8  H   UNL     1     -12.161  -6.601  18.118  0.00  0.00    +0.000 HD
ATOM      9  H   UNL     1     -11.069  -8.734  18.719  0.00  0.00    +0.000 HD
ATOM     10  H   UNL     1      -9.959  -7.398  19.027  0.00  0.00    +0.000 HD
ATOM     11  H   UNL     1      -7.811  -7.899  16.135  0.00  0.00    +0.000 HD
ATOM     12  H   UNL     1      -8.191  -6.862  17.479  0.00  0.00    +0.000 HD
ATOM     13  H   UNL     1      -9.982  -7.290  15.019  0.00  0.00    +0.000 HD
ATOM     14  H   UNL     1      -8.943  -5.891  15.255  0.00  0.00    +0.000 HD
ENDROOT
BRANCH   4  15
ATOM     15  C   UNL     1      -8.962  -9.736  17.592  0.00  0.00    +0.000 A 
ATOM     16  N   UNL     1      -8.670  -9.993  18.898  0.00  0.00    +0.000 NA
ATOM     17  C   UNL     1      -8.302 -11.231  19.271  0.00  0.00    +0.000 A 
ATOM     18  N   UNL     1      -8.193 -12.318  18.503  0.00  0.00    +0.000 NA
ATOM     19  C   UNL     1      -8.476 -12.040  17.224  0.00  0.00    +0.000 A 
ATOM     20  N   UNL     1      -8.486 -12.989  16.245  0.00  0.00    +0.000 N 
ATOM     21  C   UNL     1      -8.816 -12.418  15.051  0.00  0.00    +0.000 A 
ATOM     22  C   UNL     1      -9.045 -11.067  15.260  0.00  0.00    +0.000 A 
ATOM     23  C   UNL     1      -8.838 -10.814  16.672  0.00  0.00    +0.000 A 
ATOM     24  H   UNL     1      -8.085 -11.366  20.326  0.00  0.00    +0.000 HD
ATOM     25  H   UNL     1      -8.298 -13.966  16.411  0.00  0.00    +0.000 HD
ATOM     26  H   UNL     1      -8.877 -13.016  14.152  0.00  0.00    +0.000 HD
BRANCH  22  27
ATOM     27  C   UNL     1      -9.445 -10.132  14.175  0.00  0.00    +0.000 C 
ATOM     28  H   UNL     1      -9.531  -9.108  14.555  0.00  0.00    +0.000 HD
ATOM     29  H   UNL     1     -10.429 -10.379  13.774  0.00  0.00    +0.000 HD
ATOM     30  H   UNL     1      -8.706 -10.125  13.371  0.00  0.00    +0.000 HD
ENDBRANCH  22  27
ENDBRANCH   4  15
BRANCH   1  32
ATOM     31  N   UNL     1     -10.933  -3.749  17.623  0.00  0.00    +0.000 N 
ATOM     32  C   UNL     1     -10.149  -4.893  17.560  0.00  0.00    +0.000 C 
ATOM     33  O   UNL     1      -9.134  -5.088  18.228  0.00  0.00    +0.000 OA
ATOM     34  H   UNL     1     -11.880  -3.855  17.269  0.00  0.00    +0.000 HD
BRANCH  31  39
ATOM     35  C   UNL     1     -10.787  -1.491  20.580  0.00  0.00    +0.000 A 
ATOM     36  C   UNL     1      -9.911  -0.501  20.116  0.00  0.00    +0.000 A 
ATOM     37  C   UNL     1      -9.436  -0.541  18.811  0.00  0.00    +0.000 A 
ATOM     38  C   UNL     1      -9.808  -1.588  17.970  0.00  0.00    +0.000 A 
ATOM     39  C   UNL     1     -10.635  -2.621  18.424  0.00  0.00    +0.000 A 
ATOM     40  C   UNL     1     -11.162  -2.546  19.719  0.00  0.00    +0.000 A 
ATOM     41  H   UNL     1      -9.582   0.309  20.761  0.00  0.00    +0.000 HD
ATOM     42  H   UNL     1      -8.762   0.230  18.447  0.00  0.00    +0.000 HD
ATOM     43  H   UNL     1      -9.422  -1.563  16.955  0.00  0.00    +0.000 HD
ATOM     44  H   UNL     1     -11.836  -3.317  20.088  0.00  0.00    +0.000 HD
BRANCH  35  45
ATOM     45  C   UNL     1     -11.304  -1.473  21.974  0.00  0.00    +0.000 C 
ATOM     46  O   UNL     1     -12.348  -0.938  22.307  0.00  0.00    +0.000 OA
BRANCH  45  47
ATOM     47  O   UNL     1     -10.444  -2.135  22.791  0.00  0.00    +0.000 OA
BRANCH  47  48
ATOM     48  C   UNL     1     -10.983  -2.525  24.052  0.00  0.00    +0.000 C 
ATOM     49  H   UNL     1     -11.947  -3.008  23.865  0.00  0.00    +0.000 HD
ATOM     50  H   UNL     1     -11.152  -1.644  24.676  0.00  0.00    +0.000 HD
ATOM     51  H   UNL     1     -10.327  -3.243  24.552  0.00  0.00    +0.000 HD
ENDBRANCH  47  48
ENDBRANCH  45  47
ENDBRANCH  35  45
ENDBRANCH  31  39
ENDBRANCH   1  32
BRANCH   1  52
ATOM     52  N   UNL     1     -11.630  -5.332  15.655  0.00  0.00    +0.000 NA
ATOM     53  H   UNL     1     -11.158  -4.514  15.260  0.00  0.00    +0.000 HD
ATOM     54  H   UNL     1     -12.405  -4.942  16.197  0.00  0.00    +0.000 HD
ENDBRANCH   1  52
TORSDOF 8
ENDMDL
MODEL 7
REMARK VINA RESULT:   -10.010      4.035      6.997
REMARK INTER + INTRA:         -13.446
REMARK INTER:                 -12.536
REMARK INTRA:                  -0.910
REMARK UNBOUND:                 0.368
REMARK  Name = 
REMARK  8 active torsions:
REMARK  status: ('A' for Active; 'I' for Inactive)
REMARK    1  A    between atoms: C_1  and  O_2
REMARK    2  A    between atoms: O_2  and  C_3
REMARK    3  A    between atoms: C_3  and  C_5
REMARK    4  A    between atoms: C_9  and  N_10
REMARK    5  A    between atoms: C_11  and  C_13
REMARK    6  A    between atoms: C_13  and  N_14
REMARK    7  A    between atoms: N_17  and  C_18
REMARK    8  A    between atoms: C_25  and  C_26
REMARK                            x       y       z     vdW  Elec       q    Type
REMARK                         _______ _______ _______ _____ _____    ______ ____
ROOT
ATOM      1  C   UNL     1      -9.593  -5.783  17.418  0.00  0.00    +0.000 C 
ATOM      2  C   UNL     1      -8.440  -6.333  16.538  0.00  0.00    +0.000 C 
ATOM      3  C   UNL     1      -8.885  -7.551  15.712  0.00  0.00    +0.000 C 
ATOM      4  N   UNL     1      -9.437  -8.522  16.653  0.00  0.00    +0.000 N 
ATOM      5  C   UNL     1     -10.671  -8.066  17.276  0.00  0.00    +0.000 C 
ATOM      6  C   UNL     1     -10.266  -6.923  18.214  0.00  0.00    +0.000 C 
ATOM      7  H   UNL     1      -7.603  -6.644  17.177  0.00  0.00    +0.000 HD
ATOM      8  H   UNL     1      -8.048  -5.558  15.866  0.00  0.00    +0.000 HD
ATOM      9  H   UNL     1      -7.999  -7.933  15.186  0.00  0.00    +0.000 HD
ATOM     10  H   UNL     1      -9.621  -7.284  14.941  0.00  0.00    +0.000 HD
ATOM     11  H   UNL     1     -11.189  -8.850  17.826  0.00  0.00    +0.000 HD
ATOM     12  H   UNL     1     -11.389  -7.714  16.523  0.00  0.00    +0.000 HD
ATOM     13  H   UNL     1      -9.548  -7.310  18.950  0.00  0.00    +0.000 HD
ATOM     14  H   UNL     1     -11.137  -6.575  18.779  0.00  0.00    +0.000 HD
ENDROOT
BRANCH   4  15
ATOM     15  C   UNL     1      -9.337  -9.859  16.285  0.00  0.00    +0.000 A 
ATOM     16  N   UNL     1      -9.505 -10.183  14.973  0.00  0.00    +0.000 NA
ATOM     17  C   UNL     1      -9.244 -11.432  14.551  0.00  0.00    +0.000 A 
ATOM     18  N   UNL     1      -8.797 -12.462  15.274  0.00  0.00    +0.000 NA
ATOM     19  C   UNL     1      -8.646 -12.124  16.561  0.00  0.00    +0.000 A 
ATOM     20  N   UNL     1      -8.155 -12.982  17.500  0.00  0.00    +0.000 N 
ATOM     21  C   UNL     1      -8.107 -12.363  18.713  0.00  0.00    +0.000 A 
ATOM     22  C   UNL     1      -8.560 -11.062  18.559  0.00  0.00    +0.000 A 
ATOM     23  C   UNL     1      -8.902 -10.894  17.161  0.00  0.00    +0.000 A 
ATOM     24  H   UNL     1      -9.399 -11.621  13.494  0.00  0.00    +0.000 HD
ATOM     25  H   UNL     1      -7.855 -13.924  17.294  0.00  0.00    +0.000 HD
ATOM     26  H   UNL     1      -7.741 -12.887  19.586  0.00  0.00    +0.000 HD
BRANCH  22  27
ATOM     27  C   UNL     1      -8.628 -10.086  19.679  0.00  0.00    +0.000 C 
ATOM     28  H   UNL     1      -7.859  -9.312  19.568  0.00  0.00    +0.000 HD
ATOM     29  H   UNL     1      -8.428 -10.561  20.640  0.00  0.00    +0.000 HD
ATOM     30  H   UNL     1      -9.599  -9.586  19.704  0.00  0.00    +0.000 HD
ENDBRANCH  22  27
ENDBRANCH   4  15
BRANCH   1  32
ATOM     31  N   UNL     1     -10.054  -4.137  15.623  0.00  0.00    +0.000 N 
ATOM     32  C   UNL     1     -10.618  -5.045  16.509  0.00  0.00    +0.000 C 
ATOM     33  O   UNL     1     -11.816  -5.317  16.569  0.00  0.00    +0.000 OA
ATOM     34  H   UNL     1      -9.055  -4.247  15.471  0.00  0.00    +0.000 HD
BRANCH  31  39
ATOM     35  C   UNL     1     -11.697  -3.060  12.461  0.00  0.00    +0.000 A 
ATOM     36  C   UNL     1     -12.409  -1.936  12.901  0.00  0.00    +0.000 A 
ATOM     37  C   UNL     1     -12.284  -1.496  14.212  0.00  0.00    +0.000 A 
ATOM     38  C   UNL     1     -11.471  -2.194  15.103  0.00  0.00    +0.000 A 
ATOM     39  C   UNL     1     -10.793  -3.352  14.707  0.00  0.00    +0.000 A 
ATOM     40  C   UNL     1     -10.872  -3.758  13.369  0.00  0.00    +0.000 A 
ATOM     41  H   UNL     1     -13.073  -1.392  12.234  0.00  0.00    +0.000 HD
ATOM     42  H   UNL     1     -12.830  -0.620  14.554  0.00  0.00    +0.000 HD
ATOM     43  H   UNL     1     -11.394  -1.798  16.112  0.00  0.00    +0.000 HD
ATOM     44  H   UNL     1     -10.328  -4.636  13.024  0.00  0.00    +0.000 HD
BRANCH  35  45
ATOM     45  C   UNL     1     -11.820  -3.553  11.064  0.00  0.00    +0.000 C 
ATOM     46  O   UNL     1     -11.519  -4.680  10.710  0.00  0.00    +0.000 OA
BRANCH  45  47
ATOM     47  O   UNL     1     -12.311  -2.566  10.270  0.00  0.00    +0.000 OA
BRANCH  47  48
ATOM     48  C   UNL     1     -11.502  -2.233   9.145  0.00  0.00    +0.000 C 
ATOM     49  H   UNL     1     -11.168  -1.199   9.272  0.00  0.00    +0.000 HD
ATOM     50  H   UNL     1     -12.092  -2.297   8.227  0.00  0.00    +0.000 HD
ATOM     51  H   UNL     1     -10.620  -2.878   9.092  0.00  0.00    +0.000 HD
ENDBRANCH  47  48
ENDBRANCH  45  47
ENDBRANCH  35  45
ENDBRANCH  31  39
ENDBRANCH   1  32
BRANCH   1  52
ATOM     52  N   UNL     1      -9.058  -4.781  18.383  0.00  0.00    +0.000 NA
ATOM     53  H   UNL     1      -9.854  -4.290  18.801  0.00  0.00    +0.000 HD
ATOM     54  H   UNL     1      -8.563  -4.060  17.854  0.00  0.00    +0.000 HD
ENDBRANCH   1  52
TORSDOF 8
ENDMDL
MODEL 8
REMARK VINA RESULT:    -9.934      3.796      6.133
REMARK INTER + INTRA:         -13.341
REMARK INTER:                 -12.484
REMARK INTRA:                  -0.857
REMARK UNBOUND:                 0.368
REMARK  Name = 
REMARK  8 active torsions:
REMARK  status: ('A' for Active; 'I' for Inactive)
REMARK    1  A    between atoms: C_1  and  O_2
REMARK    2  A    between atoms: O_2  and  C_3
REMARK    3  A    between atoms: C_3  and  C_5
REMARK    4  A    between atoms: C_9  and  N_10
REMARK    5  A    between atoms: C_11  and  C_13
REMARK    6  A    between atoms: C_13  and  N_14
REMARK    7  A    between atoms: N_17  and  C_18
REMARK    8  A    between atoms: C_25  and  C_26
REMARK                            x       y       z     vdW  Elec       q    Type
REMARK                         _______ _______ _______ _____ _____    ______ ____
ROOT
ATOM      1  C   UNL     1      -9.591  -5.763  17.442  0.00  0.00    +0.000 C 
ATOM      2  C   UNL     1      -8.473  -6.311  16.516  0.00  0.00    +0.000 C 
ATOM      3  C   UNL     1      -8.940  -7.547  15.729  0.00  0.00    +0.000 C 
ATOM      4  N   UNL     1      -9.435  -8.512  16.709  0.00  0.00    +0.000 N 
ATOM      5  C   UNL     1     -10.644  -8.061  17.383  0.00  0.00    +0.000 C 
ATOM      6  C   UNL     1     -10.210  -6.899  18.284  0.00  0.00    +0.000 C 
ATOM      7  H   UNL     1      -7.603  -6.602  17.119  0.00  0.00    +0.000 HD
ATOM      8  H   UNL     1      -8.123  -5.542  15.815  0.00  0.00    +0.000 HD
ATOM      9  H   UNL     1      -8.075  -7.926  15.168  0.00  0.00    +0.000 HD
ATOM     10  H   UNL     1      -9.715  -7.302  14.990  0.00  0.00    +0.000 HD
ATOM     11  H   UNL     1     -11.125  -8.843  17.968  0.00  0.00    +0.000 HD
ATOM     12  H   UNL     1     -11.401  -7.730  16.660  0.00  0.00    +0.000 HD
ATOM     13  H   UNL     1      -9.453  -7.266  18.992  0.00  0.00    +0.000 HD
ATOM     14  H   UNL     1     -11.058  -6.554  18.885  0.00  0.00    +0.000 HD
ENDROOT
BRANCH   4  15
ATOM     15  C   UNL     1      -9.334  -9.853  16.357  0.00  0.00    +0.000 A 
ATOM     16  N   UNL     1      -9.512 -10.192  15.049  0.00  0.00    +0.000 NA
ATOM     17  C   UNL     1      -9.251 -11.445  14.640  0.00  0.00    +0.000 A 
ATOM     18  N   UNL     1      -8.795 -12.466  15.372  0.00  0.00    +0.000 NA
ATOM     19  C   UNL     1      -8.635 -12.112  16.653  0.00  0.00    +0.000 A 
ATOM     20  N   UNL     1      -8.135 -12.958  17.598  0.00  0.00    +0.000 N 
ATOM     21  C   UNL     1      -8.079 -12.324  18.804  0.00  0.00    +0.000 A 
ATOM     22  C   UNL     1      -8.536 -11.026  18.638  0.00  0.00    +0.000 A 
ATOM     23  C   UNL     1      -8.890 -10.876  17.241  0.00  0.00    +0.000 A 
ATOM     24  H   UNL     1      -9.413 -11.647  13.586  0.00  0.00    +0.000 HD
ATOM     25  H   UNL     1      -7.835 -13.901  17.401  0.00  0.00    +0.000 HD
ATOM     26  H   UNL     1      -7.705 -12.837  19.680  0.00  0.00    +0.000 HD
BRANCH  22  27
ATOM     27  C   UNL     1      -8.598 -10.037  19.747  0.00  0.00    +0.000 C 
ATOM     28  H   UNL     1      -8.434 -10.525  20.715  0.00  0.00    +0.000 HD
ATOM     29  H   UNL     1      -9.582  -9.571  19.816  0.00  0.00    +0.000 HD
ATOM     30  H   UNL     1      -7.830  -9.270  19.630  0.00  0.00    +0.000 HD
ENDBRANCH  22  27
ENDBRANCH   4  15
BRANCH   1  32
ATOM     31  N   UNL     1     -10.160  -4.354  15.483  0.00  0.00    +0.000 N 
ATOM     32  C   UNL     1     -10.667  -5.052  16.571  0.00  0.00    +0.000 C 
ATOM     33  O   UNL     1     -11.863  -5.172  16.834  0.00  0.00    +0.000 OA
ATOM     34  H   UNL     1      -9.210  -4.600  15.218  0.00  0.00    +0.000 HD
BRANCH  31  39
ATOM     35  C   UNL     1     -12.243  -1.628  14.037  0.00  0.00    +0.000 A 
ATOM     36  C   UNL     1     -12.362  -2.061  12.709  0.00  0.00    +0.000 A 
ATOM     37  C   UNL     1     -11.825  -3.281  12.318  0.00  0.00    +0.000 A 
ATOM     38  C   UNL     1     -11.135  -4.063  13.243  0.00  0.00    +0.000 A 
ATOM     39  C   UNL     1     -10.951  -3.630  14.560  0.00  0.00    +0.000 A 
ATOM     40  C   UNL     1     -11.547  -2.430  14.968  0.00  0.00    +0.000 A 
ATOM     41  H   UNL     1     -12.869  -1.456  11.962  0.00  0.00    +0.000 HD
ATOM     42  H   UNL     1     -11.922  -3.621  11.291  0.00  0.00    +0.000 HD
ATOM     43  H   UNL     1     -10.749  -5.015  12.890  0.00  0.00    +0.000 HD
ATOM     44  H   UNL     1     -11.449  -2.084  15.996  0.00  0.00    +0.000 HD
BRANCH  35  45
ATOM     45  C   UNL     1     -12.804  -0.325  14.477  0.00  0.00    +0.000 C 
ATOM     46  O   UNL     1     -12.569   0.739  13.930  0.00  0.00    +0.000 OA
BRANCH  45  47
ATOM     47  O   UNL     1     -13.602  -0.511  15.561  0.00  0.00    +0.000 OA
BRANCH  47  48
ATOM     48  C   UNL     1     -14.255   0.660  16.043  0.00  0.00    +0.000 C 
ATOM     49  H   UNL     1     -15.140   0.827  15.421  0.00  0.00    +0.000 HD
ATOM     50  H   UNL     1     -13.594   1.526  15.945  0.00  0.00    +0.000 HD
ATOM     51  H   UNL     1     -14.581   0.528  17.079  0.00  0.00    +0.000 HD
ENDBRANCH  47  48
ENDBRANCH  45  47
ENDBRANCH  35  45
ENDBRANCH  31  39
ENDBRANCH   1  32
BRANCH   1  52
ATOM     52  N   UNL     1      -9.025  -4.740  18.366  0.00  0.00    +0.000 NA
ATOM     53  H   UNL     1      -9.502  -4.831  19.267  0.00  0.00    +0.000 HD
ATOM     54  H   UNL     1      -9.296  -3.816  18.024  0.00  0.00    +0.000 HD
ENDBRANCH   1  52
TORSDOF 8
ENDMDL
MODEL 9
REMARK VINA RESULT:    -9.800      3.296      8.176
REMARK INTER + INTRA:         -13.156
REMARK INTER:                 -12.403
REMARK INTRA:                  -0.753
REMARK UNBOUND:                 0.368
REMARK  Name = 
REMARK  8 active torsions:
REMARK  status: ('A' for Active; 'I' for Inactive)
REMARK    1  A    between atoms: C_1  and  O_2
REMARK    2  A    between atoms: O_2  and  C_3
REMARK    3  A    between atoms: C_3  and  C_5
REMARK    4  A    between atoms: C_9  and  N_10
REMARK    5  A    between atoms: C_11  and  C_13
REMARK    6  A    between atoms: C_13  and  N_14
REMARK    7  A    between atoms: N_17  and  C_18
REMARK    8  A    between atoms: C_25  and  C_26
REMARK                            x       y       z     vdW  Elec       q    Type
REMARK                         _______ _______ _______ _____ _____    ______ ____
ROOT
ATOM      1  C   UNL     1     -11.103  -5.375  16.098  0.00  0.00    +0.000 C 
ATOM      2  C   UNL     1     -10.342  -4.033  15.934  0.00  0.00    +0.000 C 
ATOM      3  C   UNL     1      -9.450  -3.732  17.150  0.00  0.00    +0.000 C 
ATOM      4  N   UNL     1     -10.308  -3.796  18.331  0.00  0.00    +0.000 N 
ATOM      5  C   UNL     1     -10.803  -5.138  18.597  0.00  0.00    +0.000 C 
ATOM      6  C   UNL     1     -11.800  -5.445  17.474  0.00  0.00    +0.000 C 
ATOM      7  H   UNL     1     -11.061  -3.210  15.829  0.00  0.00    +0.000 HD
ATOM      8  H   UNL     1      -9.731  -4.031  15.022  0.00  0.00    +0.000 HD
ATOM      9  H   UNL     1      -9.016  -2.735  17.000  0.00  0.00    +0.000 HD
ATOM     10  H   UNL     1      -8.610  -4.435  17.234  0.00  0.00    +0.000 HD
ATOM     11  H   UNL     1     -11.280  -5.234  19.572  0.00  0.00    +0.000 HD
ATOM     12  H   UNL     1      -9.985  -5.870  18.599  0.00  0.00    +0.000 HD
ATOM     13  H   UNL     1     -12.603  -4.694  17.500  0.00  0.00    +0.000 HD
ATOM     14  H   UNL     1     -12.276  -6.416  17.648  0.00  0.00    +0.000 HD
ENDROOT
BRANCH   4  15
ATOM     15  C   UNL     1      -9.929  -3.004  19.409  0.00  0.00    +0.000 A 
ATOM     16  N   UNL     1     -10.742  -1.973  19.771  0.00  0.00    +0.000 NA
ATOM     17  C   UNL     1     -10.502  -1.298  20.908  0.00  0.00    +0.000 A 
ATOM     18  N   UNL     1      -9.533  -1.516  21.801  0.00  0.00    +0.000 NA
ATOM     19  C   UNL     1      -8.742  -2.528  21.420  0.00  0.00    +0.000 A 
ATOM     20  N   UNL     1      -7.706  -2.985  22.181  0.00  0.00    +0.000 N 
ATOM     21  C   UNL     1      -7.088  -4.022  21.547  0.00  0.00    +0.000 A 
ATOM     22  C   UNL     1      -7.749  -4.261  20.352  0.00  0.00    +0.000 A 
ATOM     23  C   UNL     1      -8.832  -3.302  20.267  0.00  0.00    +0.000 A 
ATOM     24  H   UNL     1     -11.189  -0.489  21.136  0.00  0.00    +0.000 HD
ATOM     25  H   UNL     1      -7.470  -2.608  23.087  0.00  0.00    +0.000 HD
ATOM     26  H   UNL     1      -6.240  -4.518  21.999  0.00  0.00    +0.000 HD
BRANCH  22  27
ATOM     27  C   UNL     1      -7.356  -5.339  19.406  0.00  0.00    +0.000 C 
ATOM     28  H   UNL     1      -6.581  -4.988  18.715  0.00  0.00    +0.000 HD
ATOM     29  H   UNL     1      -8.192  -5.646  18.777  0.00  0.00    +0.000 HD
ATOM     30  H   UNL     1      -6.955  -6.202  19.941  0.00  0.00    +0.000 HD
ENDBRANCH  22  27
ENDBRANCH   4  15
BRANCH   1  32
ATOM     31  N   UNL     1     -10.655  -7.814  16.088  0.00  0.00    +0.000 N 
ATOM     32  C   UNL     1     -10.103  -6.552  15.909  0.00  0.00    +0.000 C 
ATOM     33  O   UNL     1      -8.938  -6.335  15.577  0.00  0.00    +0.000 OA
ATOM     34  H   UNL     1     -11.670  -7.849  16.048  0.00  0.00    +0.000 HD
BRANCH  31  39
ATOM     35  C   UNL     1      -8.872 -10.935  17.053  0.00  0.00    +0.000 A 
ATOM     36  C   UNL     1      -8.673 -11.527  15.798  0.00  0.00    +0.000 A 
ATOM     37  C   UNL     1      -9.056 -10.861  14.641  0.00  0.00    +0.000 A 
ATOM     38  C   UNL     1      -9.670  -9.614  14.730  0.00  0.00    +0.000 A 
ATOM     39  C   UNL     1      -9.933  -9.024  15.971  0.00  0.00    +0.000 A 
ATOM     40  C   UNL     1      -9.490  -9.669  17.134  0.00  0.00    +0.000 A 
ATOM     41  H   UNL     1      -8.224 -12.512  15.704  0.00  0.00    +0.000 HD
ATOM     42  H   UNL     1      -8.896 -11.315  13.667  0.00  0.00    +0.000 HD
ATOM     43  H   UNL     1      -9.935  -9.129  13.795  0.00  0.00    +0.000 HD
ATOM     44  H   UNL     1      -9.651  -9.219  18.112  0.00  0.00    +0.000 HD
BRANCH  35  45
ATOM     45  C   UNL     1      -8.476 -11.631  18.306  0.00  0.00    +0.000 C 
ATOM     46  O   UNL     1      -8.470 -11.104  19.406  0.00  0.00    +0.000 OA
BRANCH  45  47
ATOM     47  O   UNL     1      -8.132 -12.915  18.029  0.00  0.00    +0.000 OA
BRANCH  47  48
ATOM     48  C   UNL     1      -8.852 -13.907  18.758  0.00  0.00    +0.000 C 
ATOM     49  H   UNL     1      -9.036 -13.512  19.762  0.00  0.00    +0.000 HD
ATOM     50  H   UNL     1      -8.252 -14.816  18.847  0.00  0.00    +0.000 HD
ATOM     51  H   UNL     1      -9.817 -14.116  18.287  0.00  0.00    +0.000 HD
ENDBRANCH  47  48
ENDBRANCH  45  47
ENDBRANCH  35  45
ENDBRANCH  31  39
ENDBRANCH   1  32
BRANCH   1  52
ATOM     52  N   UNL     1     -12.138  -5.501  15.033  0.00  0.00    +0.000 NA
ATOM     53  H   UNL     1     -12.949  -4.942  15.314  0.00  0.00    +0.000 HD
ATOM     54  H   UNL     1     -12.481  -6.464  15.032  0.00  0.00    +0.000 HD
ENDBRANCH   1  52
TORSDOF 8
ENDMDL
