REMARK  Name = 
REMARK  9 active torsions:
REMARK  status: ('A' for Active; 'I' for Inactive)
REMARK    1  A    between atoms: C_1  and  C_2
REMARK    2  A    between atoms: C_2  and  C_3
REMARK    3  A    between atoms: C_2  and  C_4
REMARK    4  A    between atoms: C_2  and  C_5
REMARK    5  A    between atoms: C_8  and  C_9
REMARK    6  A    between atoms: C_14  and  O_15
REMARK    7  A    between atoms: C_16  and  O_17
REMARK    8  A    between atoms: C_24  and  O_25
REMARK    9  A    between atoms: C_26  and  O_27
REMARK                            x       y       z     vdW  Elec       q    Type
REMARK                         _______ _______ _______ _____ _____    ______ ____
ROOT
ATOM      1  C   UNL     1       1.473   0.768   0.205  0.00  0.00    +0.000 C 
ATOM      2  O   UNL     1       2.501   1.137   0.787  0.00  0.00    +0.000 OA
ATOM      3  N   UNL     1       1.008   1.608  -0.839  0.00  0.00    +0.000 N 
ATOM      4  C   UNL     1       1.391   2.951  -1.011  0.00  0.00    +0.000 A 
ATOM      5  C   UNL     1       2.091   3.876  -0.216  0.00  0.00    +0.000 A 
ATOM      6  C   UNL     1       2.560   5.013  -0.876  0.00  0.00    +0.000 A 
ATOM      7  C   UNL     1       2.417   5.169  -2.248  0.00  0.00    +0.000 A 
ATOM      8  C   UNL     1       1.521   4.386  -2.950  0.00  0.00    +0.000 A 
ATOM      9  C   UNL     1       0.901   3.338  -2.254  0.00  0.00    +0.000 A 
ATOM     10  C   UNL     1      -0.253   2.549  -2.425  0.00  0.00    +0.000 A 
ATOM     11  C   UNL     1      -1.495   2.687  -3.072  0.00  0.00    +0.000 A 
ATOM     12 BR   UNL     1      -2.223   4.410  -3.372  0.00  0.00    +0.000 Br
ATOM     13  C   UNL     1      -2.257   1.555  -3.349  0.00  0.00    +0.000 A 
ATOM     14  C   UNL     1      -1.697   0.310  -3.106  0.00  0.00    +0.000 A 
ATOM     15  C   UNL     1      -0.511   0.169  -2.371  0.00  0.00    +0.000 A 
ATOM     16  C   UNL     1       0.085   1.321  -1.852  0.00  0.00    +0.000 A 
ATOM     17  H   UNL     1       2.282   3.701   0.837  0.00  0.00    +0.000 HD
ATOM     18  H   UNL     1       1.326   4.557  -4.001  0.00  0.00    +0.000 HD
ATOM     19  H   UNL     1      -3.241   1.661  -3.793  0.00  0.00    +0.000 HD
ENDROOT
BRANCH   1  23
ATOM     20  C   UNL     1      -0.376  -2.708   1.989  0.00  0.00    +0.000 A 
ATOM     21  C   UNL     1      -1.150  -1.721   1.349  0.00  0.00    +0.000 A 
ATOM     22  C   UNL     1      -0.564  -0.599   0.749  0.00  0.00    +0.000 A 
ATOM     23  C   UNL     1       0.822  -0.455   0.732  0.00  0.00    +0.000 A 
ATOM     24  C   UNL     1       1.612  -1.425   1.361  0.00  0.00    +0.000 A 
ATOM     25  C   UNL     1       1.019  -2.529   1.988  0.00  0.00    +0.000 A 
ATOM     26  H   UNL     1      -2.235  -1.784   1.331  0.00  0.00    +0.000 HD
ATOM     27  H   UNL     1      -1.222   0.144   0.309  0.00  0.00    +0.000 HD
ATOM     28  H   UNL     1       2.696  -1.309   1.394  0.00  0.00    +0.000 HD
ATOM     29  H   UNL     1       1.678  -3.234   2.488  0.00  0.00    +0.000 HD
BRANCH  20  30
ATOM     30  C   UNL     1      -1.041  -3.877   2.739  0.00  0.00    +0.000 C 
BRANCH  30  31
ATOM     31  C   UNL     1      -2.380  -4.309   2.097  0.00  0.00    +0.000 C 
ATOM     32  H   UNL     1      -2.794  -5.189   2.603  0.00  0.00    +0.000 HD
ATOM     33  H   UNL     1      -2.250  -4.562   1.039  0.00  0.00    +0.000 HD
ATOM     34  H   UNL     1      -3.147  -3.529   2.167  0.00  0.00    +0.000 HD
ENDBRANCH  30  31
BRANCH  30  35
ATOM     35  C   UNL     1      -1.317  -3.413   4.183  0.00  0.00    +0.000 C 
ATOM     36  H   UNL     1      -1.797  -4.205   4.768  0.00  0.00    +0.000 HD
ATOM     37  H   UNL     1      -1.978  -2.538   4.204  0.00  0.00    +0.000 HD
ATOM     38  H   UNL     1      -0.390  -3.133   4.698  0.00  0.00    +0.000 HD
ENDBRANCH  30  35
BRANCH  30  39
ATOM     39  C   UNL     1      -0.150  -5.137   2.789  0.00  0.00    +0.000 C 
ATOM     40  H   UNL     1      -0.679  -5.975   3.259  0.00  0.00    +0.000 HD
ATOM     41  H   UNL     1       0.760  -4.979   3.377  0.00  0.00    +0.000 HD
ATOM     42  H   UNL     1       0.147  -5.454   1.782  0.00  0.00    +0.000 HD
ENDBRANCH  30  39
ENDBRANCH  20  30
ENDBRANCH   1  23
BRANCH   6  43
ATOM     43  O   UNL     1       3.170   6.025  -0.189  0.00  0.00    +0.000 OA
ATOM     44  H   UNL     1       2.581   6.213   0.567  0.00  0.00    +0.000 HD
ENDBRANCH   6  43
BRANCH   7  45
ATOM     45  O   UNL     1       3.114   6.139  -2.906  0.00  0.00    +0.000 OA
ATOM     46  H   UNL     1       3.738   6.485  -2.238  0.00  0.00    +0.000 HD
ENDBRANCH   7  45
BRANCH  14  47
ATOM     47  O   UNL     1      -2.299  -0.831  -3.565  0.00  0.00    +0.000 OA
ATOM     48  H   UNL     1      -3.089  -0.578  -4.075  0.00  0.00    +0.000 HD
ENDBRANCH  14  47
BRANCH  15  49
ATOM     49  O   UNL     1       0.063  -1.063  -2.227  0.00  0.00    +0.000 OA
ATOM     50  H   UNL     1      -0.420  -1.638  -2.855  0.00  0.00    +0.000 HD
ENDBRANCH  15  49
TORSDOF 9
