REMARK  Name = 
REMARK  14 active torsions:
REMARK  status: ('A' for Active; 'I' for Inactive)
REMARK    1  A    between atoms: N_1  and  C_2
REMARK    2  A    between atoms: C_2  and  C_3
REMARK    3  A    between atoms: C_2  and  C_8
REMARK    4  A    between atoms: C_3  and  C_4
REMARK    5  A    between atoms: C_4  and  C_5
REMARK    6  A    between atoms: C_5  and  O_7
REMARK    7  A    between atoms: N_10  and  C_11
REMARK    8  A    between atoms: C_11  and  C_12
REMARK    9  A    between atoms: C_12  and  C_13
REMARK   10  A    between atoms: C_13  and  C_14
REMARK   11  A    between atoms: C_14  and  C_15
REMARK   12  A    between atoms: C_15  and  N_16
REMARK   13  A    between atoms: N_16  and  C_17
REMARK   14  A    between atoms: C_18  and  C_19
REMARK                            x       y       z     vdW  Elec       q    Type
REMARK                         _______ _______ _______ _____ _____    ______ ____
ROOT
ATOM      1  C   UNL     1       0.676  -1.423   2.964  0.00  0.00    +0.000 C 
ATOM      2  H   UNL     1       1.104  -2.335   2.533  0.00  0.00    +0.000 HD
ATOM      3  H   UNL     1       1.024  -1.397   4.004  0.00  0.00    +0.000 HD
ENDROOT
BRANCH   1   4
ATOM      4  C   UNL     1      -0.858  -1.504   2.942  0.00  0.00    +0.000 C 
ATOM      5  H   UNL     1      -1.177  -2.399   3.486  0.00  0.00    +0.000 HD
ATOM      6  H   UNL     1      -1.285  -0.656   3.490  0.00  0.00    +0.000 HD
BRANCH   4   7
ATOM      7  C   UNL     1      -1.446  -1.521   1.528  0.00  0.00    +0.000 C 
ATOM      8  H   UNL     1      -2.540  -1.514   1.593  0.00  0.00    +0.000 HD
ATOM      9  H   UNL     1      -1.187  -0.600   0.991  0.00  0.00    +0.000 HD
BRANCH   7  10
ATOM     10  C   UNL     1      -0.982  -2.746   0.745  0.00  0.00    +0.000 C 
ATOM     11  H   UNL     1       0.111  -2.798   0.706  0.00  0.00    +0.000 HD
ATOM     12  H   UNL     1      -1.341  -3.661   1.223  0.00  0.00    +0.000 HD
BRANCH  10  15
ATOM     13  C   UNL     1      -0.737  -2.140  -1.624  0.00  0.00    +0.000 C 
ATOM     14  O   UNL     1       0.371  -1.636  -1.441  0.00  0.00    +0.000 OA
ATOM     15  N   UNL     1      -1.467  -2.728  -0.611  0.00  0.00    +0.000 N 
ATOM     16  H   UNL     1      -2.375  -3.149  -0.811  0.00  0.00    +0.000 HD
BRANCH  13  17
ATOM     17  C   UNL     1      -1.388  -2.239  -3.022  0.00  0.00    +0.000 C 
ATOM     18  H   UNL     1      -2.476  -2.178  -2.913  0.00  0.00    +0.000 HD
BRANCH  17  19
ATOM     19  N   UNL     1      -0.973  -1.073  -3.822  0.00  0.00    +0.000 NA
ATOM     20  H   UNL     1      -1.256  -1.171  -4.793  0.00  0.00    +0.000 HD
ATOM     21  H   UNL     1       0.049  -1.014  -3.803  0.00  0.00    +0.000 HD
ENDBRANCH  17  19
BRANCH  17  22
ATOM     22  C   UNL     1      -0.981  -3.542  -3.739  0.00  0.00    +0.000 C 
ATOM     23  H   UNL     1       0.108  -3.565  -3.871  0.00  0.00    +0.000 HD
ATOM     24  H   UNL     1      -1.421  -3.546  -4.745  0.00  0.00    +0.000 HD
BRANCH  22  25
ATOM     25  C   UNL     1      -1.394  -4.829  -3.025  0.00  0.00    +0.000 C 
ATOM     26  H   UNL     1      -0.914  -4.916  -2.045  0.00  0.00    +0.000 HD
ATOM     27  H   UNL     1      -1.058  -5.707  -3.588  0.00  0.00    +0.000 HD
BRANCH  25  28
ATOM     28  C   UNL     1      -2.884  -4.899  -2.826  0.00  0.00    +0.000 C 
ATOM     29  O   UNL     1      -3.448  -4.401  -1.861  0.00  0.00    +0.000 OA
BRANCH  28  30
ATOM     30  O   UNL     1      -3.548  -5.496  -3.834  0.00  0.00    +0.000 OA
ATOM     31  H   UNL     1      -2.984  -5.843  -4.551  0.00  0.00    +0.000 HD
ENDBRANCH  28  30
ENDBRANCH  25  28
ENDBRANCH  22  25
ENDBRANCH  17  22
ENDBRANCH  13  17
ENDBRANCH  10  15
ENDBRANCH   7  10
ENDBRANCH   4   7
ENDBRANCH   1   4
BRANCH   1  32
ATOM     32  C   UNL     1       1.218  -0.215   2.203  0.00  0.00    +0.000 C 
ATOM     33  H   UNL     1       0.917  -0.245   1.152  0.00  0.00    +0.000 HD
ATOM     34  H   UNL     1       2.315  -0.248   2.195  0.00  0.00    +0.000 HD
BRANCH  32  35
ATOM     35  N   UNL     1       0.721   1.039   2.797  0.00  0.00    +0.000 N 
ATOM     36  H   UNL     1       0.036   0.854   3.533  0.00  0.00    +0.000 HD
BRANCH  35  37
ATOM     37  C   UNL     1       1.650   1.951   3.272  0.00  0.00    +0.000 C 
ATOM     38  C   UNL     1       2.169   3.019   2.651  0.00  0.00    +0.000 C 
ATOM     39  C   UNL     1       3.152   3.634   3.563  0.00  0.00    +0.000 C 
ATOM     40  O   UNL     1       3.878   4.581   3.325  0.00  0.00    +0.000 OA
ATOM     41  N   UNL     1       3.108   2.944   4.727  0.00  0.00    +0.000 N 
ATOM     42  C   UNL     1       2.219   1.922   4.649  0.00  0.00    +0.000 C 
ATOM     43  O   UNL     1       1.922   1.131   5.520  0.00  0.00    +0.000 OA
ATOM     44  H   UNL     1       3.665   3.164   5.530  0.00  0.00    +0.000 HD
BRANCH  38  45
ATOM     45  C   UNL     1       1.779   3.476   1.379  0.00  0.00    +0.000 A 
ATOM     46  C   UNL     1       2.261   4.456   0.538  0.00  0.00    +0.000 A 
ATOM     47  C   UNL     1       1.385   4.543  -0.577  0.00  0.00    +0.000 A 
ATOM     48  C   UNL     1       1.353   5.371  -1.713  0.00  0.00    +0.000 A 
ATOM     49  C   UNL     1       0.331   5.194  -2.651  0.00  0.00    +0.000 A 
ATOM     50  C   UNL     1      -0.649   4.220  -2.467  0.00  0.00    +0.000 A 
ATOM     51  C   UNL     1      -0.646   3.394  -1.337  0.00  0.00    +0.000 A 
ATOM     52  C   UNL     1       0.392   3.581  -0.416  0.00  0.00    +0.000 A 
ATOM     53  N   UNL     1       0.668   2.927   0.763  0.00  0.00    +0.000 N 
ATOM     54  H   UNL     1       3.132   5.065   0.722  0.00  0.00    +0.000 HD
ATOM     55  H   UNL     1       2.106   6.135  -1.847  0.00  0.00    +0.000 HD
ATOM     56  H   UNL     1       0.309   5.827  -3.534  0.00  0.00    +0.000 HD
ATOM     57  H   UNL     1      -1.429   4.097  -3.214  0.00  0.00    +0.000 HD
ATOM     58  H   UNL     1      -1.411   2.639  -1.194  0.00  0.00    +0.000 HD
ATOM     59  H   UNL     1       0.126   2.170   1.149  0.00  0.00    +0.000 HD
ENDBRANCH  38  45
ENDBRANCH  35  37
ENDBRANCH  32  35
ENDBRANCH   1  32
TORSDOF 14
