REMARK  Name = 
REMARK  13 active torsions:
REMARK  status: ('A' for Active; 'I' for Inactive)
REMARK    1  A    between atoms: C_2  and  C_36
REMARK    2  A    between atoms: N_3  and  C_4
REMARK    3  A    between atoms: C_12  and  O_13
REMARK    4  A    between atoms: O_13  and  C_14
REMARK    5  A    between atoms: C_14  and  C_16
REMARK    6  A    between atoms: C_18  and  O_19
REMARK    7  A    between atoms: C_20  and  C_21
REMARK    8  A    between atoms: C_21  and  C_23
REMARK    9  A    between atoms: C_24  and  O_25
REMARK   10  A    between atoms: C_29  and  C_30
REMARK   11  A    between atoms: C_30  and  O_32
REMARK   12  A    between atoms: C_33  and  O_34
REMARK   13  A    between atoms: C_39  and  O_40
REMARK                            x       y       z     vdW  Elec       q    Type
REMARK                         _______ _______ _______ _____ _____    ______ ____
ROOT
ATOM      1  C   UNL     1       0.238  -3.327   0.836  0.00  0.00    +0.000 C 
ATOM      2  C   UNL     1       0.010  -4.580   1.637  0.00  0.00    +0.000 A 
ATOM      3  C   UNL     1       0.796  -5.721   1.707  0.00  0.00    +0.000 A 
ATOM      4  C   UNL     1       0.387  -6.759   2.547  0.00  0.00    +0.000 A 
ATOM      5  C   UNL     1      -0.777  -6.638   3.322  0.00  0.00    +0.000 A 
ATOM      6  C   UNL     1      -1.551  -5.478   3.266  0.00  0.00    +0.000 A 
ATOM      7  C   UNL     1      -1.152  -4.465   2.411  0.00  0.00    +0.000 A 
ATOM      8  C   UNL     1      -1.808  -3.140   2.195  0.00  0.00    +0.000 C 
ATOM      9  C   UNL     1      -1.195  -2.710   0.846  0.00  0.00    +0.000 C 
ATOM     10  H   UNL     1       0.946  -2.671   1.359  0.00  0.00    +0.000 HD
ATOM     11  H   UNL     1       1.709  -5.812   1.127  0.00  0.00    +0.000 HD
ATOM     12  H   UNL     1       0.980  -7.669   2.610  0.00  0.00    +0.000 HD
ATOM     13  H   UNL     1      -1.074  -7.453   3.977  0.00  0.00    +0.000 HD
ATOM     14  H   UNL     1      -2.443  -5.379   3.876  0.00  0.00    +0.000 HD
ATOM     15  H   UNL     1      -1.545  -2.443   3.000  0.00  0.00    +0.000 HD
ATOM     16  H   UNL     1      -2.897  -3.218   2.131  0.00  0.00    +0.000 HD
ATOM     17  H   UNL     1      -1.777  -3.119   0.008  0.00  0.00    +0.000 HD
ENDROOT
BRANCH   1  20
ATOM     18  O   UNL     1       1.899  -1.641  -0.709  0.00  0.00    +0.000 OA
ATOM     19  C   UNL     1       1.524  -2.709  -1.179  0.00  0.00    +0.000 C 
ATOM     20  N   UNL     1       0.727  -3.605  -0.503  0.00  0.00    +0.000 N 
ATOM     21  H   UNL     1       0.525  -4.513  -0.900  0.00  0.00    +0.000 HD
BRANCH  19  22
ATOM     22  C   UNL     1       1.965  -3.118  -2.542  0.00  0.00    +0.000 A 
ATOM     23  C   UNL     1       3.224  -2.699  -2.996  0.00  0.00    +0.000 A 
ATOM     24  C   UNL     1       3.659  -3.038  -4.284  0.00  0.00    +0.000 A 
ATOM     25  C   UNL     1       2.826  -3.785  -5.108  0.00  0.00    +0.000 A 
ATOM     26  C   UNL     1       1.574  -4.203  -4.671  0.00  0.00    +0.000 A 
ATOM     27  C   UNL     1       1.138  -3.869  -3.387  0.00  0.00    +0.000 A 
ATOM     28  H   UNL     1       3.868  -2.107  -2.350  0.00  0.00    +0.000 HD
ATOM     29  H   UNL     1       4.637  -2.708  -4.617  0.00  0.00    +0.000 HD
ATOM     30  H   UNL     1       0.932  -4.775  -5.336  0.00  0.00    +0.000 HD
ATOM     31  H   UNL     1       0.142  -4.171  -3.076  0.00  0.00    +0.000 HD
BRANCH  25  32
ATOM     32  O   UNL     1       3.198  -4.125  -6.376  0.00  0.00    +0.000 OA
ATOM     33  H   UNL     1       4.066  -3.732  -6.565  0.00  0.00    +0.000 HD
ENDBRANCH  25  32
ENDBRANCH  19  22
ENDBRANCH   1  20
BRANCH   9  34
ATOM     34  O   UNL     1      -1.130  -1.284   0.761  0.00  0.00    +0.000 OA
BRANCH  34  35
ATOM     35  C   UNL     1      -2.288  -0.648   0.454  0.00  0.00    +0.000 C 
ATOM     36  O   UNL     1      -3.361  -1.173   0.215  0.00  0.00    +0.000 OA
BRANCH  35  37
ATOM     37  C   UNL     1      -2.075   0.821   0.482  0.00  0.00    +0.000 A 
ATOM     38  C   UNL     1      -3.131   1.680   0.161  0.00  0.00    +0.000 A 
ATOM     39  C   UNL     1      -2.929   3.066   0.185  0.00  0.00    +0.000 A 
ATOM     40  C   UNL     1      -1.688   3.630   0.560  0.00  0.00    +0.000 A 
ATOM     41  C   UNL     1      -0.660   2.748   0.929  0.00  0.00    +0.000 A 
ATOM     42  C   UNL     1      -0.845   1.367   0.851  0.00  0.00    +0.000 A 
ATOM     43  H   UNL     1      -4.095   1.260  -0.121  0.00  0.00    +0.000 HD
ATOM     44  H   UNL     1      -0.002   0.723   1.100  0.00  0.00    +0.000 HD
BRANCH  39  45
ATOM     45  O   UNL     1      -3.970   3.868  -0.204  0.00  0.00    +0.000 OA
ATOM     46  H   UNL     1      -4.805   3.370  -0.198  0.00  0.00    +0.000 HD
ENDBRANCH  39  45
BRANCH  40  47
ATOM     47  C   UNL     1      -1.537   5.121   0.578  0.00  0.00    +0.000 C 
ATOM     48  O   UNL     1      -2.495   5.815   0.921  0.00  0.00    +0.000 OA
BRANCH  47  49
ATOM     49  C   UNL     1      -0.249   5.825   0.328  0.00  0.00    +0.000 A 
ATOM     50  C   UNL     1       0.691   5.344  -0.607  0.00  0.00    +0.000 A 
ATOM     51  C   UNL     1       1.973   5.894  -0.686  0.00  0.00    +0.000 A 
ATOM     52  C   UNL     1       2.326   6.976   0.108  0.00  0.00    +0.000 A 
ATOM     53  C   UNL     1       1.382   7.527   0.966  0.00  0.00    +0.000 A 
ATOM     54  C   UNL     1       0.094   6.967   1.094  0.00  0.00    +0.000 A 
ATOM     55  H   UNL     1       2.707   5.464  -1.367  0.00  0.00    +0.000 HD
ATOM     56  H   UNL     1       3.328   7.395   0.054  0.00  0.00    +0.000 HD
ATOM     57  H   UNL     1       1.664   8.393   1.568  0.00  0.00    +0.000 HD
BRANCH  50  58
ATOM     58  O   UNL     1       0.501   4.305  -1.476  0.00  0.00    +0.000 OA
ATOM     59  H   UNL     1      -0.420   4.003  -1.513  0.00  0.00    +0.000 HD
ENDBRANCH  50  58
BRANCH  54  60
ATOM     60  C   UNL     1      -0.755   7.680   2.102  0.00  0.00    +0.000 C 
ATOM     61  O   UNL     1      -0.627   8.865   2.338  0.00  0.00    +0.000 OA
BRANCH  60  62
ATOM     62  O   UNL     1      -1.476   6.857   2.889  0.00  0.00    +0.000 OA
ATOM     63  H   UNL     1      -2.174   6.425   2.339  0.00  0.00    +0.000 HD
ENDBRANCH  60  62
ENDBRANCH  54  60
ENDBRANCH  47  49
ENDBRANCH  40  47
BRANCH  41  64
ATOM     64  O   UNL     1       0.580   3.075   1.398  0.00  0.00    +0.000 OA
ATOM     65  H   UNL     1       0.715   4.022   1.536  0.00  0.00    +0.000 HD
ENDBRANCH  41  64
ENDBRANCH  35  37
ENDBRANCH  34  35
ENDBRANCH   9  34
TORSDOF 13
