REMARK  Name = 
REMARK  4 active torsions:
REMARK  status: ('A' for Active; 'I' for Inactive)
REMARK    1  A    between atoms: C_1  and  N_2
REMARK    2  A    between atoms: N_2  and  C_3
REMARK    3  A    between atoms: C_3  and  C_4
REMARK    4  A    between atoms: C_8  and  C_9
REMARK                            x       y       z     vdW  Elec       q    Type
REMARK                         _______ _______ _______ _____ _____    ______ ____
ROOT
ATOM      1  C   UNL     1      -1.239   1.333  -0.893  0.00  0.00    +0.000 A 
ATOM      2  C   UNL     1      -0.590   2.235  -1.745  0.00  0.00    +0.000 A 
ATOM      3  C   UNL     1       0.793   2.381  -1.690  0.00  0.00    +0.000 A 
ATOM      4  C   UNL     1       1.536   1.640  -0.767  0.00  0.00    +0.000 A 
ATOM      5  C   UNL     1       0.921   0.730   0.113  0.00  0.00    +0.000 A 
ATOM      6  C   UNL     1      -0.475   0.584   0.022  0.00  0.00    +0.000 A 
ATOM      7  H   UNL     1      -1.166   2.820  -2.457  0.00  0.00    +0.000 HD
ATOM      8  H   UNL     1       1.294   3.076  -2.357  0.00  0.00    +0.000 HD
ATOM      9  H   UNL     1       2.615   1.781  -0.732  0.00  0.00    +0.000 HD
ATOM     10  H   UNL     1      -0.986  -0.110   0.687  0.00  0.00    +0.000 HD
ENDROOT
BRANCH   5  11
ATOM     11  C   UNL     1       1.723   0.016   1.114  0.00  0.00    +0.000 A 
ATOM     12  N   UNL     1       2.804   0.672   1.641  0.00  0.00    +0.000 NA
ATOM     13  C   UNL     1       3.536   0.057   2.590  0.00  0.00    +0.000 A 
ATOM     14  N   UNL     1       3.359  -1.173   3.105  0.00  0.00    +0.000 NA
ATOM     15  C   UNL     1       2.301  -1.777   2.545  0.00  0.00    +0.000 A 
ATOM     16  N   UNL     1       1.845  -3.031   2.827  0.00  0.00    +0.000 N 
ATOM     17  C   UNL     1       0.750  -3.258   2.041  0.00  0.00    +0.000 A 
ATOM     18  N   UNL     1       0.472  -2.222   1.279  0.00  0.00    +0.000 NA
ATOM     19  C   UNL     1       1.441  -1.279   1.576  0.00  0.00    +0.000 A 
ATOM     20  H   UNL     1       4.369   0.629   2.989  0.00  0.00    +0.000 HD
ATOM     21  H   UNL     1       2.259  -3.663   3.496  0.00  0.00    +0.000 HD
ATOM     22  H   UNL     1       0.202  -4.191   2.068  0.00  0.00    +0.000 HD
ENDBRANCH   5  11
BRANCH   1  23
ATOM     23  C   UNL     1      -2.744   1.192  -0.929  0.00  0.00    +0.000 C 
ATOM     24  H   UNL     1      -3.086   0.445  -0.202  0.00  0.00    +0.000 HD
ATOM     25  H   UNL     1      -3.169   2.149  -0.599  0.00  0.00    +0.000 HD
BRANCH  23  26
ATOM     26  N   UNL     1      -3.282   0.881  -2.257  0.00  0.00    +0.000 NA
ATOM     27  H   UNL     1      -4.299   0.905  -2.201  0.00  0.00    +0.000 HD
BRANCH  26  28
ATOM     28  C   UNL     1      -2.872  -0.442  -2.712  0.00  0.00    +0.000 C 
ATOM     29  H   UNL     1      -3.333  -0.646  -3.684  0.00  0.00    +0.000 HD
ATOM     30  H   UNL     1      -3.193  -1.224  -2.018  0.00  0.00    +0.000 HD
ATOM     31  H   UNL     1      -1.788  -0.509  -2.852  0.00  0.00    +0.000 HD
ENDBRANCH  26  28
ENDBRANCH  23  26
ENDBRANCH   1  23
TORSDOF 4
