REMARK  Name = 
REMARK  11 active torsions:
REMARK  status: ('A' for Active; 'I' for Inactive)
REMARK    1  A    between atoms: C_1  and  O_2
REMARK    2  A    between atoms: O_2  and  C_3
REMARK    3  A    between atoms: C_3  and  C_5
REMARK    4  A    between atoms: C_9  and  N_10
REMARK    5  A    between atoms: C_11  and  C_13
REMARK    6  A    between atoms: C_13  and  C_14
REMARK    7  A    between atoms: C_14  and  N_15
REMARK    8  A    between atoms: N_15  and  C_16
REMARK    9  A    between atoms: N_15  and  C_17
REMARK   10  A    between atoms: N_20  and  C_21
REMARK   11  A    between atoms: C_27  and  C_28
REMARK                            x       y       z     vdW  Elec       q    Type
REMARK                         _______ _______ _______ _____ _____    ______ ____
ROOT
ATOM      1  C   UNL     1      -0.087   0.516   0.316  0.00  0.00    +0.000 C 
ATOM      2  C   UNL     1      -0.485   1.892  -0.339  0.00  0.00    +0.000 C 
ATOM      3  C   UNL     1       0.103   2.137  -1.737  0.00  0.00    +0.000 C 
ATOM      4  N   UNL     1       1.528   1.871  -1.693  0.00  0.00    +0.000 N 
ATOM      5  C   UNL     1       1.898   0.520  -1.343  0.00  0.00    +0.000 C 
ATOM      6  C   UNL     1       1.422   0.279   0.090  0.00  0.00    +0.000 C 
ATOM      7  H   UNL     1      -0.132   2.702   0.312  0.00  0.00    +0.000 HD
ATOM      8  H   UNL     1      -1.577   1.994  -0.393  0.00  0.00    +0.000 HD
ATOM      9  H   UNL     1      -0.138   3.148  -2.078  0.00  0.00    +0.000 HD
ATOM     10  H   UNL     1      -0.362   1.494  -2.491  0.00  0.00    +0.000 HD
ATOM     11  H   UNL     1       2.979   0.340  -1.382  0.00  0.00    +0.000 HD
ATOM     12  H   UNL     1       1.438  -0.196  -2.035  0.00  0.00    +0.000 HD
ATOM     13  H   UNL     1       1.993   0.928   0.763  0.00  0.00    +0.000 HD
ATOM     14  H   UNL     1       1.690  -0.760   0.301  0.00  0.00    +0.000 HD
ENDROOT
BRANCH   4  15
ATOM     15  C   UNL     1       2.503   2.799  -1.977  0.00  0.00    +0.000 A 
ATOM     16  N   UNL     1       3.684   2.380  -2.510  0.00  0.00    +0.000 NA
ATOM     17  C   UNL     1       4.623   3.291  -2.838  0.00  0.00    +0.000 A 
ATOM     18  N   UNL     1       4.578   4.624  -2.689  0.00  0.00    +0.000 NA
ATOM     19  C   UNL     1       3.417   5.003  -2.131  0.00  0.00    +0.000 A 
ATOM     20  N   UNL     1       3.070   6.299  -1.865  0.00  0.00    +0.000 N 
ATOM     21  C   UNL     1       1.796   6.342  -1.349  0.00  0.00    +0.000 A 
ATOM     22  C   UNL     1       1.399   5.038  -1.158  0.00  0.00    +0.000 A 
ATOM     23  C   UNL     1       2.369   4.183  -1.742  0.00  0.00    +0.000 A 
ATOM     24  H   UNL     1       5.527   2.891  -3.288  0.00  0.00    +0.000 HD
ATOM     25  H   UNL     1       3.663   7.091  -2.072  0.00  0.00    +0.000 HD
ATOM     26  H   UNL     1       0.459   4.745  -0.708  0.00  0.00    +0.000 HD
BRANCH  21  27
ATOM     27  C   UNL     1       1.044   7.590  -1.106  0.00  0.00    +0.000 C 
ATOM     28  H   UNL     1       1.643   8.481  -1.304  0.00  0.00    +0.000 HD
ATOM     29  H   UNL     1       0.683   7.627  -0.073  0.00  0.00    +0.000 HD
ATOM     30  H   UNL     1       0.169   7.611  -1.767  0.00  0.00    +0.000 HD
ENDBRANCH  21  27
ENDBRANCH   4  15
BRANCH   1  32
ATOM     31  N   UNL     1      -1.076  -1.776   0.324  0.00  0.00    +0.000 N 
ATOM     32  C   UNL     1      -0.893  -0.599  -0.385  0.00  0.00    +0.000 C 
ATOM     33  O   UNL     1      -1.251  -0.447  -1.552  0.00  0.00    +0.000 OA
ATOM     34  H   UNL     1      -0.721  -1.791   1.281  0.00  0.00    +0.000 HD
BRANCH  31  39
ATOM     35  C   UNL     1      -2.478  -5.228   0.261  0.00  0.00    +0.000 A 
ATOM     36  C   UNL     1      -3.243  -5.196  -0.911  0.00  0.00    +0.000 A 
ATOM     37  C   UNL     1      -3.282  -4.049  -1.686  0.00  0.00    +0.000 A 
ATOM     38  C   UNL     1      -2.562  -2.923  -1.289  0.00  0.00    +0.000 A 
ATOM     39  C   UNL     1      -1.792  -2.918  -0.118  0.00  0.00    +0.000 A 
ATOM     40  C   UNL     1      -1.754  -4.085   0.657  0.00  0.00    +0.000 A 
ATOM     41  H   UNL     1      -3.817  -6.064  -1.237  0.00  0.00    +0.000 HD
ATOM     42  H   UNL     1      -3.879  -4.015  -2.594  0.00  0.00    +0.000 HD
ATOM     43  H   UNL     1      -2.653  -2.046  -1.922  0.00  0.00    +0.000 HD
ATOM     44  H   UNL     1      -1.151  -4.126   1.563  0.00  0.00    +0.000 HD
BRANCH  35  45
ATOM     45  C   UNL     1      -2.431  -6.453   1.112  0.00  0.00    +0.000 C 
ATOM     46  O   UNL     1      -1.762  -6.553   2.126  0.00  0.00    +0.000 OA
BRANCH  45  47
ATOM     47  O   UNL     1      -3.243  -7.407   0.593  0.00  0.00    +0.000 OA
BRANCH  47  48
ATOM     48  C   UNL     1      -3.318  -8.617   1.345  0.00  0.00    +0.000 C 
ATOM     49  H   UNL     1      -3.871  -9.352   0.749  0.00  0.00    +0.000 HD
ATOM     50  H   UNL     1      -3.869  -8.445   2.274  0.00  0.00    +0.000 HD
ATOM     51  H   UNL     1      -2.323  -9.021   1.548  0.00  0.00    +0.000 HD
ENDBRANCH  47  48
ENDBRANCH  45  47
ENDBRANCH  35  45
ENDBRANCH  31  39
ENDBRANCH   1  32
BRANCH   1  52
ATOM     52  C   UNL     1      -0.468   0.617   1.836  0.00  0.00    +0.000 C 
ATOM     53  H   UNL     1      -1.556   0.786   1.861  0.00  0.00    +0.000 HD
ATOM     54  H   UNL     1      -0.016   1.528   2.253  0.00  0.00    +0.000 HD
BRANCH  52  55
ATOM     55  N   UNL     1      -0.207  -0.518   2.767  0.00  0.00    +0.000 NA
BRANCH  55  56
ATOM     56  C   UNL     1       1.211  -0.855   2.936  0.00  0.00    +0.000 C 
ATOM     57  H   UNL     1       1.580  -1.436   2.093  0.00  0.00    +0.000 HD
ATOM     58  H   UNL     1       1.355  -1.526   3.791  0.00  0.00    +0.000 HD
ATOM     59  H   UNL     1       1.839   0.029   3.090  0.00  0.00    +0.000 HD
ENDBRANCH  55  56
BRANCH  55  60
ATOM     60  C   UNL     1      -0.714  -0.157   4.108  0.00  0.00    +0.000 C 
ATOM     61  H   UNL     1      -1.778   0.104   4.079  0.00  0.00    +0.000 HD
ATOM     62  H   UNL     1      -0.160   0.686   4.539  0.00  0.00    +0.000 HD
ATOM     63  H   UNL     1      -0.618  -1.009   4.790  0.00  0.00    +0.000 HD
ENDBRANCH  55  60
ENDBRANCH  52  55
ENDBRANCH   1  52
TORSDOF 11
