REMARK  Name = 
REMARK  7 active torsions:
REMARK  status: ('A' for Active; 'I' for Inactive)
REMARK    1  A    between atoms: C_1  and  O_2
REMARK    2  A    between atoms: O_2  and  C_3
REMARK    3  A    between atoms: C_4  and  N_5
REMARK    4  A    between atoms: N_5  and  C_6
REMARK    5  A    between atoms: C_7  and  C_9
REMARK    6  A    between atoms: C_9  and  N_10
REMARK    7  A    between atoms: C_14  and  C_15
REMARK                            x       y       z     vdW  Elec       q    Type
REMARK                         _______ _______ _______ _____ _____    ______ ____
ROOT
ATOM      1  C   UNL     1       2.432  -1.427  -0.461  0.00  0.00    +0.000 C 
ATOM      2  C   UNL     1       2.512  -0.782   0.993  0.00  0.00    +0.000 C 
ATOM      3  C   UNL     1       1.093  -0.260   1.590  0.00  0.00    +0.000 C 
ATOM      4  C   UNL     1      -0.055  -1.460   1.487  0.00  0.00    +0.000 C 
ATOM      5  O   UNL     1       0.541  -2.335   0.552  0.00  0.00    +0.000 OA
ATOM      6  C   UNL     1       0.952  -1.704  -0.741  0.00  0.00    +0.000 C 
ATOM      7  N   UNL     1       0.230  -0.439  -1.138  0.00  0.00    +0.000 N 
ATOM      8  C   UNL     1       0.441   0.834  -1.831  0.00  0.00    +0.000 A 
ATOM      9  C   UNL     1       1.399   1.388  -2.672  0.00  0.00    +0.000 A 
ATOM     10  C   UNL     1       1.106   2.551  -3.419  0.00  0.00    +0.000 A 
ATOM     11  C   UNL     1      -0.104   3.207  -3.358  0.00  0.00    +0.000 A 
ATOM     12  C   UNL     1      -1.008   2.828  -2.383  0.00  0.00    +0.000 A 
ATOM     13  C   UNL     1      -0.706   1.745  -1.549  0.00  0.00    +0.000 A 
ATOM     14  C   UNL     1      -1.375   1.244  -0.437  0.00  0.00    +0.000 A 
ATOM     15  C   UNL     1      -2.669   1.680  -0.145  0.00  0.00    +0.000 A 
ATOM     16  C   UNL     1      -3.685   0.764  -0.442  0.00  0.00    +0.000 A 
ATOM     17  C   UNL     1      -3.169  -0.593  -0.468  0.00  0.00    +0.000 A 
ATOM     18  C   UNL     1      -3.755  -1.455   0.478  0.00  0.00    +0.000 A 
ATOM     19  C   UNL     1      -5.097  -1.676   0.829  0.00  0.00    +0.000 A 
ATOM     20  C   UNL     1      -5.272  -2.077   2.144  0.00  0.00    +0.000 A 
ATOM     21  C   UNL     1      -4.212  -2.650   2.836  0.00  0.00    +0.000 A 
ATOM     22  C   UNL     1      -3.024  -3.044   2.196  0.00  0.00    +0.000 A 
ATOM     23  C   UNL     1      -2.671  -2.039   1.295  0.00  0.00    +0.000 A 
ATOM     24  N   UNL     1      -1.442  -1.448   1.004  0.00  0.00    +0.000 N 
ATOM     25  C   UNL     1      -1.828  -0.921  -0.176  0.00  0.00    +0.000 A 
ATOM     26  C   UNL     1      -0.927  -0.032  -0.584  0.00  0.00    +0.000 A 
ATOM     27  C   UNL     1      -4.925   1.443  -0.236  0.00  0.00    +0.000 C 
ATOM     28  O   UNL     1      -6.082   1.215  -0.583  0.00  0.00    +0.000 OA
ATOM     29  N   UNL     1      -4.549   2.632   0.416  0.00  0.00    +0.000 N 
ATOM     30  C   UNL     1      -3.141   2.744   0.729  0.00  0.00    +0.000 C 
ATOM     31  H   UNL     1       2.963  -2.383  -0.352  0.00  0.00    +0.000 HD
ATOM     32  H   UNL     1       2.610  -1.667   1.642  0.00  0.00    +0.000 HD
ATOM     33  H   UNL     1       0.802   0.676   1.111  0.00  0.00    +0.000 HD
ATOM     34  H   UNL     1       1.219   0.006   2.647  0.00  0.00    +0.000 HD
ATOM     35  H   UNL     1      -0.109  -1.925   2.472  0.00  0.00    +0.000 HD
ATOM     36  H   UNL     1       2.386   0.968  -2.800  0.00  0.00    +0.000 HD
ATOM     37  H   UNL     1       1.859   2.943  -4.104  0.00  0.00    +0.000 HD
ATOM     38  H   UNL     1      -0.359   4.028  -4.012  0.00  0.00    +0.000 HD
ATOM     39  H   UNL     1      -1.963   3.353  -2.274  0.00  0.00    +0.000 HD
ATOM     40  H   UNL     1      -5.913  -1.271   0.238  0.00  0.00    +0.000 HD
ATOM     41  H   UNL     1      -6.202  -1.829   2.637  0.00  0.00    +0.000 HD
ATOM     42  H   UNL     1      -4.260  -2.737   3.917  0.00  0.00    +0.000 HD
ATOM     43  H   UNL     1      -3.223  -4.001   1.654  0.00  0.00    +0.000 HD
ATOM     44  H   UNL     1      -5.204   3.395   0.502  0.00  0.00    +0.000 HD
ATOM     45  H   UNL     1      -3.013   2.442   1.783  0.00  0.00    +0.000 HD
ATOM     46  H   UNL     1      -2.726   3.734   0.556  0.00  0.00    +0.000 HD
ENDROOT
BRANCH   6  47
ATOM     47  C   UNL     1       0.720  -3.017  -1.530  0.00  0.00    +0.000 C 
ATOM     48  H   UNL     1      -0.177  -3.548  -1.165  0.00  0.00    +0.000 HD
ATOM     49  H   UNL     1       1.528  -3.730  -1.281  0.00  0.00    +0.000 HD
ATOM     50  H   UNL     1       0.646  -2.942  -2.607  0.00  0.00    +0.000 HD
ENDBRANCH   6  47
BRANCH   2  51
ATOM     51  N   UNL     1       3.845  -0.176   1.287  0.00  0.00    +0.000 N 
ATOM     52  C   UNL     1       4.213   1.164   1.468  0.00  0.00    +0.000 C 
ATOM     53  O   UNL     1       5.289   1.451   2.027  0.00  0.00    +0.000 OA
BRANCH  51  54
ATOM     54  C   UNL     1       4.977  -1.095   1.405  0.00  0.00    +0.000 C 
ATOM     55  H   UNL     1       5.898  -0.652   1.005  0.00  0.00    +0.000 HD
ATOM     56  H   UNL     1       4.794  -2.014   0.844  0.00  0.00    +0.000 HD
ATOM     57  H   UNL     1       5.134  -1.340   2.460  0.00  0.00    +0.000 HD
ENDBRANCH  51  54
BRANCH  52  58
ATOM     58  C   UNL     1       3.333   2.277   0.956  0.00  0.00    +0.000 C 
ATOM     59  H   UNL     1       2.620   1.927   0.207  0.00  0.00    +0.000 HD
ATOM     60  H   UNL     1       4.000   2.993   0.461  0.00  0.00    +0.000 HD
BRANCH  58  61
ATOM     61  N   UNL     1       2.679   2.937   2.096  0.00  0.00    +0.000 NA
ATOM     62  H   UNL     1       3.406   3.084   2.806  0.00  0.00    +0.000 HD
ATOM     63  H   UNL     1       2.410   3.873   1.798  0.00  0.00    +0.000 HD
ENDBRANCH  58  61
ENDBRANCH  52  58
ENDBRANCH   2  51
BRANCH   1  64
ATOM     64  O   UNL     1       3.131  -0.765  -1.523  0.00  0.00    +0.000 OA
BRANCH  64  65
ATOM     65  C   UNL     1       2.955  -1.409  -2.800  0.00  0.00    +0.000 C 
ATOM     66  H   UNL     1       3.290  -2.448  -2.771  0.00  0.00    +0.000 HD
ATOM     67  H   UNL     1       3.518  -0.865  -3.561  0.00  0.00    +0.000 HD
ATOM     68  H   UNL     1       1.910  -1.367  -3.127  0.00  0.00    +0.000 HD
ENDBRANCH  64  65
ENDBRANCH   1  64
TORSDOF 7
