REMARK  Name = 
REMARK  9 active torsions:
REMARK  status: ('A' for Active; 'I' for Inactive)
REMARK    1  A    between atoms: C_1  and  C_2
REMARK    2  A    between atoms: C_2  and  C_3
REMARK    3  A    between atoms: C_2  and  C_4
REMARK    4  A    between atoms: C_2  and  C_5
REMARK    5  A    between atoms: C_8  and  C_9
REMARK    6  A    between atoms: C_14  and  O_15
REMARK    7  A    between atoms: C_16  and  O_17
REMARK    8  A    between atoms: C_23  and  O_24
REMARK    9  A    between atoms: C_25  and  O_26
REMARK                            x       y       z     vdW  Elec       q    Type
REMARK                         _______ _______ _______ _____ _____    ______ ____
ROOT
ATOM      1  C   UNL     1      -0.876  -0.717   1.049  0.00  0.00    +0.000 C 
ATOM      2  O   UNL     1      -1.935  -1.090   1.571  0.00  0.00    +0.000 OA
ATOM      3  N   UNL     1       0.276  -0.759   1.872  0.00  0.00    +0.000 N 
ATOM      4  C   UNL     1       0.221  -0.874   3.270  0.00  0.00    +0.000 A 
ATOM      5  C   UNL     1      -0.803  -0.713   4.218  0.00  0.00    +0.000 A 
ATOM      6  C   UNL     1      -0.604  -1.362   5.433  0.00  0.00    +0.000 A 
ATOM      7  C   UNL     1       0.510  -2.162   5.650  0.00  0.00    +0.000 A 
ATOM      8  C   UNL     1       1.617  -2.071   4.820  0.00  0.00    +0.000 A 
ATOM      9  C   UNL     1       1.484  -1.294   3.661  0.00  0.00    +0.000 A 
ATOM     10  C   UNL     1       2.348  -0.701   2.719  0.00  0.00    +0.000 A 
ATOM     11  C   UNL     1       3.686  -0.262   2.733  0.00  0.00    +0.000 A 
ATOM     12  C   UNL     1       4.331  -0.020   1.523  0.00  0.00    +0.000 A 
ATOM     13  C   UNL     1       3.704  -0.405   0.350  0.00  0.00    +0.000 A 
ATOM     14  C   UNL     1       2.358  -0.795   0.330  0.00  0.00    +0.000 A 
ATOM     15  C   UNL     1       1.630  -0.725   1.520  0.00  0.00    +0.000 A 
ATOM     16  H   UNL     1      -1.720  -0.181   3.988  0.00  0.00    +0.000 HD
ATOM     17  H   UNL     1       2.518  -2.637   5.021  0.00  0.00    +0.000 HD
ATOM     18  H   UNL     1       4.188  -0.084   3.680  0.00  0.00    +0.000 HD
ATOM     19  H   UNL     1       5.337   0.384   1.533  0.00  0.00    +0.000 HD
ENDROOT
BRANCH   1  23
ATOM     20  C   UNL     1      -1.518   0.904  -2.898  0.00  0.00    +0.000 A 
ATOM     21  C   UNL     1      -0.468   1.371  -2.087  0.00  0.00    +0.000 A 
ATOM     22  C   UNL     1      -0.227   0.836  -0.817  0.00  0.00    +0.000 A 
ATOM     23  C   UNL     1      -0.992  -0.228  -0.345  0.00  0.00    +0.000 A 
ATOM     24  C   UNL     1      -2.011  -0.742  -1.160  0.00  0.00    +0.000 A 
ATOM     25  C   UNL     1      -2.269  -0.185  -2.419  0.00  0.00    +0.000 A 
ATOM     26  H   UNL     1       0.173   2.190  -2.403  0.00  0.00    +0.000 HD
ATOM     27  H   UNL     1       0.557   1.277  -0.210  0.00  0.00    +0.000 HD
ATOM     28  H   UNL     1      -2.639  -1.555  -0.800  0.00  0.00    +0.000 HD
ATOM     29  H   UNL     1      -3.091  -0.597  -3.001  0.00  0.00    +0.000 HD
BRANCH  20  30
ATOM     30  C   UNL     1      -1.894   1.586  -4.226  0.00  0.00    +0.000 C 
BRANCH  30  31
ATOM     31  C   UNL     1      -0.994   2.795  -4.570  0.00  0.00    +0.000 C 
ATOM     32  H   UNL     1      -1.307   3.270  -5.506  0.00  0.00    +0.000 HD
ATOM     33  H   UNL     1       0.054   2.495  -4.692  0.00  0.00    +0.000 HD
ATOM     34  H   UNL     1      -1.038   3.565  -3.789  0.00  0.00    +0.000 HD
ENDBRANCH  30  31
BRANCH  30  35
ATOM     35  C   UNL     1      -3.343   2.115  -4.133  0.00  0.00    +0.000 C 
ATOM     36  H   UNL     1      -3.642   2.611  -5.064  0.00  0.00    +0.000 HD
ATOM     37  H   UNL     1      -3.445   2.844  -3.320  0.00  0.00    +0.000 HD
ATOM     38  H   UNL     1      -4.067   1.314  -3.949  0.00  0.00    +0.000 HD
ENDBRANCH  30  35
BRANCH  30  39
ATOM     39  C   UNL     1      -1.796   0.591  -5.399  0.00  0.00    +0.000 C 
ATOM     40  H   UNL     1      -2.093   1.068  -6.341  0.00  0.00    +0.000 HD
ATOM     41  H   UNL     1      -2.447  -0.279  -5.262  0.00  0.00    +0.000 HD
ATOM     42  H   UNL     1      -0.772   0.222  -5.522  0.00  0.00    +0.000 HD
ENDBRANCH  30  39
ENDBRANCH  20  30
ENDBRANCH   1  23
BRANCH   6  43
ATOM     43  O   UNL     1      -1.508  -1.246   6.452  0.00  0.00    +0.000 OA
ATOM     44  H   UNL     1      -1.744  -0.300   6.486  0.00  0.00    +0.000 HD
ENDBRANCH   6  43
BRANCH   7  45
ATOM     45  O   UNL     1       0.526  -3.034   6.700  0.00  0.00    +0.000 OA
ATOM     46  H   UNL     1      -0.394  -3.020   7.036  0.00  0.00    +0.000 HD
ENDBRANCH   7  45
BRANCH  13  47
ATOM     47  O   UNL     1       4.389  -0.435  -0.835  0.00  0.00    +0.000 OA
ATOM     48  H   UNL     1       5.311  -0.177  -0.654  0.00  0.00    +0.000 HD
ENDBRANCH  13  47
BRANCH  14  49
ATOM     49  O   UNL     1       1.823  -1.320  -0.814  0.00  0.00    +0.000 OA
ATOM     50  H   UNL     1       2.595  -1.469  -1.398  0.00  0.00    +0.000 HD
ENDBRANCH  14  49
TORSDOF 9
