
 OpenBabel01112422373D

 45 48  0  0  0  0  0  0  0  0999 V2000
    0.8338    0.0811   -0.0562 O   0  0  0  0  0  0  0  0  0  0  0  0
    2.2013    0.0428   -0.0680 C   0  0  0  0  0  0  0  0  0  0  0  0
    2.8648   -1.1827   -0.0739 C   0  0  0  0  0  0  0  0  0  0  0  0
    4.2777   -1.2082   -0.1038 C   0  0  0  0  0  0  0  0  0  0  0  0
    5.2236   -2.2732   -0.1033 C   0  0  0  0  0  0  0  0  0  0  0  0
    5.0637   -3.6811   -0.0674 C   0  0  0  0  0  0  0  0  0  0  0  0
    6.1731   -4.5257   -0.0696 C   0  0  0  0  0  0  0  0  0  0  0  0
    7.4351   -3.9652   -0.1004 C   0  0  0  0  0  0  0  0  0  0  0  0
    8.5603   -4.7509   -0.1083 O   0  0  0  0  0  0  0  0  0  0  0  0
    7.6262   -2.5730   -0.1277 C   0  0  0  0  0  0  0  0  0  0  0  0
    8.9272   -2.1243   -0.1446 O   0  0  0  0  0  0  0  0  0  0  0  0
    6.5103   -1.7131   -0.1402 C   0  0  0  0  0  0  0  0  0  0  0  0
    6.3457   -0.3314   -0.1843 N   0  0  0  0  0  0  0  0  0  0  0  0
    7.3936    0.6804   -0.1368 C   0  0  0  0  0  0  0  0  0  0  0  0
    8.4164    0.7521   -1.2719 C   0  0  0  0  0  0  0  0  0  0  0  0
    7.8928    0.9323   -2.7045 C   0  0  0  0  0  0  0  0  0  0  0  0
    9.0517    0.9595   -3.6959 C   0  0  0  0  0  0  0  0  0  0  0  0
    9.9122   -0.1470   -3.8024 C   0  0  0  0  0  0  0  0  0  0  0  0
   11.0320   -0.1143   -4.6412 C   0  0  0  0  0  0  0  0  0  0  0  0
   11.2983    1.0189   -5.3998 C   0  0  0  0  0  0  0  0  0  0  0  0
   10.4348    2.1106   -5.3400 C   0  0  0  0  0  0  0  0  0  0  0  0
    9.3089    2.0758   -4.4967 C   0  0  0  0  0  0  0  0  0  0  0  0
    4.9883   -0.0083   -0.1316 C   0  0  0  0  0  0  0  0  0  0  0  0
    4.3175    1.2337   -0.1018 C   0  0  0  0  0  0  0  0  0  0  0  0
    2.9185    1.2324   -0.0752 C   0  0  0  0  0  0  0  0  0  0  0  0
    2.2340    2.4182   -0.0626 O   0  0  0  0  0  0  0  0  0  0  0  0
    0.4938   -0.8261   -0.0727 H   0  0  0  0  0  0  0  0  0  0  0  0
    2.3158   -2.1175   -0.0587 H   0  0  0  0  0  0  0  0  0  0  0  0
    4.0639   -4.1088   -0.0394 H   0  0  0  0  0  0  0  0  0  0  0  0
    6.0228   -5.5999   -0.0496 H   0  0  0  0  0  0  0  0  0  0  0  0
    8.2776   -5.6816   -0.0632 H   0  0  0  0  0  0  0  0  0  0  0  0
    9.4562   -2.9498   -0.1818 H   0  0  0  0  0  0  0  0  0  0  0  0
    7.9147    0.5329    0.8203 H   0  0  0  0  0  0  0  0  0  0  0  0
    6.9221    1.6646   -0.0561 H   0  0  0  0  0  0  0  0  0  0  0  0
    9.0467   -0.1339   -1.2324 H   0  0  0  0  0  0  0  0  0  0  0  0
    9.0906    1.5907   -1.0469 H   0  0  0  0  0  0  0  0  0  0  0  0
    7.3200    1.8664   -2.7765 H   0  0  0  0  0  0  0  0  0  0  0  0
    7.2140    0.1190   -2.9820 H   0  0  0  0  0  0  0  0  0  0  0  0
    9.7297   -1.0421   -3.2138 H   0  0  0  0  0  0  0  0  0  0  0  0
   11.6997   -0.9701   -4.6842 H   0  0  0  0  0  0  0  0  0  0  0  0
   12.1810    1.0532   -6.0369 H   0  0  0  0  0  0  0  0  0  0  0  0
   10.6372    2.9900   -5.9437 H   0  0  0  0  0  0  0  0  0  0  0  0
    8.6526    2.9427   -4.4778 H   0  0  0  0  0  0  0  0  0  0  0  0
    4.8628    2.1693   -0.1057 H   0  0  0  0  0  0  0  0  0  0  0  0
    2.8678    3.1506   -0.0655 H   0  0  0  0  0  0  0  0  0  0  0  0
  1  2  1  0  0  0  0
  1 27  1  0  0  0  0
  2  3  1  0  0  0  0
  2 25  2  0  0  0  0
  3  4  2  0  0  0  0
  3 28  1  0  0  0  0
  4  5  1  0  0  0  0
  4 23  1  0  0  0  0
  5  6  1  0  0  0  0
  5 12  2  0  0  0  0
  6  7  2  0  0  0  0
  6 29  1  0  0  0  0
  7  8  1  0  0  0  0
  7 30  1  0  0  0  0
  8  9  1  0  0  0  0
  8 10  2  0  0  0  0
  9 31  1  0  0  0  0
 10 11  1  0  0  0  0
 10 12  1  0  0  0  0
 11 32  1  0  0  0  0
 12 13  1  0  0  0  0
 13 14  1  0  0  0  0
 13 23  1  0  0  0  0
 14 15  1  0  0  0  0
 14 33  1  0  0  0  0
 14 34  1  0  0  0  0
 15 16  1  0  0  0  0
 15 35  1  0  0  0  0
 15 36  1  0  0  0  0
 16 17  1  0  0  0  0
 16 37  1  0  0  0  0
 16 38  1  0  0  0  0
 17 18  1  0  0  0  0
 17 22  2  0  0  0  0
 18 19  2  0  0  0  0
 18 39  1  0  0  0  0
 19 20  1  0  0  0  0
 19 40  1  0  0  0  0
 20 21  2  0  0  0  0
 20 41  1  0  0  0  0
 21 22  1  0  0  0  0
 21 42  1  0  0  0  0
 22 43  1  0  0  0  0
 23 24  2  0  0  0  0
 24 25  1  0  0  0  0
 24 44  1  0  0  0  0
 25 26  1  0  0  0  0
 26 45  1  0  0  0  0
M  END
$$$$
