
 OpenBabel01112422473D

 51 54  0  0  1  0  0  0  0  0999 V2000
    1.1090   -0.3227   -0.0764 C   0  0  0  0  0  0  0  0  0  0  0  0
    2.5727    0.0755   -0.0019 C   0  0  0  0  0  0  0  0  0  0  0  0
    2.9839    0.7901   -1.1852 N   0  0  0  0  0  0  0  0  0  0  0  0
    3.5188    0.2231   -2.3076 C   0  0  0  0  0  0  0  0  0  0  0  0
    3.7256    1.1174   -3.2448 N   0  0  0  0  0  0  0  0  0  0  0  0
    3.3022    2.3152   -2.6972 C   0  0  0  0  0  0  0  0  0  0  0  0
    3.2455    3.6225   -3.2038 C   0  0  0  0  0  0  0  0  0  0  0  0
    3.6247    3.9337   -4.5151 N   0  0  0  0  0  0  0  0  0  0  0  0
    3.4288    3.1673   -5.6777 C   0  0  0  0  0  0  0  0  0  0  0  0
    4.3426    3.2665   -6.7329 C   0  0  0  0  0  0  0  0  0  0  0  0
    4.2021    2.4791   -7.8811 C   0  0  0  0  0  0  0  0  0  0  0  0
    3.1394    1.5832   -7.9910 C   0  0  0  0  0  0  0  0  0  0  0  0
    2.2344    1.4637   -6.9424 C   0  0  0  0  0  0  0  0  0  0  0  0
    0.9051    0.3765   -7.0746 Cl  0  0  0  0  0  0  0  0  0  0  0  0
    2.3839    2.2361   -5.7919 C   0  0  0  0  0  0  0  0  0  0  0  0
    2.8327    4.6147   -2.3627 N   0  0  0  0  0  0  0  0  0  0  0  0
    2.4214    4.3050   -1.1133 C   0  0  0  0  0  0  0  0  0  0  0  0
    1.9307    5.2902   -0.2674 N   0  0  0  0  0  0  0  0  0  0  0  0
    1.2407    6.4422   -0.8412 C   0  0  1  0  0  0  0  0  0  0  0  0
   -0.0356    6.0091   -1.5813 C   0  0  0  0  0  0  0  0  0  0  0  0
   -0.8528    7.2035   -2.0627 C   0  0  0  0  0  0  0  0  0  0  0  0
   -1.2075    8.1405   -0.9141 C   0  0  0  0  0  0  0  0  0  0  0  0
    0.0504    8.6023   -0.1716 C   0  0  1  0  0  0  0  0  0  0  0  0
   -0.3238    9.4499    0.9629 N   0  0  0  0  0  0  0  0  0  0  0  0
    0.8817    7.4066    0.3111 C   0  0  0  0  0  0  0  0  0  0  0  0
    2.3999    3.0734   -0.5687 N   0  0  0  0  0  0  0  0  0  0  0  0
    2.8649    2.1353   -1.4071 C   0  0  0  0  0  0  0  0  0  0  0  0
    0.8176   -0.8715    0.8236 H   0  0  0  0  0  0  0  0  0  0  0  0
    0.9192   -0.9614   -0.9460 H   0  0  0  0  0  0  0  0  0  0  0  0
    0.4645    0.5578   -0.1669 H   0  0  0  0  0  0  0  0  0  0  0  0
    3.2094   -0.8080    0.0913 H   0  0  0  0  0  0  0  0  0  0  0  0
    2.7580    0.7164    0.8690 H   0  0  0  0  0  0  0  0  0  0  0  0
    3.7240   -0.8342   -2.3983 H   0  0  0  0  0  0  0  0  0  0  0  0
    3.9165    4.8925   -4.6349 H   0  0  0  0  0  0  0  0  0  0  0  0
    5.1905    3.9422   -6.6548 H   0  0  0  0  0  0  0  0  0  0  0  0
    4.9243    2.5646   -8.6884 H   0  0  0  0  0  0  0  0  0  0  0  0
    3.0217    0.9853   -8.8900 H   0  0  0  0  0  0  0  0  0  0  0  0
    1.6663    2.1159   -4.9852 H   0  0  0  0  0  0  0  0  0  0  0  0
    1.4395    4.8118    0.4798 H   0  0  0  0  0  0  0  0  0  0  0  0
    1.9103    6.9717   -1.5316 H   0  0  0  0  0  0  0  0  0  0  0  0
   -0.6542    5.3872   -0.9209 H   0  0  0  0  0  0  0  0  0  0  0  0
    0.2138    5.3864   -2.4477 H   0  0  0  0  0  0  0  0  0  0  0  0
   -1.7712    6.8479   -2.5431 H   0  0  0  0  0  0  0  0  0  0  0  0
   -0.2855    7.7537   -2.8233 H   0  0  0  0  0  0  0  0  0  0  0  0
   -1.8876    7.6225   -0.2251 H   0  0  0  0  0  0  0  0  0  0  0  0
   -1.7542    9.0053   -1.3092 H   0  0  0  0  0  0  0  0  0  0  0  0
    0.6643    9.2054   -0.8514 H   0  0  0  0  0  0  0  0  0  0  0  0
   -0.9322    8.9349    1.5989 H   0  0  0  0  0  0  0  0  0  0  0  0
   -0.8739   10.2426    0.6324 H   0  0  0  0  0  0  0  0  0  0  0  0
    0.3262    6.8590    1.0856 H   0  0  0  0  0  0  0  0  0  0  0  0
    1.8032    7.7630    0.7914 H   0  0  0  0  0  0  0  0  0  0  0  0
  1  2  1  0  0  0  0
  1 28  1  0  0  0  0
  1 29  1  0  0  0  0
  1 30  1  0  0  0  0
  2  3  1  0  0  0  0
  2 31  1  0  0  0  0
  2 32  1  0  0  0  0
  3  4  1  0  0  0  0
  3 27  1  0  0  0  0
  4  5  2  0  0  0  0
  4 33  1  0  0  0  0
  5  6  1  0  0  0  0
  6  7  1  0  0  0  0
  6 27  2  0  0  0  0
  7  8  1  0  0  0  0
  7 16  2  0  0  0  0
  8  9  1  0  0  0  0
  8 34  1  0  0  0  0
  9 10  1  0  0  0  0
  9 15  2  0  0  0  0
 10 11  2  0  0  0  0
 10 35  1  0  0  0  0
 11 12  1  0  0  0  0
 11 36  1  0  0  0  0
 12 13  2  0  0  0  0
 12 37  1  0  0  0  0
 13 14  1  0  0  0  0
 13 15  1  0  0  0  0
 15 38  1  0  0  0  0
 16 17  1  0  0  0  0
 17 18  1  0  0  0  0
 17 26  2  0  0  0  0
 18 19  1  0  0  0  0
 18 39  1  0  0  0  0
 19 20  1  0  0  0  0
 19 25  1  0  0  0  0
 19 40  1  6  0  0  0
 20 21  1  0  0  0  0
 20 41  1  0  0  0  0
 20 42  1  0  0  0  0
 21 22  1  0  0  0  0
 21 43  1  0  0  0  0
 21 44  1  0  0  0  0
 22 23  1  0  0  0  0
 22 45  1  0  0  0  0
 22 46  1  0  0  0  0
 23 24  1  0  0  0  0
 23 25  1  0  0  0  0
 23 47  1  6  0  0  0
 24 48  1  0  0  0  0
 24 49  1  0  0  0  0
 25 50  1  0  0  0  0
 25 51  1  0  0  0  0
 26 27  1  0  0  0  0
M  END
$$$$
