MODEL 1
REMARK VINA RESULT:   -11.620      0.000      0.000
REMARK INTER + INTRA:         -17.520
REMARK INTER:                 -16.714
REMARK INTRA:                  -0.806
REMARK UNBOUND:                -0.806
REMARK  Name = 
REMARK  8 active torsions:
REMARK  status: ('A' for Active; 'I' for Inactive)
REMARK    1  A    between atoms: N_1  and  C_2
REMARK    2  A    between atoms: C_2  and  C_3
REMARK    3  A    between atoms: C_2  and  C_19
REMARK    4  A    between atoms: C_3  and  O_4
REMARK    5  A    between atoms: O_4  and  C_5
REMARK    6  A    between atoms: C_9  and  C_10
REMARK    7  A    between atoms: C_11  and  C_12
REMARK    8  A    between atoms: C_19  and  C_20
REMARK                            x       y       z     vdW  Elec       q    Type
REMARK                         _______ _______ _______ _____ _____    ______ ____
ROOT
ATOM      1  C   UNL     1      -8.760  -5.863  18.196  0.00  0.00    +0.000 C 
ATOM      2  H   UNL     1      -8.869  -5.594  17.136  0.00  0.00    +0.000 HD
ATOM      3  H   UNL     1      -9.006  -4.996  18.818  0.00  0.00    +0.000 HD
ENDROOT
BRANCH   1   4
ATOM      4  C   UNL     1      -9.734  -7.018  18.538  0.00  0.00    +0.000 C 
ATOM      5  H   UNL     1      -9.398  -7.480  19.474  0.00  0.00    +0.000 HD
BRANCH   4   6
ATOM      6  N   UNL     1     -11.079  -6.464  18.795  0.00  0.00    +0.000 NA
ATOM      7  H   UNL     1     -11.773  -7.057  18.334  0.00  0.00    +0.000 HD
ATOM      8  H   UNL     1     -11.151  -5.557  18.333  0.00  0.00    +0.000 HD
ENDBRANCH   4   6
BRANCH   4   9
ATOM      9  C   UNL     1      -9.706  -8.085  17.413  0.00  0.00    +0.000 C 
ATOM     10  H   UNL     1      -9.064  -7.723  16.600  0.00  0.00    +0.000 HD
ATOM     11  H   UNL     1     -10.704  -8.214  16.977  0.00  0.00    +0.000 HD
BRANCH   9  12
ATOM     12  C   UNL     1      -9.201  -9.425  17.861  0.00  0.00    +0.000 A 
ATOM     13  C   UNL     1      -8.867  -9.798  19.149  0.00  0.00    +0.000 A 
ATOM     14  N   UNL     1      -8.494 -11.115  19.131  0.00  0.00    +0.000 N 
ATOM     15  C   UNL     1      -8.580 -11.618  17.853  0.00  0.00    +0.000 A 
ATOM     16  C   UNL     1      -8.337 -12.910  17.372  0.00  0.00    +0.000 A 
ATOM     17  C   UNL     1      -8.511 -13.134  16.002  0.00  0.00    +0.000 A 
ATOM     18  C   UNL     1      -8.891 -12.102  15.147  0.00  0.00    +0.000 A 
ATOM     19  C   UNL     1      -9.121 -10.815  15.646  0.00  0.00    +0.000 A 
ATOM     20  C   UNL     1      -8.982 -10.570  17.028  0.00  0.00    +0.000 A 
ATOM     21  H   UNL     1      -8.872  -9.241  20.077  0.00  0.00    +0.000 HD
ATOM     22  H   UNL     1      -8.211 -11.653  19.938  0.00  0.00    +0.000 HD
ATOM     23  H   UNL     1      -8.035 -13.716  18.032  0.00  0.00    +0.000 HD
ATOM     24  H   UNL     1      -8.346 -14.130  15.598  0.00  0.00    +0.000 HD
ATOM     25  H   UNL     1      -9.016 -12.295  14.086  0.00  0.00    +0.000 HD
ATOM     26  H   UNL     1      -9.417 -10.018  14.971  0.00  0.00    +0.000 HD
ENDBRANCH   9  12
ENDBRANCH   4   9
ENDBRANCH   1   4
BRANCH   1  27
ATOM     27  O   UNL     1      -7.419  -6.289  18.460  0.00  0.00    +0.000 OA
BRANCH  27  28
ATOM     28  C   UNL     1      -6.689  -5.565  19.355  0.00  0.00    +0.000 A 
ATOM     29  C   UNL     1      -5.307  -5.675  19.232  0.00  0.00    +0.000 A 
ATOM     30  N   UNL     1      -4.413  -5.041  20.025  0.00  0.00    +0.000 NA
ATOM     31  C   UNL     1      -4.933  -4.251  20.990  0.00  0.00    +0.000 A 
ATOM     32  C   UNL     1      -6.298  -4.057  21.206  0.00  0.00    +0.000 A 
ATOM     33  C   UNL     1      -7.183  -4.747  20.370  0.00  0.00    +0.000 A 
ATOM     34  H   UNL     1      -4.869  -6.306  18.463  0.00  0.00    +0.000 HD
ATOM     35  H   UNL     1      -4.188  -3.753  21.605  0.00  0.00    +0.000 HD
ATOM     36  H   UNL     1      -8.251  -4.648  20.528  0.00  0.00    +0.000 HD
BRANCH  32  37
ATOM     37  C   UNL     1      -6.730  -3.197  22.318  0.00  0.00    +0.000 C 
ATOM     38  C   UNL     1      -7.948  -3.226  22.885  0.00  0.00    +0.000 C 
ATOM     39  H   UNL     1      -5.980  -2.487  22.661  0.00  0.00    +0.000 HD
ATOM     40  H   UNL     1      -8.702  -3.933  22.548  0.00  0.00    +0.000 HD
BRANCH  38  41
ATOM     41  C   UNL     1      -8.373  -2.324  23.970  0.00  0.00    +0.000 A 
ATOM     42  C   UNL     1      -8.715  -2.789  25.243  0.00  0.00    +0.000 A 
ATOM     43  C   UNL     1      -9.064  -1.867  26.218  0.00  0.00    +0.000 A 
ATOM     44  N   UNL     1      -9.085  -0.534  26.018  0.00  0.00    +0.000 NA
ATOM     45  C   UNL     1      -8.736  -0.103  24.789  0.00  0.00    +0.000 A 
ATOM     46  C   UNL     1      -8.373  -0.946  23.749  0.00  0.00    +0.000 A 
ATOM     47  H   UNL     1      -8.702  -3.843  25.494  0.00  0.00    +0.000 HD
ATOM     48  H   UNL     1      -9.339  -2.191  27.218  0.00  0.00    +0.000 HD
ATOM     49  H   UNL     1      -8.750   0.975  24.656  0.00  0.00    +0.000 HD
ATOM     50  H   UNL     1      -8.101  -0.523  22.787  0.00  0.00    +0.000 HD
ENDBRANCH  38  41
ENDBRANCH  32  37
ENDBRANCH  27  28
ENDBRANCH   1  27
TORSDOF 8
ENDMDL
MODEL 2
REMARK VINA RESULT:   -11.450      0.480      1.005
REMARK INTER + INTRA:         -17.276
REMARK INTER:                 -16.501
REMARK INTRA:                  -0.775
REMARK UNBOUND:                -0.806
REMARK  Name = 
REMARK  8 active torsions:
REMARK  status: ('A' for Active; 'I' for Inactive)
REMARK    1  A    between atoms: N_1  and  C_2
REMARK    2  A    between atoms: C_2  and  C_3
REMARK    3  A    between atoms: C_2  and  C_19
REMARK    4  A    between atoms: C_3  and  O_4
REMARK    5  A    between atoms: O_4  and  C_5
REMARK    6  A    between atoms: C_9  and  C_10
REMARK    7  A    between atoms: C_11  and  C_12
REMARK    8  A    between atoms: C_19  and  C_20
REMARK                            x       y       z     vdW  Elec       q    Type
REMARK                         _______ _______ _______ _____ _____    ______ ____
ROOT
ATOM      1  C   UNL     1      -9.182  -6.070  18.110  0.00  0.00    +0.000 C 
ATOM      2  H   UNL     1      -9.271  -5.445  17.211  0.00  0.00    +0.000 HD
ATOM      3  H   UNL     1      -9.492  -5.492  18.986  0.00  0.00    +0.000 HD
ENDROOT
BRANCH   1   4
ATOM      4  C   UNL     1     -10.105  -7.306  17.971  0.00  0.00    +0.000 C 
ATOM      5  H   UNL     1     -10.160  -7.801  18.949  0.00  0.00    +0.000 HD
BRANCH   4   6
ATOM      6  N   UNL     1     -11.475  -6.860  17.642  0.00  0.00    +0.000 NA
ATOM      7  H   UNL     1     -12.081  -7.680  17.573  0.00  0.00    +0.000 HD
ATOM      8  H   UNL     1     -11.468  -6.450  16.707  0.00  0.00    +0.000 HD
ENDBRANCH   4   6
BRANCH   4   9
ATOM      9  C   UNL     1      -9.511  -8.299  16.939  0.00  0.00    +0.000 C 
ATOM     10  H   UNL     1      -8.623  -7.842  16.482  0.00  0.00    +0.000 HD
ATOM     11  H   UNL     1     -10.218  -8.474  16.119  0.00  0.00    +0.000 HD
BRANCH   9  12
ATOM     12  C   UNL     1      -9.119  -9.622  17.526  0.00  0.00    +0.000 A 
ATOM     13  C   UNL     1      -8.894  -9.904  18.860  0.00  0.00    +0.000 A 
ATOM     14  N   UNL     1      -8.601 -11.237  18.972  0.00  0.00    +0.000 N 
ATOM     15  C   UNL     1      -8.633 -11.839  17.736  0.00  0.00    +0.000 A 
ATOM     16  C   UNL     1      -8.438 -13.179  17.377  0.00  0.00    +0.000 A 
ATOM     17  C   UNL     1      -8.535 -13.506  16.020  0.00  0.00    +0.000 A 
ATOM     18  C   UNL     1      -8.794 -12.529  15.062  0.00  0.00    +0.000 A 
ATOM     19  C   UNL     1      -8.978 -11.194  15.440  0.00  0.00    +0.000 A 
ATOM     20  C   UNL     1      -8.916 -10.843  16.804  0.00  0.00    +0.000 A 
ATOM     21  H   UNL     1      -8.926  -9.273  19.738  0.00  0.00    +0.000 HD
ATOM     22  H   UNL     1      -8.406 -11.721  19.838  0.00  0.00    +0.000 HD
ATOM     23  H   UNL     1      -8.230 -13.942  18.118  0.00  0.00    +0.000 HD
ATOM     24  H   UNL     1      -8.405 -14.540  15.709  0.00  0.00    +0.000 HD
ATOM     25  H   UNL     1      -8.860 -12.802  14.013  0.00  0.00    +0.000 HD
ATOM     26  H   UNL     1      -9.180 -10.441  14.684  0.00  0.00    +0.000 HD
ENDBRANCH   9  12
ENDBRANCH   4   9
ENDBRANCH   1   4
BRANCH   1  27
ATOM     27  O   UNL     1      -7.830  -6.513  18.270  0.00  0.00    +0.000 OA
BRANCH  27  28
ATOM     28  C   UNL     1      -7.033  -5.815  19.128  0.00  0.00    +0.000 A 
ATOM     29  C   UNL     1      -5.667  -5.884  18.870  0.00  0.00    +0.000 A 
ATOM     30  N   UNL     1      -4.715  -5.267  19.607  0.00  0.00    +0.000 NA
ATOM     31  C   UNL     1      -5.156  -4.539  20.655  0.00  0.00    +0.000 A 
ATOM     32  C   UNL     1      -6.498  -4.391  21.010  0.00  0.00    +0.000 A 
ATOM     33  C   UNL     1      -7.445  -5.061  20.226  0.00  0.00    +0.000 A 
ATOM     34  H   UNL     1      -5.292  -6.465  18.031  0.00  0.00    +0.000 HD
ATOM     35  H   UNL     1      -4.366  -4.053  21.222  0.00  0.00    +0.000 HD
ATOM     36  H   UNL     1      -8.495  -4.997  20.489  0.00  0.00    +0.000 HD
BRANCH  32  37
ATOM     37  C   UNL     1      -6.839  -3.598  22.200  0.00  0.00    +0.000 C 
ATOM     38  C   UNL     1      -8.069  -3.143  22.495  0.00  0.00    +0.000 C 
ATOM     39  H   UNL     1      -5.997  -3.371  22.851  0.00  0.00    +0.000 HD
ATOM     40  H   UNL     1      -8.915  -3.367  21.850  0.00  0.00    +0.000 HD
BRANCH  38  41
ATOM     41  C   UNL     1      -8.379  -2.314  23.673  0.00  0.00    +0.000 A 
ATOM     42  C   UNL     1      -8.375  -0.917  23.631  0.00  0.00    +0.000 A 
ATOM     43  C   UNL     1      -8.719  -0.214  24.775  0.00  0.00    +0.000 A 
ATOM     44  N   UNL     1      -9.072  -0.798  25.938  0.00  0.00    +0.000 NA
ATOM     45  C   UNL     1      -9.087  -2.147  25.955  0.00  0.00    +0.000 A 
ATOM     46  C   UNL     1      -8.758  -2.937  24.863  0.00  0.00    +0.000 A 
ATOM     47  H   UNL     1      -8.126  -0.368  22.730  0.00  0.00    +0.000 HD
ATOM     48  H   UNL     1      -8.724   0.872  24.782  0.00  0.00    +0.000 HD
ATOM     49  H   UNL     1      -9.385  -2.593  26.899  0.00  0.00    +0.000 HD
ATOM     50  H   UNL     1      -8.797  -4.018  24.954  0.00  0.00    +0.000 HD
ENDBRANCH  38  41
ENDBRANCH  32  37
ENDBRANCH  27  28
ENDBRANCH   1  27
TORSDOF 8
ENDMDL
MODEL 3
REMARK VINA RESULT:   -11.027      1.251      1.982
REMARK INTER + INTRA:         -16.668
REMARK INTER:                 -16.041
REMARK INTRA:                  -0.626
REMARK UNBOUND:                -0.806
REMARK  Name = 
REMARK  8 active torsions:
REMARK  status: ('A' for Active; 'I' for Inactive)
REMARK    1  A    between atoms: N_1  and  C_2
REMARK    2  A    between atoms: C_2  and  C_3
REMARK    3  A    between atoms: C_2  and  C_19
REMARK    4  A    between atoms: C_3  and  O_4
REMARK    5  A    between atoms: O_4  and  C_5
REMARK    6  A    between atoms: C_9  and  C_10
REMARK    7  A    between atoms: C_11  and  C_12
REMARK    8  A    between atoms: C_19  and  C_20
REMARK                            x       y       z     vdW  Elec       q    Type
REMARK                         _______ _______ _______ _____ _____    ______ ____
ROOT
ATOM      1  C   UNL     1      -8.640  -6.983  19.678  0.00  0.00    +0.000 C 
ATOM      2  H   UNL     1      -9.451  -6.332  19.324  0.00  0.00    +0.000 HD
ATOM      3  H   UNL     1      -8.578  -6.926  20.770  0.00  0.00    +0.000 HD
ENDROOT
BRANCH   1   4
ATOM      4  C   UNL     1      -8.937  -8.446  19.268  0.00  0.00    +0.000 C 
ATOM      5  H   UNL     1      -8.033  -8.861  18.806  0.00  0.00    +0.000 HD
BRANCH   4   6
ATOM      6  N   UNL     1      -9.204  -9.250  20.479  0.00  0.00    +0.000 NA
ATOM      7  H   UNL     1      -8.460  -9.077  21.160  0.00  0.00    +0.000 HD
ATOM      8  H   UNL     1      -9.124 -10.238  20.238  0.00  0.00    +0.000 HD
ENDBRANCH   4   6
BRANCH   4   9
ATOM      9  C   UNL     1     -10.092  -8.483  18.233  0.00  0.00    +0.000 C 
ATOM     10  H   UNL     1     -10.411  -7.453  18.026  0.00  0.00    +0.000 HD
ATOM     11  H   UNL     1     -10.968  -8.995  18.649  0.00  0.00    +0.000 HD
BRANCH   9  12
ATOM     12  C   UNL     1      -9.722  -9.139  16.936  0.00  0.00    +0.000 A 
ATOM     13  C   UNL     1      -9.735  -8.562  15.680  0.00  0.00    +0.000 A 
ATOM     14  N   UNL     1      -9.288  -9.489  14.778  0.00  0.00    +0.000 N 
ATOM     15  C   UNL     1      -8.978 -10.667  15.417  0.00  0.00    +0.000 A 
ATOM     16  C   UNL     1      -8.455 -11.862  14.908  0.00  0.00    +0.000 A 
ATOM     17  C   UNL     1      -8.235 -12.909  15.809  0.00  0.00    +0.000 A 
ATOM     18  C   UNL     1      -8.546 -12.771  17.160  0.00  0.00    +0.000 A 
ATOM     19  C   UNL     1      -9.075 -11.572  17.648  0.00  0.00    +0.000 A 
ATOM     20  C   UNL     1      -9.278 -10.490  16.766  0.00  0.00    +0.000 A 
ATOM     21  H   UNL     1     -10.015  -7.568  15.354  0.00  0.00    +0.000 HD
ATOM     22  H   UNL     1      -9.182  -9.333  13.785  0.00  0.00    +0.000 HD
ATOM     23  H   UNL     1      -8.218 -11.977  13.856  0.00  0.00    +0.000 HD
ATOM     24  H   UNL     1      -7.815 -13.845  15.450  0.00  0.00    +0.000 HD
ATOM     25  H   UNL     1      -8.373 -13.598  17.843  0.00  0.00    +0.000 HD
ATOM     26  H   UNL     1      -9.313 -11.476  18.704  0.00  0.00    +0.000 HD
ENDBRANCH   9  12
ENDBRANCH   4   9
ENDBRANCH   1   4
BRANCH   1  27
ATOM     27  O   UNL     1      -7.395  -6.579  19.096  0.00  0.00    +0.000 OA
BRANCH  27  28
ATOM     28  C   UNL     1      -6.642  -5.671  19.779  0.00  0.00    +0.000 A 
ATOM     29  C   UNL     1      -5.277  -5.700  19.512  0.00  0.00    +0.000 A 
ATOM     30  N   UNL     1      -4.364  -4.886  20.090  0.00  0.00    +0.000 NA
ATOM     31  C   UNL     1      -4.847  -3.990  20.978  0.00  0.00    +0.000 A 
ATOM     32  C   UNL     1      -6.194  -3.861  21.322  0.00  0.00    +0.000 A 
ATOM     33  C   UNL     1      -7.098  -4.738  20.710  0.00  0.00    +0.000 A 
ATOM     34  H   UNL     1      -4.868  -6.414  18.801  0.00  0.00    +0.000 HD
ATOM     35  H   UNL     1      -4.088  -3.348  21.418  0.00  0.00    +0.000 HD
ATOM     36  H   UNL     1      -8.148  -4.691  20.976  0.00  0.00    +0.000 HD
BRANCH  32  37
ATOM     37  C   UNL     1      -6.581  -2.867  22.334  0.00  0.00    +0.000 C 
ATOM     38  C   UNL     1      -7.820  -2.718  22.831  0.00  0.00    +0.000 C 
ATOM     39  H   UNL     1      -5.774  -2.213  22.660  0.00  0.00    +0.000 HD
ATOM     40  H   UNL     1      -8.631  -3.368  22.511  0.00  0.00    +0.000 HD
BRANCH  38  41
ATOM     41  C   UNL     1      -8.194  -1.685  23.814  0.00  0.00    +0.000 A 
ATOM     42  C   UNL     1      -8.129  -0.319  23.531  0.00  0.00    +0.000 A 
ATOM     43  C   UNL     1      -8.538   0.584  24.499  0.00  0.00    +0.000 A 
ATOM     44  N   UNL     1      -9.012   0.224  25.709  0.00  0.00    +0.000 NA
ATOM     45  C   UNL     1      -9.084  -1.099  25.959  0.00  0.00    +0.000 A 
ATOM     46  C   UNL     1      -8.697  -2.078  25.055  0.00  0.00    +0.000 A 
ATOM     47  H   UNL     1      -7.782   0.056  22.574  0.00  0.00    +0.000 HD
ATOM     48  H   UNL     1      -8.500   1.654  24.317  0.00  0.00    +0.000 HD
ATOM     49  H   UNL     1      -9.479  -1.365  26.936  0.00  0.00    +0.000 HD
ATOM     50  H   UNL     1      -8.788  -3.125  25.328  0.00  0.00    +0.000 HD
ENDBRANCH  38  41
ENDBRANCH  32  37
ENDBRANCH  27  28
ENDBRANCH   1  27
TORSDOF 8
ENDMDL
MODEL 4
REMARK VINA RESULT:   -11.007      1.346      1.989
REMARK INTER + INTRA:         -16.640
REMARK INTER:                 -16.010
REMARK INTRA:                  -0.630
REMARK UNBOUND:                -0.806
REMARK  Name = 
REMARK  8 active torsions:
REMARK  status: ('A' for Active; 'I' for Inactive)
REMARK    1  A    between atoms: N_1  and  C_2
REMARK    2  A    between atoms: C_2  and  C_3
REMARK    3  A    between atoms: C_2  and  C_19
REMARK    4  A    between atoms: C_3  and  O_4
REMARK    5  A    between atoms: O_4  and  C_5
REMARK    6  A    between atoms: C_9  and  C_10
REMARK    7  A    between atoms: C_11  and  C_12
REMARK    8  A    between atoms: C_19  and  C_20
REMARK                            x       y       z     vdW  Elec       q    Type
REMARK                         _______ _______ _______ _____ _____    ______ ____
ROOT
ATOM      1  C   UNL     1      -8.858  -7.015  16.351  0.00  0.00    +0.000 C 
ATOM      2  H   UNL     1      -7.822  -7.252  16.628  0.00  0.00    +0.000 HD
ATOM      3  H   UNL     1      -8.887  -6.678  15.310  0.00  0.00    +0.000 HD
ENDROOT
BRANCH   1   4
ATOM      4  C   UNL     1      -9.734  -8.284  16.492  0.00  0.00    +0.000 C 
ATOM      5  H   UNL     1      -9.866  -8.489  17.561  0.00  0.00    +0.000 HD
BRANCH   4   6
ATOM      6  N   UNL     1     -11.077  -8.016  15.940  0.00  0.00    +0.000 NA
ATOM      7  H   UNL     1     -11.136  -7.029  15.679  0.00  0.00    +0.000 HD
ATOM      8  H   UNL     1     -11.766  -8.140  16.683  0.00  0.00    +0.000 HD
ENDBRANCH   4   6
BRANCH   4   9
ATOM      9  C   UNL     1      -9.022  -9.495  15.834  0.00  0.00    +0.000 C 
ATOM     10  H   UNL     1      -8.021  -9.182  15.512  0.00  0.00    +0.000 HD
ATOM     11  H   UNL     1      -9.550  -9.806  14.924  0.00  0.00    +0.000 HD
BRANCH   9  12
ATOM     12  C   UNL     1      -8.885 -10.683  16.739  0.00  0.00    +0.000 A 
ATOM     13  C   UNL     1      -8.834 -10.673  18.120  0.00  0.00    +0.000 A 
ATOM     14  N   UNL     1      -8.749 -11.968  18.555  0.00  0.00    +0.000 N 
ATOM     15  C   UNL     1      -8.745 -12.832  17.485  0.00  0.00    +0.000 A 
ATOM     16  C   UNL     1      -8.711 -14.232  17.452  0.00  0.00    +0.000 A 
ATOM     17  C   UNL     1      -8.720 -14.851  16.198  0.00  0.00    +0.000 A 
ATOM     18  C   UNL     1      -8.740 -14.099  15.026  0.00  0.00    +0.000 A 
ATOM     19  C   UNL     1      -8.766 -12.701  15.079  0.00  0.00    +0.000 A 
ATOM     20  C   UNL     1      -8.789 -12.053  16.331  0.00  0.00    +0.000 A 
ATOM     21  H   UNL     1      -8.862  -9.856  18.829  0.00  0.00    +0.000 HD
ATOM     22  H   UNL     1      -8.711 -12.258  19.522  0.00  0.00    +0.000 HD
ATOM     23  H   UNL     1      -8.688 -14.822  18.362  0.00  0.00    +0.000 HD
ATOM     24  H   UNL     1      -8.710 -15.937  16.137  0.00  0.00    +0.000 HD
ATOM     25  H   UNL     1      -8.742 -14.599  14.061  0.00  0.00    +0.000 HD
ATOM     26  H   UNL     1      -8.783 -12.125  14.158  0.00  0.00    +0.000 HD
ENDBRANCH   9  12
ENDBRANCH   4   9
ENDBRANCH   1   4
BRANCH   1  27
ATOM     27  O   UNL     1      -9.375  -5.992  17.210  0.00  0.00    +0.000 OA
BRANCH  27  28
ATOM     28  C   UNL     1      -8.604  -5.601  18.264  0.00  0.00    +0.000 A 
ATOM     29  C   UNL     1      -7.416  -6.305  18.433  0.00  0.00    +0.000 A 
ATOM     30  N   UNL     1      -6.520  -6.072  19.419  0.00  0.00    +0.000 NA
ATOM     31  C   UNL     1      -6.829  -5.077  20.278  0.00  0.00    +0.000 A 
ATOM     32  C   UNL     1      -7.985  -4.298  20.206  0.00  0.00    +0.000 A 
ATOM     33  C   UNL     1      -8.890  -4.588  19.178  0.00  0.00    +0.000 A 
ATOM     34  H   UNL     1      -7.149  -7.110  17.753  0.00  0.00    +0.000 HD
ATOM     35  H   UNL     1      -6.085  -4.912  21.054  0.00  0.00    +0.000 HD
ATOM     36  H   UNL     1      -9.815  -4.027  19.109  0.00  0.00    +0.000 HD
BRANCH  32  37
ATOM     37  C   UNL     1      -8.217  -3.268  21.230  0.00  0.00    +0.000 C 
ATOM     38  C   UNL     1      -8.090  -3.456  22.554  0.00  0.00    +0.000 C 
ATOM     39  H   UNL     1      -8.534  -2.303  20.839  0.00  0.00    +0.000 HD
ATOM     40  H   UNL     1      -7.774  -4.417  22.952  0.00  0.00    +0.000 HD
BRANCH  38  41
ATOM     41  C   UNL     1      -8.370  -2.420  23.564  0.00  0.00    +0.000 A 
ATOM     42  C   UNL     1      -8.185  -1.058  23.315  0.00  0.00    +0.000 A 
ATOM     43  C   UNL     1      -8.512  -0.147  24.307  0.00  0.00    +0.000 A 
ATOM     44  N   UNL     1      -9.014  -0.495  25.509  0.00  0.00    +0.000 NA
ATOM     45  C   UNL     1      -9.202  -1.813  25.726  0.00  0.00    +0.000 A 
ATOM     46  C   UNL     1      -8.904  -2.798  24.797  0.00  0.00    +0.000 A 
ATOM     47  H   UNL     1      -7.808  -0.691  22.367  0.00  0.00    +0.000 HD
ATOM     48  H   UNL     1      -8.380   0.920  24.151  0.00  0.00    +0.000 HD
ATOM     49  H   UNL     1      -9.618  -2.067  26.697  0.00  0.00    +0.000 HD
ATOM     50  H   UNL     1      -9.087  -3.839  25.044  0.00  0.00    +0.000 HD
ENDBRANCH  38  41
ENDBRANCH  32  37
ENDBRANCH  27  28
ENDBRANCH   1  27
TORSDOF 8
ENDMDL
MODEL 5
REMARK VINA RESULT:   -10.534      1.410     10.413
REMARK INTER + INTRA:         -15.958
REMARK INTER:                 -15.249
REMARK INTRA:                  -0.710
REMARK UNBOUND:                -0.806
REMARK  Name = 
REMARK  8 active torsions:
REMARK  status: ('A' for Active; 'I' for Inactive)
REMARK    1  A    between atoms: N_1  and  C_2
REMARK    2  A    between atoms: C_2  and  C_3
REMARK    3  A    between atoms: C_2  and  C_19
REMARK    4  A    between atoms: C_3  and  O_4
REMARK    5  A    between atoms: O_4  and  C_5
REMARK    6  A    between atoms: C_9  and  C_10
REMARK    7  A    between atoms: C_11  and  C_12
REMARK    8  A    between atoms: C_19  and  C_20
REMARK                            x       y       z     vdW  Elec       q    Type
REMARK                         _______ _______ _______ _____ _____    ______ ____
ROOT
ATOM      1  C   UNL     1      -6.489  -4.916  20.214  0.00  0.00    +0.000 C 
ATOM      2  H   UNL     1      -6.003  -4.599  19.281  0.00  0.00    +0.000 HD
ATOM      3  H   UNL     1      -6.231  -5.960  20.420  0.00  0.00    +0.000 HD
ENDROOT
BRANCH   1   4
ATOM      4  C   UNL     1      -5.986  -4.035  21.384  0.00  0.00    +0.000 C 
ATOM      5  H   UNL     1      -5.965  -4.653  22.290  0.00  0.00    +0.000 HD
BRANCH   4   6
ATOM      6  N   UNL     1      -4.594  -3.618  21.120  0.00  0.00    +0.000 NA
ATOM      7  H   UNL     1      -3.960  -4.326  21.500  0.00  0.00    +0.000 HD
ATOM      8  H   UNL     1      -4.401  -2.770  21.654  0.00  0.00    +0.000 HD
ENDBRANCH   4   6
BRANCH   4   9
ATOM      9  C   UNL     1      -6.958  -2.847  21.608  0.00  0.00    +0.000 C 
ATOM     10  H   UNL     1      -7.703  -2.845  20.802  0.00  0.00    +0.000 HD
ATOM     11  H   UNL     1      -6.425  -1.892  21.530  0.00  0.00    +0.000 HD
BRANCH   9  12
ATOM     12  C   UNL     1      -7.676  -2.891  22.924  0.00  0.00    +0.000 A 
ATOM     13  C   UNL     1      -8.045  -4.020  23.631  0.00  0.00    +0.000 A 
ATOM     14  N   UNL     1      -8.638  -3.620  24.798  0.00  0.00    +0.000 N 
ATOM     15  C   UNL     1      -8.663  -2.247  24.875  0.00  0.00    +0.000 A 
ATOM     16  C   UNL     1      -9.132  -1.406  25.892  0.00  0.00    +0.000 A 
ATOM     17  C   UNL     1      -9.024  -0.026  25.692  0.00  0.00    +0.000 A 
ATOM     18  C   UNL     1      -8.489   0.490  24.515  0.00  0.00    +0.000 A 
ATOM     19  C   UNL     1      -8.033  -0.366  23.506  0.00  0.00    +0.000 A 
ATOM     20  C   UNL     1      -8.102  -1.762  23.695  0.00  0.00    +0.000 A 
ATOM     21  H   UNL     1      -7.928  -5.073  23.407  0.00  0.00    +0.000 HD
ATOM     22  H   UNL     1      -8.994  -4.239  25.514  0.00  0.00    +0.000 HD
ATOM     23  H   UNL     1      -9.556  -1.803  26.808  0.00  0.00    +0.000 HD
ATOM     24  H   UNL     1      -9.364   0.655  26.469  0.00  0.00    +0.000 HD
ATOM     25  H   UNL     1      -8.418   1.566  24.376  0.00  0.00    +0.000 HD
ATOM     26  H   UNL     1      -7.617   0.048  22.592  0.00  0.00    +0.000 HD
ENDBRANCH   9  12
ENDBRANCH   4   9
ENDBRANCH   1   4
BRANCH   1  27
ATOM     27  O   UNL     1      -7.910  -4.777  20.100  0.00  0.00    +0.000 OA
BRANCH  27  28
ATOM     28  C   UNL     1      -8.569  -5.648  19.285  0.00  0.00    +0.000 A 
ATOM     29  C   UNL     1      -9.618  -5.106  18.549  0.00  0.00    +0.000 A 
ATOM     30  N   UNL     1     -10.395  -5.805  17.690  0.00  0.00    +0.000 NA
ATOM     31  C   UNL     1     -10.100  -7.116  17.558  0.00  0.00    +0.000 A 
ATOM     32  C   UNL     1      -9.070  -7.770  18.236  0.00  0.00    +0.000 A 
ATOM     33  C   UNL     1      -8.304  -7.008  19.126  0.00  0.00    +0.000 A 
ATOM     34  H   UNL     1      -9.871  -4.053  18.642  0.00  0.00    +0.000 HD
ATOM     35  H   UNL     1     -10.739  -7.647  16.856  0.00  0.00    +0.000 HD
ATOM     36  H   UNL     1      -7.516  -7.487  19.696  0.00  0.00    +0.000 HD
BRANCH  32  37
ATOM     37  C   UNL     1      -8.880  -9.214  18.027  0.00  0.00    +0.000 C 
ATOM     38  C   UNL     1      -9.063  -9.853  16.860  0.00  0.00    +0.000 C 
ATOM     39  H   UNL     1      -8.588  -9.766  18.918  0.00  0.00    +0.000 HD
ATOM     40  H   UNL     1      -9.353  -9.308  15.965  0.00  0.00    +0.000 HD
BRANCH  38  41
ATOM     41  C   UNL     1      -8.908 -11.308  16.685  0.00  0.00    +0.000 A 
ATOM     42  C   UNL     1      -8.734 -11.901  15.432  0.00  0.00    +0.000 A 
ATOM     43  C   UNL     1      -8.555 -13.273  15.361  0.00  0.00    +0.000 A 
ATOM     44  N   UNL     1      -8.526 -14.083  16.439  0.00  0.00    +0.000 NA
ATOM     45  C   UNL     1      -8.679 -13.492  17.641  0.00  0.00    +0.000 A 
ATOM     46  C   UNL     1      -8.865 -12.128  17.814  0.00  0.00    +0.000 A 
ATOM     47  H   UNL     1      -8.720 -11.320  14.517  0.00  0.00    +0.000 HD
ATOM     48  H   UNL     1      -8.419 -13.770  14.405  0.00  0.00    +0.000 HD
ATOM     49  H   UNL     1      -8.641 -14.164  18.495  0.00  0.00    +0.000 HD
ATOM     50  H   UNL     1      -8.977 -11.726  18.816  0.00  0.00    +0.000 HD
ENDBRANCH  38  41
ENDBRANCH  32  37
ENDBRANCH  27  28
ENDBRANCH   1  27
TORSDOF 8
ENDMDL
MODEL 6
REMARK VINA RESULT:   -10.014      2.919      3.595
REMARK INTER + INTRA:         -15.210
REMARK INTER:                 -14.608
REMARK INTRA:                  -0.602
REMARK UNBOUND:                -0.806
REMARK  Name = 
REMARK  8 active torsions:
REMARK  status: ('A' for Active; 'I' for Inactive)
REMARK    1  A    between atoms: N_1  and  C_2
REMARK    2  A    between atoms: C_2  and  C_3
REMARK    3  A    between atoms: C_2  and  C_19
REMARK    4  A    between atoms: C_3  and  O_4
REMARK    5  A    between atoms: O_4  and  C_5
REMARK    6  A    between atoms: C_9  and  C_10
REMARK    7  A    between atoms: C_11  and  C_12
REMARK    8  A    between atoms: C_19  and  C_20
REMARK                            x       y       z     vdW  Elec       q    Type
REMARK                         _______ _______ _______ _____ _____    ______ ____
ROOT
ATOM      1  C   UNL     1     -10.354  -5.687  16.334  0.00  0.00    +0.000 C 
ATOM      2  H   UNL     1      -9.462  -5.140  16.668  0.00  0.00    +0.000 HD
ATOM      3  H   UNL     1     -10.286  -5.869  15.256  0.00  0.00    +0.000 HD
ENDROOT
BRANCH   1   4
ATOM      4  C   UNL     1     -10.429  -7.049  17.068  0.00  0.00    +0.000 C 
ATOM      5  H   UNL     1      -9.911  -6.946  18.029  0.00  0.00    +0.000 HD
BRANCH   4   6
ATOM      6  N   UNL     1     -11.840  -7.361  17.377  0.00  0.00    +0.000 NA
ATOM      7  H   UNL     1     -11.875  -8.223  17.927  0.00  0.00    +0.000 HD
ATOM      8  H   UNL     1     -12.324  -7.580  16.505  0.00  0.00    +0.000 HD
ENDBRANCH   4   6
BRANCH   4   9
ATOM      9  C   UNL     1      -9.720  -8.144  16.230  0.00  0.00    +0.000 C 
ATOM     10  H   UNL     1      -8.836  -7.703  15.751  0.00  0.00    +0.000 HD
ATOM     11  H   UNL     1     -10.368  -8.486  15.413  0.00  0.00    +0.000 HD
BRANCH   9  12
ATOM     12  C   UNL     1      -9.287  -9.336  17.030  0.00  0.00    +0.000 A 
ATOM     13  C   UNL     1      -9.080  -9.388  18.395  0.00  0.00    +0.000 A 
ATOM     14  N   UNL     1      -8.735 -10.670  18.728  0.00  0.00    +0.000 N 
ATOM     15  C   UNL     1      -8.713 -11.465  17.606  0.00  0.00    +0.000 A 
ATOM     16  C   UNL     1      -8.454 -12.835  17.473  0.00  0.00    +0.000 A 
ATOM     17  C   UNL     1      -8.506 -13.381  16.186  0.00  0.00    +0.000 A 
ATOM     18  C   UNL     1      -8.784 -12.585  15.078  0.00  0.00    +0.000 A 
ATOM     19  C   UNL     1      -9.032 -11.217  15.230  0.00  0.00    +0.000 A 
ATOM     20  C   UNL     1      -9.016 -10.646  16.520  0.00  0.00    +0.000 A 
ATOM     21  H   UNL     1      -9.159  -8.624  19.159  0.00  0.00    +0.000 HD
ATOM     22  H   UNL     1      -8.539 -10.997  19.664  0.00  0.00    +0.000 HD
ATOM     23  H   UNL     1      -8.230 -13.458  18.332  0.00  0.00    +0.000 HD
ATOM     24  H   UNL     1      -8.325 -14.445  16.049  0.00  0.00    +0.000 HD
ATOM     25  H   UNL     1      -8.815 -13.028  14.086  0.00  0.00    +0.000 HD
ATOM     26  H   UNL     1      -9.248 -10.606  14.359  0.00  0.00    +0.000 HD
ENDBRANCH   9  12
ENDBRANCH   4   9
ENDBRANCH   1   4
BRANCH   1  27
ATOM     27  O   UNL     1     -11.534  -4.931  16.629  0.00  0.00    +0.000 OA
BRANCH  27  28
ATOM     28  C   UNL     1     -11.388  -3.785  17.350  0.00  0.00    +0.000 A 
ATOM     29  C   UNL     1     -11.838  -2.623  16.731  0.00  0.00    +0.000 A 
ATOM     30  N   UNL     1     -11.777  -1.388  17.278  0.00  0.00    +0.000 NA
ATOM     31  C   UNL     1     -11.241  -1.314  18.516  0.00  0.00    +0.000 A 
ATOM     32  C   UNL     1     -10.762  -2.407  19.239  0.00  0.00    +0.000 A 
ATOM     33  C   UNL     1     -10.832  -3.663  18.623  0.00  0.00    +0.000 A 
ATOM     34  H   UNL     1     -12.273  -2.661  15.735  0.00  0.00    +0.000 HD
ATOM     35  H   UNL     1     -11.213  -0.309  18.928  0.00  0.00    +0.000 HD
ATOM     36  H   UNL     1     -10.440  -4.532  19.140  0.00  0.00    +0.000 HD
BRANCH  32  37
ATOM     37  C   UNL     1     -10.167  -2.182  20.565  0.00  0.00    +0.000 C 
ATOM     38  C   UNL     1     -10.840  -1.761  21.649  0.00  0.00    +0.000 C 
ATOM     39  H   UNL     1      -9.096  -2.365  20.618  0.00  0.00    +0.000 HD
ATOM     40  H   UNL     1     -11.911  -1.576  21.604  0.00  0.00    +0.000 HD
BRANCH  38  41
ATOM     41  C   UNL     1     -10.213  -1.501  22.957  0.00  0.00    +0.000 A 
ATOM     42  C   UNL     1      -9.483  -0.340  23.224  0.00  0.00    +0.000 A 
ATOM     43  C   UNL     1      -8.962  -0.156  24.495  0.00  0.00    +0.000 A 
ATOM     44  N   UNL     1      -9.125  -1.032  25.507  0.00  0.00    +0.000 NA
ATOM     45  C   UNL     1      -9.846  -2.139  25.236  0.00  0.00    +0.000 A 
ATOM     46  C   UNL     1     -10.407  -2.411  23.997  0.00  0.00    +0.000 A 
ATOM     47  H   UNL     1      -9.325   0.426  22.474  0.00  0.00    +0.000 HD
ATOM     48  H   UNL     1      -8.386   0.732  24.739  0.00  0.00    +0.000 HD
ATOM     49  H   UNL     1      -9.973  -2.823  26.070  0.00  0.00    +0.000 HD
ATOM     50  H   UNL     1     -10.978  -3.324  23.857  0.00  0.00    +0.000 HD
ENDBRANCH  38  41
ENDBRANCH  32  37
ENDBRANCH  27  28
ENDBRANCH   1  27
TORSDOF 8
ENDMDL
MODEL 7
REMARK VINA RESULT:    -9.990      1.763      2.477
REMARK INTER + INTRA:         -15.177
REMARK INTER:                 -14.599
REMARK INTRA:                  -0.578
REMARK UNBOUND:                -0.806
REMARK  Name = 
REMARK  8 active torsions:
REMARK  status: ('A' for Active; 'I' for Inactive)
REMARK    1  A    between atoms: N_1  and  C_2
REMARK    2  A    between atoms: C_2  and  C_3
REMARK    3  A    between atoms: C_2  and  C_19
REMARK    4  A    between atoms: C_3  and  O_4
REMARK    5  A    between atoms: O_4  and  C_5
REMARK    6  A    between atoms: C_9  and  C_10
REMARK    7  A    between atoms: C_11  and  C_12
REMARK    8  A    between atoms: C_19  and  C_20
REMARK                            x       y       z     vdW  Elec       q    Type
REMARK                         _______ _______ _______ _____ _____    ______ ____
ROOT
ATOM      1  C   UNL     1      -8.729  -5.823  19.228  0.00  0.00    +0.000 C 
ATOM      2  H   UNL     1      -9.504  -6.233  19.890  0.00  0.00    +0.000 HD
ATOM      3  H   UNL     1      -7.752  -6.223  19.520  0.00  0.00    +0.000 HD
ENDROOT
BRANCH   1   4
ATOM      4  C   UNL     1      -9.025  -6.241  17.766  0.00  0.00    +0.000 C 
ATOM      5  H   UNL     1      -9.441  -5.372  17.242  0.00  0.00    +0.000 HD
BRANCH   4   6
ATOM      6  N   UNL     1      -7.757  -6.580  17.088  0.00  0.00    +0.000 NA
ATOM      7  H   UNL     1      -7.079  -6.888  17.789  0.00  0.00    +0.000 HD
ATOM      8  H   UNL     1      -7.362  -5.727  16.689  0.00  0.00    +0.000 HD
ENDBRANCH   4   6
BRANCH   4   9
ATOM      9  C   UNL     1     -10.067  -7.389  17.743  0.00  0.00    +0.000 C 
ATOM     10  H   UNL     1     -10.550  -7.406  16.758  0.00  0.00    +0.000 HD
ATOM     11  H   UNL     1     -10.867  -7.200  18.470  0.00  0.00    +0.000 HD
BRANCH   9  12
ATOM     12  C   UNL     1      -9.483  -8.744  18.013  0.00  0.00    +0.000 A 
ATOM     13  C   UNL     1      -9.068  -9.240  19.234  0.00  0.00    +0.000 A 
ATOM     14  N   UNL     1      -8.640 -10.528  19.050  0.00  0.00    +0.000 N 
ATOM     15  C   UNL     1      -8.768 -10.889  17.729  0.00  0.00    +0.000 A 
ATOM     16  C   UNL     1      -8.495 -12.107  17.094  0.00  0.00    +0.000 A 
ATOM     17  C   UNL     1      -8.728 -12.185  15.717  0.00  0.00    +0.000 A 
ATOM     18  C   UNL     1      -9.195 -11.085  15.003  0.00  0.00    +0.000 A 
ATOM     19  C   UNL     1      -9.455  -9.874  15.654  0.00  0.00    +0.000 A 
ATOM     20  C   UNL     1      -9.257  -9.777  17.047  0.00  0.00    +0.000 A 
ATOM     21  H   UNL     1      -9.050  -8.791  20.219  0.00  0.00    +0.000 HD
ATOM     22  H   UNL     1      -8.294 -11.137  19.778  0.00  0.00    +0.000 HD
ATOM     23  H   UNL     1      -8.125 -12.965  17.644  0.00  0.00    +0.000 HD
ATOM     24  H   UNL     1      -8.542 -13.122  15.195  0.00  0.00    +0.000 HD
ATOM     25  H   UNL     1      -9.365 -11.164  13.933  0.00  0.00    +0.000 HD
ATOM     26  H   UNL     1      -9.819  -9.022  15.087  0.00  0.00    +0.000 HD
ENDBRANCH   9  12
ENDBRANCH   4   9
ENDBRANCH   1   4
BRANCH   1  27
ATOM     27  O   UNL     1      -8.716  -4.394  19.312  0.00  0.00    +0.000 OA
BRANCH  27  28
ATOM     28  C   UNL     1      -8.036  -3.826  20.348  0.00  0.00    +0.000 A 
ATOM     29  C   UNL     1      -6.875  -4.486  20.738  0.00  0.00    +0.000 A 
ATOM     30  N   UNL     1      -6.066  -4.086  21.746  0.00  0.00    +0.000 NA
ATOM     31  C   UNL     1      -6.438  -2.961  22.393  0.00  0.00    +0.000 A 
ATOM     32  C   UNL     1      -7.575  -2.210  22.090  0.00  0.00    +0.000 A 
ATOM     33  C   UNL     1      -8.390  -2.674  21.049  0.00  0.00    +0.000 A 
ATOM     34  H   UNL     1      -6.559  -5.394  20.230  0.00  0.00    +0.000 HD
ATOM     35  H   UNL     1      -5.764  -2.665  23.193  0.00  0.00    +0.000 HD
ATOM     36  H   UNL     1      -9.299  -2.137  20.805  0.00  0.00    +0.000 HD
BRANCH  32  37
ATOM     37  C   UNL     1      -7.886  -1.023  22.900  0.00  0.00    +0.000 C 
ATOM     38  C   UNL     1      -9.102  -0.462  23.009  0.00  0.00    +0.000 C 
ATOM     39  H   UNL     1      -7.031  -0.590  23.416  0.00  0.00    +0.000 HD
ATOM     40  H   UNL     1      -9.960  -0.890  22.497  0.00  0.00    +0.000 HD
BRANCH  38  41
ATOM     41  C   UNL     1      -9.380   0.754  23.793  0.00  0.00    +0.000 A 
ATOM     42  C   UNL     1     -10.269   1.741  23.360  0.00  0.00    +0.000 A 
ATOM     43  C   UNL     1     -10.504   2.834  24.179  0.00  0.00    +0.000 A 
ATOM     44  N   UNL     1      -9.931   3.003  25.388  0.00  0.00    +0.000 NA
ATOM     45  C   UNL     1      -9.089   2.033  25.797  0.00  0.00    +0.000 A 
ATOM     46  C   UNL     1      -8.790   0.904  25.049  0.00  0.00    +0.000 A 
ATOM     47  H   UNL     1     -10.790   1.672  22.412  0.00  0.00    +0.000 HD
ATOM     48  H   UNL     1     -11.186   3.623  23.875  0.00  0.00    +0.000 HD
ATOM     49  H   UNL     1      -8.648   2.187  26.779  0.00  0.00    +0.000 HD
ATOM     50  H   UNL     1      -8.103   0.163  25.448  0.00  0.00    +0.000 HD
ENDBRANCH  38  41
ENDBRANCH  32  37
ENDBRANCH  27  28
ENDBRANCH   1  27
TORSDOF 8
ENDMDL
MODEL 8
REMARK VINA RESULT:    -9.963      5.441      8.679
REMARK INTER + INTRA:         -15.138
REMARK INTER:                 -14.522
REMARK INTRA:                  -0.616
REMARK UNBOUND:                -0.806
REMARK  Name = 
REMARK  8 active torsions:
REMARK  status: ('A' for Active; 'I' for Inactive)
REMARK    1  A    between atoms: N_1  and  C_2
REMARK    2  A    between atoms: C_2  and  C_3
REMARK    3  A    between atoms: C_2  and  C_19
REMARK    4  A    between atoms: C_3  and  O_4
REMARK    5  A    between atoms: O_4  and  C_5
REMARK    6  A    between atoms: C_9  and  C_10
REMARK    7  A    between atoms: C_11  and  C_12
REMARK    8  A    between atoms: C_19  and  C_20
REMARK                            x       y       z     vdW  Elec       q    Type
REMARK                         _______ _______ _______ _____ _____    ______ ____
ROOT
ATOM      1  C   UNL     1     -10.109  -6.889  16.562  0.00  0.00    +0.000 C 
ATOM      2  H   UNL     1      -9.216  -6.649  17.155  0.00  0.00    +0.000 HD
ATOM      3  H   UNL     1      -9.940  -6.601  15.519  0.00  0.00    +0.000 HD
ENDROOT
BRANCH   1   4
ATOM      4  C   UNL     1     -10.376  -8.413  16.625  0.00  0.00    +0.000 C 
ATOM      5  H   UNL     1     -10.661  -8.666  17.653  0.00  0.00    +0.000 HD
BRANCH   4   6
ATOM      6  N   UNL     1     -11.535  -8.742  15.769  0.00  0.00    +0.000 NA
ATOM      7  H   UNL     1     -12.083  -7.893  15.614  0.00  0.00    +0.000 HD
ATOM      8  H   UNL     1     -12.152  -9.372  16.284  0.00  0.00    +0.000 HD
ENDBRANCH   4   6
BRANCH   4   9
ATOM      9  C   UNL     1      -9.088  -9.193  16.254  0.00  0.00    +0.000 C 
ATOM     10  H   UNL     1      -8.221  -8.541  16.424  0.00  0.00    +0.000 HD
ATOM     11  H   UNL     1      -9.079  -9.437  15.184  0.00  0.00    +0.000 HD
BRANCH   9  12
ATOM     12  C   UNL     1      -8.898 -10.457  17.037  0.00  0.00    +0.000 A 
ATOM     13  C   UNL     1      -8.811 -10.577  18.411  0.00  0.00    +0.000 A 
ATOM     14  N   UNL     1      -8.683 -11.905  18.718  0.00  0.00    +0.000 N 
ATOM     15  C   UNL     1      -8.688 -12.663  17.571  0.00  0.00    +0.000 A 
ATOM     16  C   UNL     1      -8.621 -14.052  17.403  0.00  0.00    +0.000 A 
ATOM     17  C   UNL     1      -8.650 -14.549  16.096  0.00  0.00    +0.000 A 
ATOM     18  C   UNL     1      -8.720 -13.690  15.002  0.00  0.00    +0.000 A 
ATOM     19  C   UNL     1      -8.778 -12.305  15.189  0.00  0.00    +0.000 A 
ATOM     20  C   UNL     1      -8.781 -11.779  16.498  0.00  0.00    +0.000 A 
ATOM     21  H   UNL     1      -8.838  -9.832  19.196  0.00  0.00    +0.000 HD
ATOM     22  H   UNL     1      -8.612 -12.284  19.652  0.00  0.00    +0.000 HD
ATOM     23  H   UNL     1      -8.560 -14.725  18.251  0.00  0.00    +0.000 HD
ATOM     24  H   UNL     1      -8.616 -15.623  15.931  0.00  0.00    +0.000 HD
ATOM     25  H   UNL     1      -8.736 -14.096  13.994  0.00  0.00    +0.000 HD
ATOM     26  H   UNL     1      -8.832 -11.645  14.328  0.00  0.00    +0.000 HD
ENDBRANCH   9  12
ENDBRANCH   4   9
ENDBRANCH   1   4
BRANCH   1  27
ATOM     27  O   UNL     1     -11.247  -6.193  17.083  0.00  0.00    +0.000 OA
BRANCH  27  28
ATOM     28  C   UNL     1     -11.476  -4.927  16.633  0.00  0.00    +0.000 A 
ATOM     29  C   UNL     1     -11.715  -3.973  17.618  0.00  0.00    +0.000 A 
ATOM     30  N   UNL     1     -11.967  -2.666  17.375  0.00  0.00    +0.000 NA
ATOM     31  C   UNL     1     -11.974  -2.295  16.077  0.00  0.00    +0.000 A 
ATOM     32  C   UNL     1     -11.743  -3.157  15.004  0.00  0.00    +0.000 A 
ATOM     33  C   UNL     1     -11.503  -4.504  15.305  0.00  0.00    +0.000 A 
ATOM     34  H   UNL     1     -11.713  -4.252  18.668  0.00  0.00    +0.000 HD
ATOM     35  H   UNL     1     -12.174  -1.238  15.918  0.00  0.00    +0.000 HD
ATOM     36  H   UNL     1     -11.351  -5.211  14.497  0.00  0.00    +0.000 HD
BRANCH  32  37
ATOM     37  C   UNL     1     -11.818  -2.629  13.633  0.00  0.00    +0.000 C 
ATOM     38  C   UNL     1     -12.259  -3.317  12.567  0.00  0.00    +0.000 C 
ATOM     39  H   UNL     1     -11.459  -1.608  13.521  0.00  0.00    +0.000 HD
ATOM     40  H   UNL     1     -12.619  -4.337  12.672  0.00  0.00    +0.000 HD
BRANCH  38  41
ATOM     41  C   UNL     1     -12.284  -2.781  11.195  0.00  0.00    +0.000 A 
ATOM     42  C   UNL     1     -12.693  -1.477  10.904  0.00  0.00    +0.000 A 
ATOM     43  C   UNL     1     -12.647  -1.040   9.590  0.00  0.00    +0.000 A 
ATOM     44  N   UNL     1     -12.218  -1.798   8.561  0.00  0.00    +0.000 NA
ATOM     45  C   UNL     1     -11.811  -3.048   8.862  0.00  0.00    +0.000 A 
ATOM     46  C   UNL     1     -11.821  -3.576  10.145  0.00  0.00    +0.000 A 
ATOM     47  H   UNL     1     -13.030  -0.793  11.675  0.00  0.00    +0.000 HD
ATOM     48  H   UNL     1     -12.959  -0.033   9.325  0.00  0.00    +0.000 HD
ATOM     49  H   UNL     1     -11.460  -3.636   8.018  0.00  0.00    +0.000 HD
ATOM     50  H   UNL     1     -11.475  -4.591  10.309  0.00  0.00    +0.000 HD
ENDBRANCH  38  41
ENDBRANCH  32  37
ENDBRANCH  27  28
ENDBRANCH   1  27
TORSDOF 8
ENDMDL
MODEL 9
REMARK VINA RESULT:    -9.693      2.378     10.490
REMARK INTER + INTRA:         -14.749
REMARK INTER:                 -14.038
REMARK INTRA:                  -0.711
REMARK UNBOUND:                -0.806
REMARK  Name = 
REMARK  8 active torsions:
REMARK  status: ('A' for Active; 'I' for Inactive)
REMARK    1  A    between atoms: N_1  and  C_2
REMARK    2  A    between atoms: C_2  and  C_3
REMARK    3  A    between atoms: C_2  and  C_19
REMARK    4  A    between atoms: C_3  and  O_4
REMARK    5  A    between atoms: O_4  and  C_5
REMARK    6  A    between atoms: C_9  and  C_10
REMARK    7  A    between atoms: C_11  and  C_12
REMARK    8  A    between atoms: C_19  and  C_20
REMARK                            x       y       z     vdW  Elec       q    Type
REMARK                         _______ _______ _______ _____ _____    ______ ____
ROOT
ATOM      1  C   UNL     1      -9.897  -2.651  19.219  0.00  0.00    +0.000 C 
ATOM      2  H   UNL     1     -10.925  -2.880  18.906  0.00  0.00    +0.000 HD
ATOM      3  H   UNL     1      -9.476  -1.888  18.555  0.00  0.00    +0.000 HD
ENDROOT
BRANCH   1   4
ATOM      4  C   UNL     1      -9.907  -2.105  20.668  0.00  0.00    +0.000 C 
ATOM      5  H   UNL     1      -9.849  -1.011  20.620  0.00  0.00    +0.000 HD
BRANCH   4   6
ATOM      6  N   UNL     1     -11.198  -2.435  21.306  0.00  0.00    +0.000 NA
ATOM      7  H   UNL     1     -11.275  -3.451  21.390  0.00  0.00    +0.000 HD
ATOM      8  H   UNL     1     -11.953  -2.159  20.676  0.00  0.00    +0.000 HD
ENDBRANCH   4   6
BRANCH   4   9
ATOM      9  C   UNL     1      -8.677  -2.639  21.445  0.00  0.00    +0.000 C 
ATOM     10  H   UNL     1      -7.780  -2.115  21.089  0.00  0.00    +0.000 HD
ATOM     11  H   UNL     1      -8.513  -3.702  21.228  0.00  0.00    +0.000 HD
BRANCH   9  12
ATOM     12  C   UNL     1      -8.774  -2.463  22.932  0.00  0.00    +0.000 A 
ATOM     13  C   UNL     1      -8.798  -3.462  23.886  0.00  0.00    +0.000 A 
ATOM     14  N   UNL     1      -8.850  -2.873  25.121  0.00  0.00    +0.000 N 
ATOM     15  C   UNL     1      -8.859  -1.503  24.997  0.00  0.00    +0.000 A 
ATOM     16  C   UNL     1      -8.868  -0.506  25.981  0.00  0.00    +0.000 A 
ATOM     17  C   UNL     1      -8.872   0.825  25.552  0.00  0.00    +0.000 A 
ATOM     18  C   UNL     1      -8.888   1.144  24.197  0.00  0.00    +0.000 A 
ATOM     19  C   UNL     1      -8.887   0.134  23.229  0.00  0.00    +0.000 A 
ATOM     20  C   UNL     1      -8.852  -1.217  23.634  0.00  0.00    +0.000 A 
ATOM     21  H   UNL     1      -8.772  -4.540  23.792  0.00  0.00    +0.000 HD
ATOM     22  H   UNL     1      -8.864  -3.367  26.003  0.00  0.00    +0.000 HD
ATOM     23  H   UNL     1      -8.862  -0.749  27.037  0.00  0.00    +0.000 HD
ATOM     24  H   UNL     1      -8.862   1.625  26.290  0.00  0.00    +0.000 HD
ATOM     25  H   UNL     1      -8.896   2.185  23.884  0.00  0.00    +0.000 HD
ATOM     26  H   UNL     1      -8.899   0.394  22.175  0.00  0.00    +0.000 HD
ENDBRANCH   9  12
ENDBRANCH   4   9
ENDBRANCH   1   4
BRANCH   1  27
ATOM     27  O   UNL     1      -9.093  -3.835  19.172  0.00  0.00    +0.000 OA
BRANCH  27  28
ATOM     28  C   UNL     1      -9.571  -4.897  18.463  0.00  0.00    +0.000 A 
ATOM     29  C   UNL     1     -10.703  -4.645  17.694  0.00  0.00    +0.000 A 
ATOM     30  N   UNL     1     -11.329  -5.566  16.926  0.00  0.00    +0.000 NA
ATOM     31  C   UNL     1     -10.788  -6.803  16.925  0.00  0.00    +0.000 A 
ATOM     32  C   UNL     1      -9.654  -7.174  17.648  0.00  0.00    +0.000 A 
ATOM     33  C   UNL     1      -9.051  -6.190  18.442  0.00  0.00    +0.000 A 
ATOM     34  H   UNL     1     -11.153  -3.656  17.682  0.00  0.00    +0.000 HD
ATOM     35  H   UNL     1     -11.312  -7.516  16.293  0.00  0.00    +0.000 HD
ATOM     36  H   UNL     1      -8.187  -6.448  19.044  0.00  0.00    +0.000 HD
BRANCH  32  37
ATOM     37  C   UNL     1      -9.191  -8.569  17.587  0.00  0.00    +0.000 C 
ATOM     38  C   UNL     1      -9.558  -9.461  16.653  0.00  0.00    +0.000 C 
ATOM     39  H   UNL     1      -8.516  -8.858  18.391  0.00  0.00    +0.000 HD
ATOM     40  H   UNL     1     -10.231  -9.179  15.846  0.00  0.00    +0.000 HD
BRANCH  38  41
ATOM     41  C   UNL     1      -9.114 -10.866  16.637  0.00  0.00    +0.000 A 
ATOM     42  C   UNL     1      -8.906 -11.602  17.805  0.00  0.00    +0.000 A 
ATOM     43  C   UNL     1      -8.528 -12.932  17.699  0.00  0.00    +0.000 A 
ATOM     44  N   UNL     1      -8.356 -13.571  16.524  0.00  0.00    +0.000 NA
ATOM     45  C   UNL     1      -8.577 -12.850  15.407  0.00  0.00    +0.000 A 
ATOM     46  C   UNL     1      -8.957 -11.516  15.411  0.00  0.00    +0.000 A 
ATOM     47  H   UNL     1      -9.045 -11.172  18.790  0.00  0.00    +0.000 HD
ATOM     48  H   UNL     1      -8.354 -13.535  18.585  0.00  0.00    +0.000 HD
ATOM     49  H   UNL     1      -8.442 -13.390  14.474  0.00  0.00    +0.000 HD
ATOM     50  H   UNL     1      -9.120 -11.003  14.469  0.00  0.00    +0.000 HD
ENDBRANCH  38  41
ENDBRANCH  32  37
ENDBRANCH  27  28
ENDBRANCH   1  27
TORSDOF 8
ENDMDL
