REMARK  Name = 
REMARK  8 active torsions:
REMARK  status: ('A' for Active; 'I' for Inactive)
REMARK    1  A    between atoms: C_1  and  O_2
REMARK    2  A    between atoms: O_2  and  C_3
REMARK    3  A    between atoms: N_17  and  C_18
REMARK    4  A    between atoms: N_21  and  C_22
REMARK    5  A    between atoms: C_22  and  C_23
REMARK    6  A    between atoms: C_23  and  C_24
REMARK    7  A    between atoms: C_24  and  N_25
REMARK    8  A    between atoms: C_28  and  O_29
REMARK                            x       y       z     vdW  Elec       q    Type
REMARK                         _______ _______ _______ _____ _____    ______ ____
ROOT
ATOM      1  C   UNL     1      -2.706  -2.071  -2.030  0.00  0.00    +0.000 A 
ATOM      2  C   UNL     1      -3.066  -3.053  -1.131  0.00  0.00    +0.000 A 
ATOM      3  C   UNL     1      -2.438  -3.107   0.126  0.00  0.00    +0.000 A 
ATOM      4  C   UNL     1      -1.443  -2.163   0.481  0.00  0.00    +0.000 A 
ATOM      5  C   UNL     1      -0.700  -1.837   1.604  0.00  0.00    +0.000 A 
ATOM      6  C   UNL     1      -0.697  -2.632   2.769  0.00  0.00    +0.000 A 
ATOM      7  C   UNL     1      -0.057  -2.084   3.886  0.00  0.00    +0.000 A 
ATOM      8  C   UNL     1       0.942  -1.111   3.788  0.00  0.00    +0.000 A 
ATOM      9  C   UNL     1       1.131  -0.493   2.506  0.00  0.00    +0.000 A 
ATOM     10  C   UNL     1       2.361   0.137   2.237  0.00  0.00    +0.000 A 
ATOM     11  C   UNL     1       3.494  -0.228   2.974  0.00  0.00    +0.000 A 
ATOM     12  C   UNL     1       3.283  -1.165   3.987  0.00  0.00    +0.000 A 
ATOM     13  C   UNL     1       3.644  -2.560   4.147  0.00  0.00    +0.000 A 
ATOM     14  C   UNL     1       2.947  -3.032   5.249  0.00  0.00    +0.000 A 
ATOM     15  N   UNL     1       2.424  -1.869   5.805  0.00  0.00    +0.000 N 
ATOM     16  C   UNL     1       2.052  -1.125   4.670  0.00  0.00    +0.000 A 
ATOM     17  C   UNL     1       0.191  -0.786   1.468  0.00  0.00    +0.000 A 
ATOM     18  N   UNL     1       0.000  -0.426   0.118  0.00  0.00    +0.000 N 
ATOM     19  C   UNL     1      -1.042  -1.195  -0.454  0.00  0.00    +0.000 A 
ATOM     20  C   UNL     1      -1.694  -1.159  -1.708  0.00  0.00    +0.000 A 
ATOM     21  C   UNL     1      -0.295  -2.974   4.977  0.00  0.00    +0.000 C 
ATOM     22  O   UNL     1      -0.286  -2.841   6.197  0.00  0.00    +0.000 OA
ATOM     23  N   UNL     1      -0.653  -4.155   4.354  0.00  0.00    +0.000 N 
ATOM     24  C   UNL     1      -0.965  -4.006   3.040  0.00  0.00    +0.000 C 
ATOM     25  O   UNL     1      -1.259  -4.965   2.328  0.00  0.00    +0.000 OA
ATOM     26  H   UNL     1      -3.828  -3.786  -1.344  0.00  0.00    +0.000 HD
ATOM     27  H   UNL     1      -2.759  -3.871   0.827  0.00  0.00    +0.000 HD
ATOM     28  H   UNL     1       2.557   0.685   1.329  0.00  0.00    +0.000 HD
ATOM     29  H   UNL     1       4.485  -0.032   2.582  0.00  0.00    +0.000 HD
ATOM     30  H   UNL     1       4.214  -3.162   3.454  0.00  0.00    +0.000 HD
ATOM     31  H   UNL     1       2.857  -3.986   5.752  0.00  0.00    +0.000 HD
ATOM     32  H   UNL     1      -1.482  -0.418  -2.463  0.00  0.00    +0.000 HD
ATOM     33  H   UNL     1      -0.211  -4.996   4.645  0.00  0.00    +0.000 HD
ENDROOT
BRANCH  15  34
ATOM     34  C   UNL     1       3.189  -1.266   6.908  0.00  0.00    +0.000 C 
ATOM     35  H   UNL     1       3.052  -1.878   7.801  0.00  0.00    +0.000 HD
ATOM     36  H   UNL     1       2.863  -0.237   7.066  0.00  0.00    +0.000 HD
ATOM     37  H   UNL     1       4.253  -1.271   6.628  0.00  0.00    +0.000 HD
ENDBRANCH  15  34
BRANCH  18  38
ATOM     38  C   UNL     1       0.826   0.579  -0.568  0.00  0.00    +0.000 C 
ATOM     39  H   UNL     1       1.751   0.072  -0.863  0.00  0.00    +0.000 HD
ATOM     40  H   UNL     1       1.045   1.353   0.173  0.00  0.00    +0.000 HD
BRANCH  38  41
ATOM     41  C   UNL     1       0.189   1.283  -1.752  0.00  0.00    +0.000 C 
ATOM     42  H   UNL     1      -0.798   1.601  -1.409  0.00  0.00    +0.000 HD
ATOM     43  H   UNL     1       0.097   0.575  -2.576  0.00  0.00    +0.000 HD
BRANCH  41  44
ATOM     44  C   UNL     1       0.951   2.471  -2.343  0.00  0.00    +0.000 C 
ATOM     45  H   UNL     1       1.918   2.098  -2.708  0.00  0.00    +0.000 HD
ATOM     46  H   UNL     1       1.158   3.229  -1.580  0.00  0.00    +0.000 HD
BRANCH  44  47
ATOM     47  N   UNL     1       0.197   3.042  -3.484  0.00  0.00    +0.000 NA
ATOM     48  C   UNL     1       0.978   4.088  -4.160  0.00  0.00    +0.000 C 
ATOM     49  C   UNL     1       0.239   4.655  -5.376  0.00  0.00    +0.000 C 
ATOM     50  C   UNL     1      -1.156   5.155  -5.021  0.00  0.00    +0.000 C 
ATOM     51  C   UNL     1      -1.932   4.086  -4.272  0.00  0.00    +0.000 C 
ATOM     52  C   UNL     1      -1.139   3.525  -3.095  0.00  0.00    +0.000 C 
ATOM     53  H   UNL     1       1.928   3.668  -4.513  0.00  0.00    +0.000 HD
ATOM     54  H   UNL     1       1.224   4.898  -3.463  0.00  0.00    +0.000 HD
ATOM     55  H   UNL     1       0.156   3.874  -6.143  0.00  0.00    +0.000 HD
ATOM     56  H   UNL     1       0.831   5.474  -5.802  0.00  0.00    +0.000 HD
ATOM     57  H   UNL     1      -1.697   5.414  -5.938  0.00  0.00    +0.000 HD
ATOM     58  H   UNL     1      -2.180   3.266  -4.958  0.00  0.00    +0.000 HD
ATOM     59  H   UNL     1      -2.877   4.493  -3.894  0.00  0.00    +0.000 HD
ATOM     60  H   UNL     1      -1.753   2.705  -2.712  0.00  0.00    +0.000 HD
ATOM     61  H   UNL     1      -1.058   4.271  -2.295  0.00  0.00    +0.000 HD
BRANCH  50  62
ATOM     62  O   UNL     1      -1.082   6.354  -4.251  0.00  0.00    +0.000 OA
ATOM     63  H   UNL     1      -0.648   6.155  -3.405  0.00  0.00    +0.000 HD
ENDBRANCH  50  62
ENDBRANCH  44  47
ENDBRANCH  41  44
ENDBRANCH  38  41
ENDBRANCH  18  38
BRANCH   1  64
ATOM     64  O   UNL     1      -3.260  -1.864  -3.265  0.00  0.00    +0.000 OA
BRANCH  64  65
ATOM     65  C   UNL     1      -4.349  -2.698  -3.633  0.00  0.00    +0.000 C 
ATOM     66  H   UNL     1      -4.722  -2.349  -4.601  0.00  0.00    +0.000 HD
ATOM     67  H   UNL     1      -5.172  -2.622  -2.915  0.00  0.00    +0.000 HD
ATOM     68  H   UNL     1      -4.019  -3.734  -3.753  0.00  0.00    +0.000 HD
ENDBRANCH  64  65
ENDBRANCH   1  64
TORSDOF 8
