
 OpenBabel01112422183D

 67 74  0  0  1  0  0  0  0  0999 V2000
    1.9778   -3.1748   -2.5487 C   0  0  0  0  0  0  0  0  0  0  0  0
    1.9010   -1.8088   -2.1551 O   0  0  0  0  0  0  0  0  0  0  0  0
    2.1250   -1.6333   -0.7583 C   0  0  1  0  0  0  0  0  0  0  0  0
    2.5783   -0.0284   -0.3108 C   0  0  1  0  0  0  0  0  0  0  0  0
    2.4445    1.2851   -0.9994 N   0  0  0  0  0  0  0  0  0  0  0  0
    2.9575    2.4562   -0.2107 C   0  0  0  0  0  0  0  0  0  0  0  0
    3.0116    1.3649   -2.3479 C   0  0  0  0  0  0  0  0  0  0  0  0
    4.5335    1.3924   -2.3329 C   0  0  0  0  0  0  0  0  0  0  0  0
    5.2816    0.5230   -1.9060 O   0  0  0  0  0  0  0  0  0  0  0  0
    5.0379    2.5864   -2.7190 O   0  0  0  0  0  0  0  0  0  0  0  0
    1.7033    0.2500    0.8494 C   0  0  0  0  0  0  0  0  0  0  0  0
    0.3456   -0.2599    0.4916 C   0  0  2  0  0  0  0  0  0  0  0  0
    0.6427   -1.4789    1.2893 O   0  0  0  0  0  0  0  0  0  0  0  0
    1.0127   -2.5091    0.3753 C   0  0  2  0  0  0  0  0  0  0  0  0
    2.0332   -3.5181    0.9668 C   0  0  0  0  0  0  0  0  0  0  0  0
   -0.3852   -3.0991    0.3245 N   0  0  0  0  0  0  0  0  0  0  0  0
   -0.9851   -3.8646    1.4708 C   0  0  0  0  0  0  0  0  0  0  0  0
   -0.5490   -5.0266    2.1564 C   0  0  0  0  0  0  0  0  0  0  0  0
   -1.2933   -5.5692    3.2159 C   0  0  0  0  0  0  0  0  0  0  0  0
   -2.4773   -4.9935    3.6378 C   0  0  0  0  0  0  0  0  0  0  0  0
   -2.9128   -3.8097    3.0591 C   0  0  0  0  0  0  0  0  0  0  0  0
   -2.2061   -3.2222    1.9875 C   0  0  0  0  0  0  0  0  0  0  0  0
   -2.4730   -2.0878    1.2189 C   0  0  0  0  0  0  0  0  0  0  0  0
   -3.1834   -0.8980    1.6351 C   0  0  0  0  0  0  0  0  0  0  0  0
   -3.1474    0.1694    0.7110 C   0  0  0  0  0  0  0  0  0  0  0  0
   -2.5000   -0.1905   -0.4763 C   0  0  0  0  0  0  0  0  0  0  0  0
   -1.9561    0.9170   -1.2454 C   0  0  0  0  0  0  0  0  0  0  0  0
   -2.7499    1.7867   -2.0238 C   0  0  0  0  0  0  0  0  0  0  0  0
   -3.5581    1.0804   -2.9017 C   0  0  0  0  0  0  0  0  0  0  0  0
   -2.9997   -0.0569   -3.4803 C   0  0  0  0  0  0  0  0  0  0  0  0
   -1.6399   -0.4439   -3.1780 C   0  0  0  0  0  0  0  0  0  0  0  0
   -0.9816    0.1323   -1.9723 C   0  0  0  0  0  0  0  0  0  0  0  0
   -0.2730   -0.6097   -0.8888 N   0  0  0  0  0  0  0  0  0  0  0  0
   -1.4746   -1.1613   -0.5835 C   0  0  0  0  0  0  0  0  0  0  0  0
   -1.5006   -2.2523    0.2188 C   0  0  0  0  0  0  0  0  0  0  0  0
   -3.3921    1.4383    1.3087 C   0  0  0  0  0  0  0  0  0  0  0  0
   -3.3140    2.6170    0.9346 O   0  0  0  0  0  0  0  0  0  0  0  0
   -3.6958    1.0843    2.6077 N   0  0  0  0  0  0  0  0  0  0  0  0
   -3.5997   -0.3516    2.9349 C   0  0  0  0  0  0  0  0  0  0  0  0
    1.9226   -3.2288   -3.6387 H   0  0  0  0  0  0  0  0  0  0  0  0
    2.9246   -3.6312   -2.2353 H   0  0  0  0  0  0  0  0  0  0  0  0
    1.1390   -3.7340   -2.1283 H   0  0  0  0  0  0  0  0  0  0  0  0
    3.1097   -2.0985   -0.5973 H   0  0  0  0  0  0  0  0  0  0  0  0
    3.6208   -0.1168    0.0299 H   0  0  0  0  0  0  0  0  0  0  0  0
    4.0489    2.4875   -0.1500 H   0  0  0  0  0  0  0  0  0  0  0  0
    2.5854    3.3876   -0.6502 H   0  0  0  0  0  0  0  0  0  0  0  0
    2.6446    2.5349    0.8352 H   0  0  0  0  0  0  0  0  0  0  0  0
    2.6563    0.5638   -2.9948 H   0  0  0  0  0  0  0  0  0  0  0  0
    2.6519    2.3016   -2.7971 H   0  0  0  0  0  0  0  0  0  0  0  0
    5.9984    2.5089   -2.5427 H   0  0  0  0  0  0  0  0  0  0  0  0
    1.5498    1.2374    1.2693 H   0  0  0  0  0  0  0  0  0  0  0  0
    2.1874   -0.2471    1.7150 H   0  0  0  0  0  0  0  0  0  0  0  0
   -0.3917    0.3339    1.0387 H   0  0  0  0  0  0  0  0  0  0  0  0
    2.5694   -3.1122    1.8267 H   0  0  0  0  0  0  0  0  0  0  0  0
    1.6395   -4.4862    1.2203 H   0  0  0  0  0  0  0  0  0  0  0  0
    2.7736   -3.8251    0.2155 H   0  0  0  0  0  0  0  0  0  0  0  0
    0.3449   -5.5736    1.8886 H   0  0  0  0  0  0  0  0  0  0  0  0
   -0.9394   -6.4744    3.7054 H   0  0  0  0  0  0  0  0  0  0  0  0
   -3.0748   -5.4670    4.4119 H   0  0  0  0  0  0  0  0  0  0  0  0
   -3.8518   -3.3697    3.3831 H   0  0  0  0  0  0  0  0  0  0  0  0
   -2.3939    2.7603   -2.3511 H   0  0  0  0  0  0  0  0  0  0  0  0
   -4.5509    1.4435   -3.1526 H   0  0  0  0  0  0  0  0  0  0  0  0
   -3.6390   -0.6748   -4.1141 H   0  0  0  0  0  0  0  0  0  0  0  0
   -1.3090   -1.4068   -3.5734 H   0  0  0  0  0  0  0  0  0  0  0  0
   -3.8874    1.8241    3.2633 H   0  0  0  0  0  0  0  0  0  0  0  0
   -2.8406   -0.4765    3.7087 H   0  0  0  0  0  0  0  0  0  0  0  0
   -4.5914   -0.6768    3.2373 H   0  0  0  0  0  0  0  0  0  0  0  0
  1  2  1  0  0  0  0
  1 40  1  0  0  0  0
  1 41  1  0  0  0  0
  1 42  1  0  0  0  0
  3  4  1  0  0  0  0
  3 14  1  0  0  0  0
  3  2  1  0  0  0  0
  3 43  1  1  0  0  0
  4 11  1  0  0  0  0
  4  5  1  0  0  0  0
  4 44  1  1  0  0  0
  5  6  1  0  0  0  0
  5  7  1  0  0  0  0
  6 45  1  0  0  0  0
  6 46  1  0  0  0  0
  6 47  1  0  0  0  0
  7  8  1  0  0  0  0
  7 48  1  0  0  0  0
  7 49  1  0  0  0  0
  8  9  2  0  0  0  0
  8 10  1  0  0  0  0
 10 50  1  0  0  0  0
 11 12  1  0  0  0  0
 11 51  1  0  0  0  0
 11 52  1  0  0  0  0
 12 13  1  0  0  0  0
 12 33  1  0  0  0  0
 12 53  1  1  0  0  0
 13 14  1  0  0  0  0
 14 16  1  0  0  0  0
 14 15  1  1  0  0  0
 15 54  1  0  0  0  0
 15 55  1  0  0  0  0
 15 56  1  0  0  0  0
 16 17  1  0  0  0  0
 16 35  1  0  0  0  0
 17 18  1  0  0  0  0
 17 22  2  0  0  0  0
 18 19  2  0  0  0  0
 18 57  1  0  0  0  0
 19 20  1  0  0  0  0
 19 58  1  0  0  0  0
 20 21  2  0  0  0  0
 20 59  1  0  0  0  0
 21 22  1  0  0  0  0
 21 60  1  0  0  0  0
 22 23  1  0  0  0  0
 23 24  1  0  0  0  0
 23 35  2  0  0  0  0
 24 25  2  0  0  0  0
 24 39  1  0  0  0  0
 25 26  1  0  0  0  0
 25 36  1  0  0  0  0
 26 27  1  0  0  0  0
 26 34  2  0  0  0  0
 27 28  1  0  0  0  0
 27 32  2  0  0  0  0
 28 29  2  0  0  0  0
 28 61  1  0  0  0  0
 29 30  1  0  0  0  0
 29 62  1  0  0  0  0
 30 31  2  0  0  0  0
 30 63  1  0  0  0  0
 31 32  1  0  0  0  0
 31 64  1  0  0  0  0
 32 33  1  0  0  0  0
 33 34  1  0  0  0  0
 34 35  1  0  0  0  0
 36 38  1  0  0  0  0
 36 37  2  0  0  0  0
 38 39  1  0  0  0  0
 38 65  1  0  0  0  0
 39 66  1  0  0  0  0
 39 67  1  0  0  0  0
M  END
$$$$
