MODEL 1
REMARK VINA RESULT:    -9.406      0.000      0.000
REMARK INTER + INTRA:         -12.305
REMARK INTER:                 -12.156
REMARK INTRA:                  -0.149
REMARK UNBOUND:                -0.149
REMARK  Name = 
REMARK  7 active torsions:
REMARK  status: ('A' for Active; 'I' for Inactive)
REMARK    1  A    between atoms: S_2  and  C_4
REMARK    2  A    between atoms: S_2  and  N_11
REMARK    3  A    between atoms: C_4  and  C_5
REMARK    4  A    between atoms: C_14  and  O_15
REMARK    5  A    between atoms: C_16  and  O_17
REMARK    6  A    between atoms: C_23  and  O_24
REMARK    7  A    between atoms: C_25  and  O_26
REMARK                            x       y       z     vdW  Elec       q    Type
REMARK                         _______ _______ _______ _____ _____    ______ ____
ROOT
ATOM      1  N   UNL     1      -9.897  -6.569  16.296  0.00  0.00    +0.000 N 
ATOM      2  C   UNL     1      -9.885  -6.534  17.684  0.00  0.00    +0.000 A 
ATOM      3  C   UNL     1      -9.795  -7.500  18.687  0.00  0.00    +0.000 A 
ATOM      4  C   UNL     1      -8.978  -7.137  19.744  0.00  0.00    +0.000 A 
ATOM      5  C   UNL     1      -8.322  -5.907  19.754  0.00  0.00    +0.000 A 
ATOM      6  C   UNL     1      -8.721  -4.864  18.914  0.00  0.00    +0.000 A 
ATOM      7  C   UNL     1      -9.670  -5.182  17.927  0.00  0.00    +0.000 A 
ATOM      8  C   UNL     1     -10.484  -4.584  16.937  0.00  0.00    +0.000 A 
ATOM      9  C   UNL     1     -11.440  -3.551  16.830  0.00  0.00    +0.000 A 
ATOM     10  C   UNL     1     -11.889  -3.193  15.557  0.00  0.00    +0.000 A 
ATOM     11  C   UNL     1     -11.213  -3.678  14.432  0.00  0.00    +0.000 A 
ATOM     12  C   UNL     1     -10.296  -4.728  14.541  0.00  0.00    +0.000 A 
ATOM     13  C   UNL     1     -10.176  -5.316  15.797  0.00  0.00    +0.000 A 
ATOM     14  H   UNL     1     -10.171  -8.509  18.562  0.00  0.00    +0.000 HD
ATOM     15  H   UNL     1      -8.198  -3.914  18.914  0.00  0.00    +0.000 HD
ATOM     16  H   UNL     1     -11.914  -3.151  17.718  0.00  0.00    +0.000 HD
ATOM     17  H   UNL     1     -12.723  -2.507  15.451  0.00  0.00    +0.000 HD
ENDROOT
BRANCH   1  19
ATOM     18  O   UNL     1      -8.033  -8.200  16.188  0.00  0.00    +0.000 OA
ATOM     19  S   UNL     1      -9.265  -7.919  15.496  0.00  0.00    +0.000 S 
ATOM     20  O   UNL     1      -9.252  -7.504  14.100  0.00  0.00    +0.000 OA
BRANCH  19  21
ATOM     21  C   UNL     1     -10.261  -9.359  15.621  0.00  0.00    +0.000 C 
ATOM     22  H   UNL     1     -10.594  -9.529  14.584  0.00  0.00    +0.000 HD
ATOM     23  H   UNL     1     -11.156  -9.097  16.190  0.00  0.00    +0.000 HD
BRANCH  21  24
ATOM     24  C   UNL     1      -9.617 -10.629  16.119  0.00  0.00    +0.000 A 
ATOM     25  C   UNL     1      -9.457 -11.032  17.448  0.00  0.00    +0.000 A 
ATOM     26  C   UNL     1      -8.787 -12.216  17.754  0.00  0.00    +0.000 A 
ATOM     27  C   UNL     1      -8.236 -12.999  16.729  0.00  0.00    +0.000 A 
ATOM     28  C   UNL     1      -8.396 -12.621  15.411  0.00  0.00    +0.000 A 
ATOM     29  C   UNL     1      -9.082 -11.441  15.110  0.00  0.00    +0.000 A 
ATOM     30  H   UNL     1      -9.821 -10.450  18.295  0.00  0.00    +0.000 HD
ATOM     31  H   UNL     1      -8.658 -12.524  18.786  0.00  0.00    +0.000 HD
ATOM     32  H   UNL     1      -7.688 -13.908  16.977  0.00  0.00    +0.000 HD
ATOM     33  H   UNL     1      -7.980 -13.221  14.610  0.00  0.00    +0.000 HD
ATOM     34  H   UNL     1      -9.207 -11.166  14.067  0.00  0.00    +0.000 HD
ENDBRANCH  21  24
ENDBRANCH  19  21
ENDBRANCH   1  19
BRANCH   4  35
ATOM     35  O   UNL     1      -8.704  -8.023  20.750  0.00  0.00    +0.000 OA
ATOM     36  H   UNL     1      -8.464  -8.866  20.323  0.00  0.00    +0.000 HD
ENDBRANCH   4  35
BRANCH   5  37
ATOM     37  O   UNL     1      -7.237  -5.746  20.571  0.00  0.00    +0.000 OA
ATOM     38  H   UNL     1      -6.529  -6.261  20.132  0.00  0.00    +0.000 HD
ENDBRANCH   5  37
BRANCH  11  39
ATOM     39  O   UNL     1     -11.460  -3.183  13.181  0.00  0.00    +0.000 OA
ATOM     40  H   UNL     1     -10.960  -3.708  12.539  0.00  0.00    +0.000 HD
ENDBRANCH  11  39
BRANCH  12  41
ATOM     41  O   UNL     1      -9.602  -5.137  13.449  0.00  0.00    +0.000 OA
ATOM     42  H   UNL     1     -10.258  -5.613  12.898  0.00  0.00    +0.000 HD
ENDBRANCH  12  41
TORSDOF 7
ENDMDL
MODEL 2
REMARK VINA RESULT:    -9.405      2.173      3.088
REMARK INTER + INTRA:         -12.303
REMARK INTER:                 -12.264
REMARK INTRA:                  -0.040
REMARK UNBOUND:                -0.149
REMARK  Name = 
REMARK  7 active torsions:
REMARK  status: ('A' for Active; 'I' for Inactive)
REMARK    1  A    between atoms: S_2  and  C_4
REMARK    2  A    between atoms: S_2  and  N_11
REMARK    3  A    between atoms: C_4  and  C_5
REMARK    4  A    between atoms: C_14  and  O_15
REMARK    5  A    between atoms: C_16  and  O_17
REMARK    6  A    between atoms: C_23  and  O_24
REMARK    7  A    between atoms: C_25  and  O_26
REMARK                            x       y       z     vdW  Elec       q    Type
REMARK                         _______ _______ _______ _____ _____    ______ ____
ROOT
ATOM      1  N   UNL     1     -10.437  -4.668  16.431  0.00  0.00    +0.000 N 
ATOM      2  C   UNL     1     -10.758  -3.696  17.370  0.00  0.00    +0.000 A 
ATOM      3  C   UNL     1     -10.952  -3.696  18.752  0.00  0.00    +0.000 A 
ATOM      4  C   UNL     1     -10.398  -2.604  19.396  0.00  0.00    +0.000 A 
ATOM      5  C   UNL     1      -9.713  -1.622  18.683  0.00  0.00    +0.000 A 
ATOM      6  C   UNL     1      -9.854  -1.497  17.299  0.00  0.00    +0.000 A 
ATOM      7  C   UNL     1     -10.551  -2.528  16.645  0.00  0.00    +0.000 A 
ATOM      8  C   UNL     1     -11.077  -2.884  15.381  0.00  0.00    +0.000 A 
ATOM      9  C   UNL     1     -11.935  -2.344  14.398  0.00  0.00    +0.000 A 
ATOM     10  C   UNL     1     -12.049  -3.014  13.178  0.00  0.00    +0.000 A 
ATOM     11  C   UNL     1     -11.144  -4.036  12.872  0.00  0.00    +0.000 A 
ATOM     12  C   UNL     1     -10.325  -4.591  13.860  0.00  0.00    +0.000 A 
ATOM     13  C   UNL     1     -10.535  -4.143  15.161  0.00  0.00    +0.000 A 
ATOM     14  H   UNL     1     -11.329  -4.559  19.289  0.00  0.00    +0.000 HD
ATOM     15  H   UNL     1      -9.308  -0.741  16.746  0.00  0.00    +0.000 HD
ATOM     16  H   UNL     1     -12.592  -1.517  14.641  0.00  0.00    +0.000 HD
ATOM     17  H   UNL     1     -12.804  -2.708  12.462  0.00  0.00    +0.000 HD
ENDROOT
BRANCH   1  19
ATOM     18  O   UNL     1      -9.430  -5.885  18.342  0.00  0.00    +0.000 OA
ATOM     19  S   UNL     1      -9.689  -6.096  16.940  0.00  0.00    +0.000 S 
ATOM     20  O   UNL     1      -8.588  -6.250  15.999  0.00  0.00    +0.000 OA
BRANCH  19  21
ATOM     21  C   UNL     1     -10.706  -7.523  16.818  0.00  0.00    +0.000 C 
ATOM     22  H   UNL     1     -11.348  -7.304  15.949  0.00  0.00    +0.000 HD
ATOM     23  H   UNL     1     -11.364  -7.538  17.689  0.00  0.00    +0.000 HD
BRANCH  21  24
ATOM     24  C   UNL     1     -10.038  -8.854  16.582  0.00  0.00    +0.000 A 
ATOM     25  C   UNL     1     -10.033  -9.601  15.400  0.00  0.00    +0.000 A 
ATOM     26  C   UNL     1      -9.413 -10.849  15.352  0.00  0.00    +0.000 A 
ATOM     27  C   UNL     1      -8.814 -11.383  16.503  0.00  0.00    +0.000 A 
ATOM     28  C   UNL     1      -8.800 -10.653  17.675  0.00  0.00    +0.000 A 
ATOM     29  C   UNL     1      -9.410  -9.395  17.712  0.00  0.00    +0.000 A 
ATOM     30  H   UNL     1     -10.516  -9.266  14.482  0.00  0.00    +0.000 HD
ATOM     31  H   UNL     1      -9.416 -11.430  14.437  0.00  0.00    +0.000 HD
ATOM     32  H   UNL     1      -8.356 -12.371  16.466  0.00  0.00    +0.000 HD
ATOM     33  H   UNL     1      -8.336 -11.052  18.569  0.00  0.00    +0.000 HD
ATOM     34  H   UNL     1      -9.379  -8.832  18.640  0.00  0.00    +0.000 HD
ENDBRANCH  21  24
ENDBRANCH  19  21
ENDBRANCH   1  19
BRANCH   4  35
ATOM     35  O   UNL     1     -10.412  -2.519  20.763  0.00  0.00    +0.000 OA
ATOM     36  H   UNL     1     -11.330  -2.686  21.043  0.00  0.00    +0.000 HD
ENDBRANCH   4  35
BRANCH   5  37
ATOM     37  O   UNL     1      -8.851  -0.800  19.356  0.00  0.00    +0.000 OA
ATOM     38  H   UNL     1      -8.562  -0.152  18.680  0.00  0.00    +0.000 HD
ENDBRANCH   5  37
BRANCH  11  39
ATOM     39  O   UNL     1     -11.062  -4.566  11.613  0.00  0.00    +0.000 OA
ATOM     40  H   UNL     1     -10.845  -5.506  11.689  0.00  0.00    +0.000 HD
ENDBRANCH  11  39
BRANCH  12  41
ATOM     41  O   UNL     1      -9.407  -5.534  13.527  0.00  0.00    +0.000 OA
ATOM     42  H   UNL     1      -9.618  -5.775  12.601  0.00  0.00    +0.000 HD
ENDBRANCH  12  41
TORSDOF 7
ENDMDL
MODEL 3
REMARK VINA RESULT:    -9.338      1.706      2.344
REMARK INTER + INTRA:         -12.217
REMARK INTER:                 -11.754
REMARK INTRA:                  -0.463
REMARK UNBOUND:                -0.149
REMARK  Name = 
REMARK  7 active torsions:
REMARK  status: ('A' for Active; 'I' for Inactive)
REMARK    1  A    between atoms: S_2  and  C_4
REMARK    2  A    between atoms: S_2  and  N_11
REMARK    3  A    between atoms: C_4  and  C_5
REMARK    4  A    between atoms: C_14  and  O_15
REMARK    5  A    between atoms: C_16  and  O_17
REMARK    6  A    between atoms: C_23  and  O_24
REMARK    7  A    between atoms: C_25  and  O_26
REMARK                            x       y       z     vdW  Elec       q    Type
REMARK                         _______ _______ _______ _____ _____    ______ ____
ROOT
ATOM      1  N   UNL     1     -10.246  -5.347  17.493  0.00  0.00    +0.000 N 
ATOM      2  C   UNL     1      -9.632  -5.789  18.659  0.00  0.00    +0.000 A 
ATOM      3  C   UNL     1      -9.408  -7.041  19.233  0.00  0.00    +0.000 A 
ATOM      4  C   UNL     1      -8.152  -7.184  19.795  0.00  0.00    +0.000 A 
ATOM      5  C   UNL     1      -7.226  -6.142  19.758  0.00  0.00    +0.000 A 
ATOM      6  C   UNL     1      -7.621  -4.830  19.492  0.00  0.00    +0.000 A 
ATOM      7  C   UNL     1      -8.948  -4.648  19.064  0.00  0.00    +0.000 A 
ATOM      8  C   UNL     1      -9.893  -3.636  18.775  0.00  0.00    +0.000 A 
ATOM      9  C   UNL     1     -10.453  -2.499  19.396  0.00  0.00    +0.000 A 
ATOM     10  C   UNL     1     -11.277  -1.666  18.635  0.00  0.00    +0.000 A 
ATOM     11  C   UNL     1     -11.321  -1.834  17.247  0.00  0.00    +0.000 A 
ATOM     12  C   UNL     1     -10.798  -2.981  16.643  0.00  0.00    +0.000 A 
ATOM     13  C   UNL     1     -10.330  -3.972  17.501  0.00  0.00    +0.000 A 
ATOM     14  H   UNL     1     -10.079  -7.879  19.085  0.00  0.00    +0.000 HD
ATOM     15  H   UNL     1      -6.896  -4.024  19.449  0.00  0.00    +0.000 HD
ATOM     16  H   UNL     1     -10.362  -2.360  20.467  0.00  0.00    +0.000 HD
ATOM     17  H   UNL     1     -11.835  -0.871  19.117  0.00  0.00    +0.000 HD
ENDROOT
BRANCH   1  19
ATOM     18  O   UNL     1      -9.116  -6.573  15.658  0.00  0.00    +0.000 OA
ATOM     19  S   UNL     1     -10.442  -6.421  16.202  0.00  0.00    +0.000 S 
ATOM     20  O   UNL     1     -11.500  -5.805  15.414  0.00  0.00    +0.000 OA
BRANCH  19  21
ATOM     21  C   UNL     1     -10.986  -8.022  16.676  0.00  0.00    +0.000 C 
ATOM     22  H   UNL     1     -11.981  -8.101  16.210  0.00  0.00    +0.000 HD
ATOM     23  H   UNL     1     -11.153  -8.012  17.755  0.00  0.00    +0.000 HD
BRANCH  21  24
ATOM     24  C   UNL     1     -10.168  -9.210  16.235  0.00  0.00    +0.000 A 
ATOM     25  C   UNL     1      -9.982  -9.672  14.928  0.00  0.00    +0.000 A 
ATOM     26  C   UNL     1      -9.237 -10.824  14.682  0.00  0.00    +0.000 A 
ATOM     27  C   UNL     1      -8.693 -11.553  15.750  0.00  0.00    +0.000 A 
ATOM     28  C   UNL     1      -8.859 -11.105  17.045  0.00  0.00    +0.000 A 
ATOM     29  C   UNL     1      -9.593  -9.939  17.284  0.00  0.00    +0.000 A 
ATOM     30  H   UNL     1     -10.412  -9.179  14.055  0.00  0.00    +0.000 HD
ATOM     31  H   UNL     1      -9.099 -11.184  13.668  0.00  0.00    +0.000 HD
ATOM     32  H   UNL     1      -8.137 -12.469  15.553  0.00  0.00    +0.000 HD
ATOM     33  H   UNL     1      -8.439 -11.656  17.879  0.00  0.00    +0.000 HD
ATOM     34  H   UNL     1      -9.702  -9.596  18.309  0.00  0.00    +0.000 HD
ENDBRANCH  21  24
ENDBRANCH  19  21
ENDBRANCH   1  19
BRANCH   4  35
ATOM     35  O   UNL     1      -7.747  -8.391  20.300  0.00  0.00    +0.000 OA
ATOM     36  H   UNL     1      -7.684  -8.282  21.266  0.00  0.00    +0.000 HD
ENDBRANCH   4  35
BRANCH   5  37
ATOM     37  O   UNL     1      -5.902  -6.431  19.941  0.00  0.00    +0.000 OA
ATOM     38  H   UNL     1      -5.473  -6.112  19.120  0.00  0.00    +0.000 HD
ENDBRANCH   5  37
BRANCH  11  39
ATOM     39  O   UNL     1     -11.923  -0.911  16.434  0.00  0.00    +0.000 OA
ATOM     40  H   UNL     1     -12.882  -0.985  16.543  0.00  0.00    +0.000 HD
ENDBRANCH  11  39
BRANCH  12  41
ATOM     41  O   UNL     1     -10.791  -3.090  15.290  0.00  0.00    +0.000 OA
ATOM     42  H   UNL     1     -10.522  -4.016  15.114  0.00  0.00    +0.000 HD
ENDBRANCH  12  41
TORSDOF 7
ENDMDL
MODEL 4
REMARK VINA RESULT:    -9.034      2.160      6.474
REMARK INTER + INTRA:         -11.823
REMARK INTER:                 -11.245
REMARK INTRA:                  -0.578
REMARK UNBOUND:                -0.149
REMARK  Name = 
REMARK  7 active torsions:
REMARK  status: ('A' for Active; 'I' for Inactive)
REMARK    1  A    between atoms: S_2  and  C_4
REMARK    2  A    between atoms: S_2  and  N_11
REMARK    3  A    between atoms: C_4  and  C_5
REMARK    4  A    between atoms: C_14  and  O_15
REMARK    5  A    between atoms: C_16  and  O_17
REMARK    6  A    between atoms: C_23  and  O_24
REMARK    7  A    between atoms: C_25  and  O_26
REMARK                            x       y       z     vdW  Elec       q    Type
REMARK                         _______ _______ _______ _____ _____    ______ ____
ROOT
ATOM      1  N   UNL     1      -9.948  -8.218  17.634  0.00  0.00    +0.000 N 
ATOM      2  C   UNL     1     -10.308  -7.493  16.505  0.00  0.00    +0.000 A 
ATOM      3  C   UNL     1     -11.102  -6.369  16.277  0.00  0.00    +0.000 A 
ATOM      4  C   UNL     1     -10.570  -5.483  15.356  0.00  0.00    +0.000 A 
ATOM      5  C   UNL     1      -9.343  -5.735  14.744  0.00  0.00    +0.000 A 
ATOM      6  C   UNL     1      -8.780  -7.013  14.747  0.00  0.00    +0.000 A 
ATOM      7  C   UNL     1      -9.404  -7.972  15.565  0.00  0.00    +0.000 A 
ATOM      8  C   UNL     1      -9.376  -9.351  15.877  0.00  0.00    +0.000 A 
ATOM      9  C   UNL     1      -9.440 -10.593  15.209  0.00  0.00    +0.000 A 
ATOM     10  C   UNL     1      -9.203 -11.755  15.946  0.00  0.00    +0.000 A 
ATOM     11  C   UNL     1      -8.673 -11.650  17.236  0.00  0.00    +0.000 A 
ATOM     12  C   UNL     1      -8.647 -10.423  17.906  0.00  0.00    +0.000 A 
ATOM     13  C   UNL     1      -9.264  -9.354  17.262  0.00  0.00    +0.000 A 
ATOM     14  H   UNL     1     -11.955  -6.119  16.898  0.00  0.00    +0.000 HD
ATOM     15  H   UNL     1      -7.817  -7.203  14.284  0.00  0.00    +0.000 HD
ATOM     16  H   UNL     1      -9.804 -10.646  14.190  0.00  0.00    +0.000 HD
ATOM     17  H   UNL     1      -9.386 -12.726  15.498  0.00  0.00    +0.000 HD
ENDROOT
BRANCH   1  19
ATOM     18  O   UNL     1      -9.253  -8.323  20.011  0.00  0.00    +0.000 OA
ATOM     19  S   UNL     1     -10.061  -7.491  19.156  0.00  0.00    +0.000 S 
ATOM     20  O   UNL     1     -11.498  -7.386  19.370  0.00  0.00    +0.000 OA
BRANCH  19  21
ATOM     21  C   UNL     1      -9.385  -5.872  19.232  0.00  0.00    +0.000 C 
ATOM     22  H   UNL     1      -9.761  -5.484  20.192  0.00  0.00    +0.000 HD
ATOM     23  H   UNL     1      -9.863  -5.275  18.452  0.00  0.00    +0.000 HD
BRANCH  21  24
ATOM     24  C   UNL     1      -7.884  -5.727  19.225  0.00  0.00    +0.000 A 
ATOM     25  C   UNL     1      -6.989  -6.231  18.276  0.00  0.00    +0.000 A 
ATOM     26  C   UNL     1      -5.614  -6.060  18.436  0.00  0.00    +0.000 A 
ATOM     27  C   UNL     1      -5.114  -5.407  19.573  0.00  0.00    +0.000 A 
ATOM     28  C   UNL     1      -5.985  -4.894  20.513  0.00  0.00    +0.000 A 
ATOM     29  C   UNL     1      -7.362  -5.055  20.338  0.00  0.00    +0.000 A 
ATOM     30  H   UNL     1      -7.307  -6.785  17.392  0.00  0.00    +0.000 HD
ATOM     31  H   UNL     1      -4.922  -6.457  17.703  0.00  0.00    +0.000 HD
ATOM     32  H   UNL     1      -4.037  -5.303  19.706  0.00  0.00    +0.000 HD
ATOM     33  H   UNL     1      -5.610  -4.383  21.392  0.00  0.00    +0.000 HD
ATOM     34  H   UNL     1      -8.031  -4.634  21.083  0.00  0.00    +0.000 HD
ENDBRANCH  21  24
ENDBRANCH  19  21
ENDBRANCH   1  19
BRANCH   4  35
ATOM     35  O   UNL     1     -11.181  -4.283  15.109  0.00  0.00    +0.000 OA
ATOM     36  H   UNL     1     -10.501  -3.697  14.730  0.00  0.00    +0.000 HD
ENDBRANCH   4  35
BRANCH   5  37
ATOM     37  O   UNL     1      -8.664  -4.693  14.175  0.00  0.00    +0.000 OA
ATOM     38  H   UNL     1      -8.026  -4.418  14.867  0.00  0.00    +0.000 HD
ENDBRANCH   5  37
BRANCH  11  39
ATOM     39  O   UNL     1      -8.209 -12.747  17.910  0.00  0.00    +0.000 OA
ATOM     40  H   UNL     1      -7.457 -12.476  18.457  0.00  0.00    +0.000 HD
ENDBRANCH  11  39
BRANCH  12  41
ATOM     41  O   UNL     1      -8.067 -10.332  19.130  0.00  0.00    +0.000 OA
ATOM     42  H   UNL     1      -7.143 -10.630  18.993  0.00  0.00    +0.000 HD
ENDBRANCH  12  41
TORSDOF 7
ENDMDL
MODEL 5
REMARK VINA RESULT:    -8.579      2.439      5.046
REMARK INTER + INTRA:         -11.236
REMARK INTER:                 -10.810
REMARK INTRA:                  -0.426
REMARK UNBOUND:                -0.149
REMARK  Name = 
REMARK  7 active torsions:
REMARK  status: ('A' for Active; 'I' for Inactive)
REMARK    1  A    between atoms: S_2  and  C_4
REMARK    2  A    between atoms: S_2  and  N_11
REMARK    3  A    between atoms: C_4  and  C_5
REMARK    4  A    between atoms: C_14  and  O_15
REMARK    5  A    between atoms: C_16  and  O_17
REMARK    6  A    between atoms: C_23  and  O_24
REMARK    7  A    between atoms: C_25  and  O_26
REMARK                            x       y       z     vdW  Elec       q    Type
REMARK                         _______ _______ _______ _____ _____    ______ ____
ROOT
ATOM      1  N   UNL     1     -10.618  -4.337  16.632  0.00  0.00    +0.000 N 
ATOM      2  C   UNL     1     -10.499  -3.966  15.299  0.00  0.00    +0.000 A 
ATOM      3  C   UNL     1      -9.972  -4.572  14.158  0.00  0.00    +0.000 A 
ATOM      4  C   UNL     1     -10.742  -4.394  13.022  0.00  0.00    +0.000 A 
ATOM      5  C   UNL     1     -11.932  -3.671  13.068  0.00  0.00    +0.000 A 
ATOM      6  C   UNL     1     -12.219  -2.812  14.131  0.00  0.00    +0.000 A 
ATOM      7  C   UNL     1     -11.352  -2.871  15.236  0.00  0.00    +0.000 A 
ATOM      8  C   UNL     1     -11.073  -2.225  16.463  0.00  0.00    +0.000 A 
ATOM      9  C   UNL     1     -10.804  -0.924  16.941  0.00  0.00    +0.000 A 
ATOM     10  C   UNL     1     -10.742  -0.725  18.322  0.00  0.00    +0.000 A 
ATOM     11  C   UNL     1     -11.186  -1.738  19.179  0.00  0.00    +0.000 A 
ATOM     12  C   UNL     1     -11.413  -3.033  18.705  0.00  0.00    +0.000 A 
ATOM     13  C   UNL     1     -11.079  -3.272  17.375  0.00  0.00    +0.000 A 
ATOM     14  H   UNL     1      -9.145  -5.272  14.197  0.00  0.00    +0.000 HD
ATOM     15  H   UNL     1     -13.153  -2.262  14.171  0.00  0.00    +0.000 HD
ATOM     16  H   UNL     1     -10.513  -0.139  16.254  0.00  0.00    +0.000 HD
ATOM     17  H   UNL     1     -10.397   0.225  18.716  0.00  0.00    +0.000 HD
ENDROOT
BRANCH   1  19
ATOM     18  O   UNL     1     -11.729  -6.546  16.458  0.00  0.00    +0.000 OA
ATOM     19  S   UNL     1     -10.544  -5.974  17.046  0.00  0.00    +0.000 S 
ATOM     20  O   UNL     1     -10.376  -5.946  18.493  0.00  0.00    +0.000 OA
BRANCH  19  21
ATOM     21  C   UNL     1      -9.172  -6.828  16.361  0.00  0.00    +0.000 C 
ATOM     22  H   UNL     1      -8.324  -6.484  16.977  0.00  0.00    +0.000 HD
ATOM     23  H   UNL     1      -9.001  -6.432  15.357  0.00  0.00    +0.000 HD
BRANCH  21  24
ATOM     24  C   UNL     1      -9.187  -8.336  16.387  0.00  0.00    +0.000 A 
ATOM     25  C   UNL     1      -9.202  -9.163  17.514  0.00  0.00    +0.000 A 
ATOM     26  C   UNL     1      -9.159 -10.550  17.376  0.00  0.00    +0.000 A 
ATOM     27  C   UNL     1      -9.066 -11.129  16.102  0.00  0.00    +0.000 A 
ATOM     28  C   UNL     1      -9.061 -10.327  14.979  0.00  0.00    +0.000 A 
ATOM     29  C   UNL     1      -9.121  -8.937  15.122  0.00  0.00    +0.000 A 
ATOM     30  H   UNL     1      -9.230  -8.779  18.534  0.00  0.00    +0.000 HD
ATOM     31  H   UNL     1      -9.164 -11.190  18.252  0.00  0.00    +0.000 HD
ATOM     32  H   UNL     1      -9.003 -12.213  16.003  0.00  0.00    +0.000 HD
ATOM     33  H   UNL     1      -8.996 -10.763  13.989  0.00  0.00    +0.000 HD
ATOM     34  H   UNL     1      -9.128  -8.324  14.227  0.00  0.00    +0.000 HD
ENDBRANCH  21  24
ENDBRANCH  19  21
ENDBRANCH   1  19
BRANCH   4  35
ATOM     35  O   UNL     1     -10.411  -5.021  11.850  0.00  0.00    +0.000 OA
ATOM     36  H   UNL     1     -11.248  -5.227  11.398  0.00  0.00    +0.000 HD
ENDBRANCH   4  35
BRANCH   5  37
ATOM     37  O   UNL     1     -12.851  -3.851  12.071  0.00  0.00    +0.000 OA
ATOM     38  H   UNL     1     -12.311  -4.092  11.290  0.00  0.00    +0.000 HD
ENDBRANCH   5  37
BRANCH  11  39
ATOM     39  O   UNL     1     -11.363  -1.515  20.518  0.00  0.00    +0.000 OA
ATOM     40  H   UNL     1     -10.532  -1.710  20.974  0.00  0.00    +0.000 HD
ENDBRANCH  11  39
BRANCH  12  41
ATOM     41  O   UNL     1     -11.908  -3.982  19.540  0.00  0.00    +0.000 OA
ATOM     42  H   UNL     1     -11.699  -3.659  20.441  0.00  0.00    +0.000 HD
ENDBRANCH  12  41
TORSDOF 7
ENDMDL
MODEL 6
REMARK VINA RESULT:    -8.204      3.345      5.735
REMARK INTER + INTRA:         -10.751
REMARK INTER:                 -10.772
REMARK INTRA:                   0.021
REMARK UNBOUND:                -0.149
REMARK  Name = 
REMARK  7 active torsions:
REMARK  status: ('A' for Active; 'I' for Inactive)
REMARK    1  A    between atoms: S_2  and  C_4
REMARK    2  A    between atoms: S_2  and  N_11
REMARK    3  A    between atoms: C_4  and  C_5
REMARK    4  A    between atoms: C_14  and  O_15
REMARK    5  A    between atoms: C_16  and  O_17
REMARK    6  A    between atoms: C_23  and  O_24
REMARK    7  A    between atoms: C_25  and  O_26
REMARK                            x       y       z     vdW  Elec       q    Type
REMARK                         _______ _______ _______ _____ _____    ______ ____
ROOT
ATOM      1  N   UNL     1      -8.256  -4.345  19.615  0.00  0.00    +0.000 N 
ATOM      2  C   UNL     1      -8.765  -3.225  20.260  0.00  0.00    +0.000 A 
ATOM      3  C   UNL     1      -9.830  -2.357  20.019  0.00  0.00    +0.000 A 
ATOM      4  C   UNL     1     -10.533  -2.001  21.157  0.00  0.00    +0.000 A 
ATOM      5  C   UNL     1     -10.172  -2.500  22.408  0.00  0.00    +0.000 A 
ATOM      6  C   UNL     1      -8.916  -3.067  22.628  0.00  0.00    +0.000 A 
ATOM      7  C   UNL     1      -8.122  -3.295  21.490  0.00  0.00    +0.000 A 
ATOM      8  C   UNL     1      -6.822  -3.701  21.107  0.00  0.00    +0.000 A 
ATOM      9  C   UNL     1      -5.480  -3.354  21.373  0.00  0.00    +0.000 A 
ATOM     10  C   UNL     1      -4.470  -4.173  20.862  0.00  0.00    +0.000 A 
ATOM     11  C   UNL     1      -4.807  -5.422  20.329  0.00  0.00    +0.000 A 
ATOM     12  C   UNL     1      -6.135  -5.743  20.034  0.00  0.00    +0.000 A 
ATOM     13  C   UNL     1      -7.070  -4.727  20.203  0.00  0.00    +0.000 A 
ATOM     14  H   UNL     1     -10.188  -2.135  19.020  0.00  0.00    +0.000 HD
ATOM     15  H   UNL     1      -8.644  -3.468  23.599  0.00  0.00    +0.000 HD
ATOM     16  H   UNL     1      -5.243  -2.403  21.834  0.00  0.00    +0.000 HD
ATOM     17  H   UNL     1      -3.434  -3.857  20.924  0.00  0.00    +0.000 HD
ENDROOT
BRANCH   1  19
ATOM     18  O   UNL     1      -8.390  -5.524  17.438  0.00  0.00    +0.000 OA
ATOM     19  S   UNL     1      -9.247  -5.211  18.554  0.00  0.00    +0.000 S 
ATOM     20  O   UNL     1     -10.397  -4.335  18.381  0.00  0.00    +0.000 OA
BRANCH  19  21
ATOM     21  C   UNL     1      -9.826  -6.740  19.196  0.00  0.00    +0.000 C 
ATOM     22  H   UNL     1     -10.877  -6.527  19.449  0.00  0.00    +0.000 HD
ATOM     23  H   UNL     1      -9.313  -6.917  20.144  0.00  0.00    +0.000 HD
BRANCH  21  24
ATOM     24  C   UNL     1      -9.797  -7.947  18.294  0.00  0.00    +0.000 A 
ATOM     25  C   UNL     1     -10.515  -8.136  17.110  0.00  0.00    +0.000 A 
ATOM     26  C   UNL     1     -10.424  -9.339  16.409  0.00  0.00    +0.000 A 
ATOM     27  C   UNL     1      -9.633 -10.385  16.906  0.00  0.00    +0.000 A 
ATOM     28  C   UNL     1      -8.909 -10.210  18.068  0.00  0.00    +0.000 A 
ATOM     29  C   UNL     1      -8.992  -8.997  18.757  0.00  0.00    +0.000 A 
ATOM     30  H   UNL     1     -11.181  -7.382  16.690  0.00  0.00    +0.000 HD
ATOM     31  H   UNL     1     -10.987  -9.486  15.494  0.00  0.00    +0.000 HD
ATOM     32  H   UNL     1      -9.589 -11.333  16.368  0.00  0.00    +0.000 HD
ATOM     33  H   UNL     1      -8.290 -11.010  18.458  0.00  0.00    +0.000 HD
ATOM     34  H   UNL     1      -8.406  -8.875  19.663  0.00  0.00    +0.000 HD
ENDBRANCH  21  24
ENDBRANCH  19  21
ENDBRANCH   1  19
BRANCH   4  35
ATOM     35  O   UNL     1     -11.669  -1.243  21.066  0.00  0.00    +0.000 OA
ATOM     36  H   UNL     1     -12.023  -1.161  21.970  0.00  0.00    +0.000 HD
ENDBRANCH   4  35
BRANCH   5  37
ATOM     37  O   UNL     1     -11.093  -2.471  23.418  0.00  0.00    +0.000 OA
ATOM     38  H   UNL     1     -10.940  -1.607  23.856  0.00  0.00    +0.000 HD
ENDBRANCH   5  37
BRANCH  11  39
ATOM     39  O   UNL     1      -3.850  -6.353  20.029  0.00  0.00    +0.000 OA
ATOM     40  H   UNL     1      -3.123  -6.260  20.661  0.00  0.00    +0.000 HD
ENDBRANCH  11  39
BRANCH  12  41
ATOM     41  O   UNL     1      -6.446  -6.985  19.582  0.00  0.00    +0.000 OA
ATOM     42  H   UNL     1      -6.144  -6.997  18.649  0.00  0.00    +0.000 HD
ENDBRANCH  12  41
TORSDOF 7
ENDMDL
MODEL 7
REMARK VINA RESULT:    -8.025      3.570      4.734
REMARK INTER + INTRA:         -10.519
REMARK INTER:                 -10.373
REMARK INTRA:                  -0.147
REMARK UNBOUND:                -0.149
REMARK  Name = 
REMARK  7 active torsions:
REMARK  status: ('A' for Active; 'I' for Inactive)
REMARK    1  A    between atoms: S_2  and  C_4
REMARK    2  A    between atoms: S_2  and  N_11
REMARK    3  A    between atoms: C_4  and  C_5
REMARK    4  A    between atoms: C_14  and  O_15
REMARK    5  A    between atoms: C_16  and  O_17
REMARK    6  A    between atoms: C_23  and  O_24
REMARK    7  A    between atoms: C_25  and  O_26
REMARK                            x       y       z     vdW  Elec       q    Type
REMARK                         _______ _______ _______ _____ _____    ______ ____
ROOT
ATOM      1  N   UNL     1     -10.592  -4.614  16.603  0.00  0.00    +0.000 N 
ATOM      2  C   UNL     1     -10.888  -3.615  17.521  0.00  0.00    +0.000 A 
ATOM      3  C   UNL     1     -11.137  -3.591  18.894  0.00  0.00    +0.000 A 
ATOM      4  C   UNL     1     -10.541  -2.530  19.554  0.00  0.00    +0.000 A 
ATOM      5  C   UNL     1      -9.766  -1.599  18.863  0.00  0.00    +0.000 A 
ATOM      6  C   UNL     1      -9.844  -1.479  17.474  0.00  0.00    +0.000 A 
ATOM      7  C   UNL     1     -10.578  -2.469  16.798  0.00  0.00    +0.000 A 
ATOM      8  C   UNL     1     -11.074  -2.802  15.516  0.00  0.00    +0.000 A 
ATOM      9  C   UNL     1     -11.855  -2.218  14.495  0.00  0.00    +0.000 A 
ATOM     10  C   UNL     1     -11.963  -2.891  13.276  0.00  0.00    +0.000 A 
ATOM     11  C   UNL     1     -11.113  -3.971  13.014  0.00  0.00    +0.000 A 
ATOM     12  C   UNL     1     -10.372  -4.568  14.038  0.00  0.00    +0.000 A 
ATOM     13  C   UNL     1     -10.605  -4.096  15.326  0.00  0.00    +0.000 A 
ATOM     14  H   UNL     1     -11.590  -4.423  19.421  0.00  0.00    +0.000 HD
ATOM     15  H   UNL     1      -9.228  -0.764  16.938  0.00  0.00    +0.000 HD
ATOM     16  H   UNL     1     -12.467  -1.349  14.705  0.00  0.00    +0.000 HD
ATOM     17  H   UNL     1     -12.667  -2.543  12.528  0.00  0.00    +0.000 HD
ENDROOT
BRANCH   1  19
ATOM     18  O   UNL     1      -8.767  -6.274  16.364  0.00  0.00    +0.000 OA
ATOM     19  S   UNL     1      -9.958  -6.082  17.151  0.00  0.00    +0.000 S 
ATOM     20  O   UNL     1     -11.083  -6.999  17.027  0.00  0.00    +0.000 OA
BRANCH  19  21
ATOM     21  C   UNL     1      -9.460  -6.066  18.835  0.00  0.00    +0.000 C 
ATOM     22  H   UNL     1      -9.643  -7.101  19.165  0.00  0.00    +0.000 HD
ATOM     23  H   UNL     1     -10.166  -5.440  19.385  0.00  0.00    +0.000 HD
BRANCH  21  24
ATOM     24  C   UNL     1      -8.026  -5.723  19.149  0.00  0.00    +0.000 A 
ATOM     25  C   UNL     1      -6.881  -6.185  18.493  0.00  0.00    +0.000 A 
ATOM     26  C   UNL     1      -5.611  -5.818  18.937  0.00  0.00    +0.000 A 
ATOM     27  C   UNL     1      -5.469  -5.005  20.072  0.00  0.00    +0.000 A 
ATOM     28  C   UNL     1      -6.590  -4.531  20.724  0.00  0.00    +0.000 A 
ATOM     29  C   UNL     1      -7.860  -4.890  20.264  0.00  0.00    +0.000 A 
ATOM     30  H   UNL     1      -6.917  -6.853  17.632  0.00  0.00    +0.000 HD
ATOM     31  H   UNL     1      -4.724  -6.183  18.430  0.00  0.00    +0.000 HD
ATOM     32  H   UNL     1      -4.473  -4.747  20.431  0.00  0.00    +0.000 HD
ATOM     33  H   UNL     1      -6.493  -3.898  21.598  0.00  0.00    +0.000 HD
ATOM     34  H   UNL     1      -8.729  -4.497  20.784  0.00  0.00    +0.000 HD
ENDBRANCH  21  24
ENDBRANCH  19  21
ENDBRANCH   1  19
BRANCH   4  35
ATOM     35  O   UNL     1     -10.605  -2.432  20.918  0.00  0.00    +0.000 OA
ATOM     36  H   UNL     1     -10.318  -1.530  21.147  0.00  0.00    +0.000 HD
ENDBRANCH   4  35
BRANCH   5  37
ATOM     37  O   UNL     1      -8.881  -0.828  19.565  0.00  0.00    +0.000 OA
ATOM     38  H   UNL     1      -8.084  -1.392  19.644  0.00  0.00    +0.000 HD
ENDBRANCH   5  37
BRANCH  11  39
ATOM     39  O   UNL     1     -11.014  -4.516  11.763  0.00  0.00    +0.000 OA
ATOM     40  H   UNL     1     -10.228  -4.152  11.331  0.00  0.00    +0.000 HD
ENDBRANCH  11  39
BRANCH  12  41
ATOM     41  O   UNL     1      -9.503  -5.570  13.749  0.00  0.00    +0.000 OA
ATOM     42  H   UNL     1      -8.810  -5.151  13.196  0.00  0.00    +0.000 HD
ENDBRANCH  12  41
TORSDOF 7
ENDMDL
MODEL 8
REMARK VINA RESULT:    -7.752      4.979      8.204
REMARK INTER + INTRA:         -10.167
REMARK INTER:                  -9.885
REMARK INTRA:                  -0.282
REMARK UNBOUND:                -0.149
REMARK  Name = 
REMARK  7 active torsions:
REMARK  status: ('A' for Active; 'I' for Inactive)
REMARK    1  A    between atoms: S_2  and  C_4
REMARK    2  A    between atoms: S_2  and  N_11
REMARK    3  A    between atoms: C_4  and  C_5
REMARK    4  A    between atoms: C_14  and  O_15
REMARK    5  A    between atoms: C_16  and  O_17
REMARK    6  A    between atoms: C_23  and  O_24
REMARK    7  A    between atoms: C_25  and  O_26
REMARK                            x       y       z     vdW  Elec       q    Type
REMARK                         _______ _______ _______ _____ _____    ______ ____
ROOT
ATOM      1  N   UNL     1      -8.870  -2.829  21.070  0.00  0.00    +0.000 N 
ATOM      2  C   UNL     1      -8.218  -4.006  20.724  0.00  0.00    +0.000 A 
ATOM      3  C   UNL     1      -8.308  -4.895  19.653  0.00  0.00    +0.000 A 
ATOM      4  C   UNL     1      -7.082  -5.348  19.195  0.00  0.00    +0.000 A 
ATOM      5  C   UNL     1      -5.894  -4.918  19.782  0.00  0.00    +0.000 A 
ATOM      6  C   UNL     1      -5.882  -4.320  21.045  0.00  0.00    +0.000 A 
ATOM      7  C   UNL     1      -7.134  -3.992  21.594  0.00  0.00    +0.000 A 
ATOM      8  C   UNL     1      -7.733  -3.515  22.783  0.00  0.00    +0.000 A 
ATOM      9  C   UNL     1      -7.758  -3.829  24.160  0.00  0.00    +0.000 A 
ATOM     10  C   UNL     1      -8.397  -2.944  25.030  0.00  0.00    +0.000 A 
ATOM     11  C   UNL     1      -8.766  -1.676  24.566  0.00  0.00    +0.000 A 
ATOM     12  C   UNL     1      -8.774  -1.385  23.199  0.00  0.00    +0.000 A 
ATOM     13  C   UNL     1      -8.498  -2.444  22.340  0.00  0.00    +0.000 A 
ATOM     14  H   UNL     1      -9.230  -5.066  19.110  0.00  0.00    +0.000 HD
ATOM     15  H   UNL     1      -4.957  -3.973  21.492  0.00  0.00    +0.000 HD
ATOM     16  H   UNL     1      -7.419  -4.799  24.505  0.00  0.00    +0.000 HD
ATOM     17  H   UNL     1      -8.559  -3.225  26.065  0.00  0.00    +0.000 HD
ENDROOT
BRANCH   1  19
ATOM     18  O   UNL     1      -8.878  -0.726  19.759  0.00  0.00    +0.000 OA
ATOM     19  S   UNL     1      -9.655  -1.934  19.871  0.00  0.00    +0.000 S 
ATOM     20  O   UNL     1     -11.034  -1.886  20.339  0.00  0.00    +0.000 OA
BRANCH  19  21
ATOM     21  C   UNL     1      -9.650  -2.693  18.287  0.00  0.00    +0.000 C 
ATOM     22  H   UNL     1      -9.940  -3.735  18.503  0.00  0.00    +0.000 HD
ATOM     23  H   UNL     1      -8.615  -2.730  17.939  0.00  0.00    +0.000 HD
BRANCH  21  24
ATOM     24  C   UNL     1     -10.588  -2.155  17.237  0.00  0.00    +0.000 A 
ATOM     25  C   UNL     1     -11.927  -2.507  17.038  0.00  0.00    +0.000 A 
ATOM     26  C   UNL     1     -12.655  -1.958  15.982  0.00  0.00    +0.000 A 
ATOM     27  C   UNL     1     -12.038  -1.071  15.088  0.00  0.00    +0.000 A 
ATOM     28  C   UNL     1     -10.721  -0.705  15.277  0.00  0.00    +0.000 A 
ATOM     29  C   UNL     1     -10.001  -1.246  16.346  0.00  0.00    +0.000 A 
ATOM     30  H   UNL     1     -12.455  -3.221  17.669  0.00  0.00    +0.000 HD
ATOM     31  H   UNL     1     -13.691  -2.237  15.826  0.00  0.00    +0.000 HD
ATOM     32  H   UNL     1     -12.605  -0.669  14.248  0.00  0.00    +0.000 HD
ATOM     33  H   UNL     1     -10.236  -0.016  14.596  0.00  0.00    +0.000 HD
ATOM     34  H   UNL     1      -8.969  -0.937  16.485  0.00  0.00    +0.000 HD
ENDBRANCH  21  24
ENDBRANCH  19  21
ENDBRANCH   1  19
BRANCH   4  35
ATOM     35  O   UNL     1      -7.003  -6.140  18.081  0.00  0.00    +0.000 OA
ATOM     36  H   UNL     1      -7.480  -5.673  17.372  0.00  0.00    +0.000 HD
ENDBRANCH   4  35
BRANCH   5  37
ATOM     37  O   UNL     1      -4.728  -5.045  19.079  0.00  0.00    +0.000 OA
ATOM     38  H   UNL     1      -4.900  -4.564  18.243  0.00  0.00    +0.000 HD
ENDBRANCH   5  37
BRANCH  11  39
ATOM     39  O   UNL     1      -9.180  -0.694  25.424  0.00  0.00    +0.000 OA
ATOM     40  H   UNL     1      -8.596  -0.693  26.196  0.00  0.00    +0.000 HD
ENDBRANCH  11  39
BRANCH  12  41
ATOM     41  O   UNL     1      -9.070  -0.129  22.777  0.00  0.00    +0.000 OA
ATOM     42  H   UNL     1     -10.046  -0.068  22.830  0.00  0.00    +0.000 HD
ENDBRANCH  12  41
TORSDOF 7
ENDMDL
MODEL 9
REMARK VINA RESULT:    -7.667      6.084      9.979
REMARK INTER + INTRA:         -10.056
REMARK INTER:                  -9.742
REMARK INTRA:                  -0.315
REMARK UNBOUND:                -0.149
REMARK  Name = 
REMARK  7 active torsions:
REMARK  status: ('A' for Active; 'I' for Inactive)
REMARK    1  A    between atoms: S_2  and  C_4
REMARK    2  A    between atoms: S_2  and  N_11
REMARK    3  A    between atoms: C_4  and  C_5
REMARK    4  A    between atoms: C_14  and  O_15
REMARK    5  A    between atoms: C_16  and  O_17
REMARK    6  A    between atoms: C_23  and  O_24
REMARK    7  A    between atoms: C_25  and  O_26
REMARK                            x       y       z     vdW  Elec       q    Type
REMARK                         _______ _______ _______ _____ _____    ______ ____
ROOT
ATOM      1  N   UNL     1      -8.781  -2.011  21.673  0.00  0.00    +0.000 N 
ATOM      2  C   UNL     1      -8.366  -1.563  22.921  0.00  0.00    +0.000 A 
ATOM      3  C   UNL     1      -8.565  -0.394  23.656  0.00  0.00    +0.000 A 
ATOM      4  C   UNL     1      -8.793  -0.611  25.004  0.00  0.00    +0.000 A 
ATOM      5  C   UNL     1      -8.818  -1.902  25.528  0.00  0.00    +0.000 A 
ATOM      6  C   UNL     1      -8.275  -2.981  24.828  0.00  0.00    +0.000 A 
ATOM      7  C   UNL     1      -7.894  -2.736  23.496  0.00  0.00    +0.000 A 
ATOM      8  C   UNL     1      -7.234  -3.342  22.402  0.00  0.00    +0.000 A 
ATOM      9  C   UNL     1      -6.005  -3.978  22.123  0.00  0.00    +0.000 A 
ATOM     10  C   UNL     1      -5.843  -4.590  20.878  0.00  0.00    +0.000 A 
ATOM     11  C   UNL     1      -6.960  -4.774  20.057  0.00  0.00    +0.000 A 
ATOM     12  C   UNL     1      -8.163  -4.111  20.318  0.00  0.00    +0.000 A 
ATOM     13  C   UNL     1      -8.149  -3.196  21.367  0.00  0.00    +0.000 A 
ATOM     14  H   UNL     1      -8.717   0.572  23.188  0.00  0.00    +0.000 HD
ATOM     15  H   UNL     1      -8.310  -3.987  25.232  0.00  0.00    +0.000 HD
ATOM     16  H   UNL     1      -5.166  -3.865  22.800  0.00  0.00    +0.000 HD
ATOM     17  H   UNL     1      -4.867  -4.958  20.580  0.00  0.00    +0.000 HD
ENDROOT
BRANCH   1  19
ATOM     18  O   UNL     1     -10.707  -2.365  20.153  0.00  0.00    +0.000 OA
ATOM     19  S   UNL     1     -10.138  -1.308  20.949  0.00  0.00    +0.000 S 
ATOM     20  O   UNL     1      -9.597  -0.113  20.316  0.00  0.00    +0.000 OA
BRANCH  19  21
ATOM     21  C   UNL     1     -11.377  -0.801  22.086  0.00  0.00    +0.000 C 
ATOM     22  H   UNL     1     -10.927  -1.020  23.068  0.00  0.00    +0.000 HD
ATOM     23  H   UNL     1     -12.225  -1.482  21.979  0.00  0.00    +0.000 HD
BRANCH  21  24
ATOM     24  C   UNL     1     -11.800   0.646  22.078  0.00  0.00    +0.000 A 
ATOM     25  C   UNL     1     -11.338   1.667  22.914  0.00  0.00    +0.000 A 
ATOM     26  C   UNL     1     -11.868   2.954  22.821  0.00  0.00    +0.000 A 
ATOM     27  C   UNL     1     -12.897   3.228  21.908  0.00  0.00    +0.000 A 
ATOM     28  C   UNL     1     -13.357   2.233  21.069  0.00  0.00    +0.000 A 
ATOM     29  C   UNL     1     -12.810   0.949  21.155  0.00  0.00    +0.000 A 
ATOM     30  H   UNL     1     -10.572   1.514  23.674  0.00  0.00    +0.000 HD
ATOM     31  H   UNL     1     -11.513   3.743  23.475  0.00  0.00    +0.000 HD
ATOM     32  H   UNL     1     -13.327   4.228  21.862  0.00  0.00    +0.000 HD
ATOM     33  H   UNL     1     -14.147   2.434  20.355  0.00  0.00    +0.000 HD
ATOM     34  H   UNL     1     -13.177   0.183  20.478  0.00  0.00    +0.000 HD
ENDBRANCH  21  24
ENDBRANCH  19  21
ENDBRANCH   1  19
BRANCH   4  35
ATOM     35  O   UNL     1      -9.113   0.430  25.833  0.00  0.00    +0.000 OA
ATOM     36  H   UNL     1     -10.075   0.562  25.758  0.00  0.00    +0.000 HD
ENDBRANCH   4  35
BRANCH   5  37
ATOM     37  O   UNL     1      -9.432  -2.112  26.732  0.00  0.00    +0.000 OA
ATOM     38  H   UNL     1     -10.249  -1.572  26.681  0.00  0.00    +0.000 HD
ENDBRANCH   5  37
BRANCH  11  39
ATOM     39  O   UNL     1      -6.905  -5.564  18.941  0.00  0.00    +0.000 OA
ATOM     40  H   UNL     1      -6.158  -5.276  18.397  0.00  0.00    +0.000 HD
ENDBRANCH  11  39
BRANCH  12  41
ATOM     41  O   UNL     1      -9.253  -4.358  19.548  0.00  0.00    +0.000 OA
ATOM     42  H   UNL     1      -8.891  -4.625  18.677  0.00  0.00    +0.000 HD
ENDBRANCH  12  41
TORSDOF 7
ENDMDL
