MODEL 1
REMARK VINA RESULT:   -11.820      0.000      0.000
REMARK INTER + INTRA:         -17.904
REMARK INTER:                 -17.003
REMARK INTRA:                  -0.902
REMARK UNBOUND:                -0.902
REMARK  Name = 
REMARK  8 active torsions:
REMARK  status: ('A' for Active; 'I' for Inactive)
REMARK    1  A    between atoms: N_1  and  C_2
REMARK    2  A    between atoms: C_2  and  C_3
REMARK    3  A    between atoms: C_2  and  C_20
REMARK    4  A    between atoms: C_3  and  O_4
REMARK    5  A    between atoms: O_4  and  C_5
REMARK    6  A    between atoms: C_9  and  C_10
REMARK    7  A    between atoms: C_20  and  C_21
REMARK    8  A    between atoms: C_25  and  C_26
REMARK                            x       y       z     vdW  Elec       q    Type
REMARK                         _______ _______ _______ _____ _____    ______ ____
ROOT
ATOM      1  C   UNL     1      -8.629  -5.904  18.250  0.00  0.00    +0.000 C 
ATOM      2  H   UNL     1      -8.468  -5.846  17.165  0.00  0.00    +0.000 HD
ATOM      3  H   UNL     1      -8.956  -4.923  18.611  0.00  0.00    +0.000 HD
ENDROOT
BRANCH   1   4
ATOM      4  C   UNL     1      -9.731  -6.945  18.549  0.00  0.00    +0.000 C 
ATOM      5  H   UNL     1      -9.462  -7.460  19.479  0.00  0.00    +0.000 HD
BRANCH   4   6
ATOM      6  N   UNL     1     -11.017  -6.261  18.795  0.00  0.00    +0.000 NA
ATOM      7  H   UNL     1     -10.941  -5.276  18.546  0.00  0.00    +0.000 HD
ATOM      8  H   UNL     1     -11.220  -6.294  19.795  0.00  0.00    +0.000 HD
ENDBRANCH   4   6
BRANCH   4   9
ATOM      9  C   UNL     1      -9.877  -7.975  17.405  0.00  0.00    +0.000 C 
ATOM     10  H   UNL     1      -9.407  -7.588  16.491  0.00  0.00    +0.000 HD
ATOM     11  H   UNL     1     -10.940  -8.102  17.155  0.00  0.00    +0.000 HD
BRANCH   9  12
ATOM     12  C   UNL     1      -9.319  -9.343  17.729  0.00  0.00    +0.000 A 
ATOM     13  C   UNL     1      -8.869  -9.631  19.024  0.00  0.00    +0.000 A 
ATOM     14  C   UNL     1      -8.341 -10.885  19.331  0.00  0.00    +0.000 A 
ATOM     15  C   UNL     1      -8.252 -11.867  18.344  0.00  0.00    +0.000 A 
ATOM     16  C   UNL     1      -8.691 -11.604  17.040  0.00  0.00    +0.000 A 
ATOM     17  C   UNL     1      -9.228 -10.338  16.744  0.00  0.00    +0.000 A 
ATOM     18  H   UNL     1      -8.927  -8.879  19.810  0.00  0.00    +0.000 HD
ATOM     19  H   UNL     1      -7.994 -11.096  20.339  0.00  0.00    +0.000 HD
ATOM     20  H   UNL     1      -7.833 -12.839  18.599  0.00  0.00    +0.000 HD
ATOM     21  H   UNL     1      -9.568 -10.131  15.730  0.00  0.00    +0.000 HD
BRANCH  16  22
ATOM     22  C   UNL     1      -8.582 -12.648  15.958  0.00  0.00    +0.000 C 
ATOM     23  F   UNL     1      -8.870 -13.911  16.383  0.00  0.00    +0.000 F 
ATOM     24  F   UNL     1      -9.422 -12.408  14.913  0.00  0.00    +0.000 F 
ATOM     25  F   UNL     1      -7.332 -12.713  15.422  0.00  0.00    +0.000 F 
ENDBRANCH  16  22
ENDBRANCH   9  12
ENDBRANCH   4   9
ENDBRANCH   1   4
BRANCH   1  26
ATOM     26  O   UNL     1      -7.415  -6.291  18.903  0.00  0.00    +0.000 OA
BRANCH  26  27
ATOM     27  C   UNL     1      -6.892  -5.397  19.790  0.00  0.00    +0.000 A 
ATOM     28  C   UNL     1      -5.508  -5.272  19.784  0.00  0.00    +0.000 A 
ATOM     29  N   UNL     1      -4.810  -4.446  20.593  0.00  0.00    +0.000 NA
ATOM     30  C   UNL     1      -5.542  -3.714  21.466  0.00  0.00    +0.000 A 
ATOM     31  C   UNL     1      -6.934  -3.747  21.572  0.00  0.00    +0.000 A 
ATOM     32  C   UNL     1      -7.604  -4.617  20.700  0.00  0.00    +0.000 A 
ATOM     33  H   UNL     1      -4.903  -5.861  19.100  0.00  0.00    +0.000 HD
ATOM     34  H   UNL     1      -4.938  -3.096  22.124  0.00  0.00    +0.000 HD
ATOM     35  H   UNL     1      -8.687  -4.676  20.768  0.00  0.00    +0.000 HD
BRANCH  31  36
ATOM     36  C   UNL     1      -7.651  -2.964  22.593  0.00  0.00    +0.000 A 
ATOM     37  C   UNL     1      -7.663  -1.569  22.584  0.00  0.00    +0.000 A 
ATOM     38  C   UNL     1      -8.199  -0.933  23.710  0.00  0.00    +0.000 A 
ATOM     39  C   UNL     1      -8.358   0.396  24.152  0.00  0.00    +0.000 A 
ATOM     40  N   UNL     1      -8.898   0.468  25.373  0.00  0.00    +0.000 NA
ATOM     41  N   UNL     1      -9.095  -0.821  25.707  0.00  0.00    +0.000 N 
ATOM     42  C   UNL     1      -8.721  -1.708  24.734  0.00  0.00    +0.000 A 
ATOM     43  C   UNL     1      -8.777  -3.087  24.661  0.00  0.00    +0.000 A 
ATOM     44  N   UNL     1      -8.231  -3.700  23.584  0.00  0.00    +0.000 NA
ATOM     45  H   UNL     1      -7.240  -0.992  21.770  0.00  0.00    +0.000 HD
ATOM     46  H   UNL     1      -8.090   1.311  23.642  0.00  0.00    +0.000 HD
ATOM     47  H   UNL     1      -9.470  -1.026  26.625  0.00  0.00    +0.000 HD
ATOM     48  H   UNL     1      -9.207  -3.721  25.427  0.00  0.00    +0.000 HD
ENDBRANCH  31  36
ENDBRANCH  26  27
ENDBRANCH   1  26
TORSDOF 8
ENDMDL
MODEL 2
REMARK VINA RESULT:   -11.783      1.751      2.286
REMARK INTER + INTRA:         -17.851
REMARK INTER:                 -16.995
REMARK INTRA:                  -0.856
REMARK UNBOUND:                -0.902
REMARK  Name = 
REMARK  8 active torsions:
REMARK  status: ('A' for Active; 'I' for Inactive)
REMARK    1  A    between atoms: N_1  and  C_2
REMARK    2  A    between atoms: C_2  and  C_3
REMARK    3  A    between atoms: C_2  and  C_20
REMARK    4  A    between atoms: C_3  and  O_4
REMARK    5  A    between atoms: O_4  and  C_5
REMARK    6  A    between atoms: C_9  and  C_10
REMARK    7  A    between atoms: C_20  and  C_21
REMARK    8  A    between atoms: C_25  and  C_26
REMARK                            x       y       z     vdW  Elec       q    Type
REMARK                         _______ _______ _______ _____ _____    ______ ____
ROOT
ATOM      1  C   UNL     1      -8.481  -6.759  17.844  0.00  0.00    +0.000 C 
ATOM      2  H   UNL     1      -8.817  -6.622  16.807  0.00  0.00    +0.000 HD
ATOM      3  H   UNL     1      -9.010  -6.045  18.484  0.00  0.00    +0.000 HD
ENDROOT
BRANCH   1   4
ATOM      4  C   UNL     1      -8.818  -8.194  18.306  0.00  0.00    +0.000 C 
ATOM      5  H   UNL     1      -7.879  -8.756  18.366  0.00  0.00    +0.000 HD
BRANCH   4   6
ATOM      6  N   UNL     1      -9.389  -8.166  19.668  0.00  0.00    +0.000 NA
ATOM      7  H   UNL     1      -9.027  -7.362  20.180  0.00  0.00    +0.000 HD
ATOM      8  H   UNL     1      -9.075  -8.996  20.172  0.00  0.00    +0.000 HD
ENDBRANCH   4   6
BRANCH   4   9
ATOM      9  C   UNL     1      -9.787  -8.902  17.330  0.00  0.00    +0.000 C 
ATOM     10  H   UNL     1      -9.986  -8.253  16.466  0.00  0.00    +0.000 HD
ATOM     11  H   UNL     1     -10.762  -9.047  17.816  0.00  0.00    +0.000 HD
BRANCH   9  12
ATOM     12  C   UNL     1      -9.309 -10.256  16.856  0.00  0.00    +0.000 A 
ATOM     13  C   UNL     1      -9.013 -10.465  15.502  0.00  0.00    +0.000 A 
ATOM     14  C   UNL     1      -8.583 -11.712  15.052  0.00  0.00    +0.000 A 
ATOM     15  C   UNL     1      -8.446 -12.771  15.950  0.00  0.00    +0.000 A 
ATOM     16  C   UNL     1      -8.739 -12.591  17.308  0.00  0.00    +0.000 A 
ATOM     17  C   UNL     1      -9.166 -11.326  17.751  0.00  0.00    +0.000 A 
ATOM     18  H   UNL     1      -9.114  -9.652  14.782  0.00  0.00    +0.000 HD
ATOM     19  H   UNL     1      -8.357 -11.861  13.999  0.00  0.00    +0.000 HD
ATOM     20  H   UNL     1      -8.114 -13.740  15.581  0.00  0.00    +0.000 HD
ATOM     21  H   UNL     1      -9.397 -11.185  18.807  0.00  0.00    +0.000 HD
BRANCH  16  22
ATOM     22  C   UNL     1      -8.616 -13.731  18.287  0.00  0.00    +0.000 C 
ATOM     23  F   UNL     1      -9.521 -13.680  19.305  0.00  0.00    +0.000 F 
ATOM     24  F   UNL     1      -8.788 -14.947  17.698  0.00  0.00    +0.000 F 
ATOM     25  F   UNL     1      -7.391 -13.776  18.882  0.00  0.00    +0.000 F 
ENDBRANCH  16  22
ENDBRANCH   9  12
ENDBRANCH   4   9
ENDBRANCH   1   4
BRANCH   1  26
ATOM     26  O   UNL     1      -7.068  -6.548  17.931  0.00  0.00    +0.000 OA
BRANCH  26  27
ATOM     27  C   UNL     1      -6.633  -5.771  18.964  0.00  0.00    +0.000 A 
ATOM     28  C   UNL     1      -5.261  -5.761  19.184  0.00  0.00    +0.000 A 
ATOM     29  N   UNL     1      -4.647  -5.061  20.161  0.00  0.00    +0.000 NA
ATOM     30  C   UNL     1      -5.457  -4.340  20.973  0.00  0.00    +0.000 A 
ATOM     31  C   UNL     1      -6.847  -4.264  20.858  0.00  0.00    +0.000 A 
ATOM     32  C   UNL     1      -7.426  -5.006  19.819  0.00  0.00    +0.000 A 
ATOM     33  H   UNL     1      -4.596  -6.345  18.553  0.00  0.00    +0.000 HD
ATOM     34  H   UNL     1      -4.925  -3.826  21.769  0.00  0.00    +0.000 HD
ATOM     35  H   UNL     1      -8.507  -4.980  19.712  0.00  0.00    +0.000 HD
BRANCH  31  36
ATOM     36  C   UNL     1      -7.662  -3.505  21.821  0.00  0.00    +0.000 A 
ATOM     37  C   UNL     1      -7.497  -3.637  23.200  0.00  0.00    +0.000 A 
ATOM     38  C   UNL     1      -8.458  -3.027  24.014  0.00  0.00    +0.000 A 
ATOM     39  C   UNL     1      -8.723  -2.949  25.396  0.00  0.00    +0.000 A 
ATOM     40  N   UNL     1      -9.841  -2.265  25.666  0.00  0.00    +0.000 NA
ATOM     41  N   UNL     1     -10.284  -1.896  24.450  0.00  0.00    +0.000 N 
ATOM     42  C   UNL     1      -9.478  -2.301  23.420  0.00  0.00    +0.000 A 
ATOM     43  C   UNL     1      -9.552  -2.113  22.052  0.00  0.00    +0.000 A 
ATOM     44  N   UNL     1      -8.637  -2.729  21.266  0.00  0.00    +0.000 NA
ATOM     45  H   UNL     1      -6.692  -4.219  23.632  0.00  0.00    +0.000 HD
ATOM     46  H   UNL     1      -8.158  -3.374  26.214  0.00  0.00    +0.000 HD
ATOM     47  H   UNL     1     -11.157  -1.386  24.393  0.00  0.00    +0.000 HD
ATOM     48  H   UNL     1     -10.315  -1.525  21.558  0.00  0.00    +0.000 HD
ENDBRANCH  31  36
ENDBRANCH  26  27
ENDBRANCH   1  26
TORSDOF 8
ENDMDL
MODEL 3
REMARK VINA RESULT:   -11.667      1.627      2.200
REMARK INTER + INTRA:         -17.684
REMARK INTER:                 -16.903
REMARK INTRA:                  -0.781
REMARK UNBOUND:                -0.902
REMARK  Name = 
REMARK  8 active torsions:
REMARK  status: ('A' for Active; 'I' for Inactive)
REMARK    1  A    between atoms: N_1  and  C_2
REMARK    2  A    between atoms: C_2  and  C_3
REMARK    3  A    between atoms: C_2  and  C_20
REMARK    4  A    between atoms: C_3  and  O_4
REMARK    5  A    between atoms: O_4  and  C_5
REMARK    6  A    between atoms: C_9  and  C_10
REMARK    7  A    between atoms: C_20  and  C_21
REMARK    8  A    between atoms: C_25  and  C_26
REMARK                            x       y       z     vdW  Elec       q    Type
REMARK                         _______ _______ _______ _____ _____    ______ ____
ROOT
ATOM      1  C   UNL     1      -8.716  -7.089  16.619  0.00  0.00    +0.000 C 
ATOM      2  H   UNL     1      -7.820  -7.532  17.077  0.00  0.00    +0.000 HD
ATOM      3  H   UNL     1      -8.456  -6.717  15.622  0.00  0.00    +0.000 HD
ENDROOT
BRANCH   1   4
ATOM      4  C   UNL     1      -9.809  -8.172  16.483  0.00  0.00    +0.000 C 
ATOM      5  H   UNL     1      -9.974  -8.608  17.476  0.00  0.00    +0.000 HD
BRANCH   4   6
ATOM      6  N   UNL     1     -11.085  -7.554  16.070  0.00  0.00    +0.000 NA
ATOM      7  H   UNL     1     -11.796  -7.711  16.784  0.00  0.00    +0.000 HD
ATOM      8  H   UNL     1     -11.416  -8.019  15.224  0.00  0.00    +0.000 HD
ENDBRANCH   4   6
BRANCH   4   9
ATOM      9  C   UNL     1      -9.401  -9.283  15.487  0.00  0.00    +0.000 C 
ATOM     10  H   UNL     1      -8.533  -8.955  14.899  0.00  0.00    +0.000 HD
ATOM     11  H   UNL     1     -10.207  -9.440  14.757  0.00  0.00    +0.000 HD
BRANCH   9  12
ATOM     12  C   UNL     1      -9.107 -10.617  16.135  0.00  0.00    +0.000 A 
ATOM     13  C   UNL     1      -8.862 -10.694  17.512  0.00  0.00    +0.000 A 
ATOM     14  C   UNL     1      -8.578 -11.917  18.118  0.00  0.00    +0.000 A 
ATOM     15  C   UNL     1      -8.531 -13.083  17.352  0.00  0.00    +0.000 A 
ATOM     16  C   UNL     1      -8.767 -13.034  15.972  0.00  0.00    +0.000 A 
ATOM     17  C   UNL     1      -9.059 -11.795  15.373  0.00  0.00    +0.000 A 
ATOM     18  H   UNL     1      -8.892  -9.796  18.129  0.00  0.00    +0.000 HD
ATOM     19  H   UNL     1      -8.389 -11.963  19.187  0.00  0.00    +0.000 HD
ATOM     20  H   UNL     1      -8.302 -14.028  17.839  0.00  0.00    +0.000 HD
ATOM     21  H   UNL     1      -9.241 -11.755  14.300  0.00  0.00    +0.000 HD
BRANCH  16  22
ATOM     22  C   UNL     1      -8.699 -14.282  15.127  0.00  0.00    +0.000 C 
ATOM     23  F   UNL     1      -9.916 -14.727  14.707  0.00  0.00    +0.000 F 
ATOM     24  F   UNL     1      -7.956 -14.109  13.999  0.00  0.00    +0.000 F 
ATOM     25  F   UNL     1      -8.130 -15.327  15.790  0.00  0.00    +0.000 F 
ENDBRANCH  16  22
ENDBRANCH   9  12
ENDBRANCH   4   9
ENDBRANCH   1   4
BRANCH   1  26
ATOM     26  O   UNL     1      -9.202  -6.018  17.434  0.00  0.00    +0.000 OA
BRANCH  26  27
ATOM     27  C   UNL     1      -8.375  -5.589  18.429  0.00  0.00    +0.000 A 
ATOM     28  C   UNL     1      -7.105  -6.154  18.453  0.00  0.00    +0.000 A 
ATOM     29  N   UNL     1      -6.153  -5.861  19.364  0.00  0.00    +0.000 NA
ATOM     30  C   UNL     1      -6.499  -4.959  20.314  0.00  0.00    +0.000 A 
ATOM     31  C   UNL     1      -7.737  -4.320  20.401  0.00  0.00    +0.000 A 
ATOM     32  C   UNL     1      -8.682  -4.659  19.421  0.00  0.00    +0.000 A 
ATOM     33  H   UNL     1      -6.815  -6.890  17.708  0.00  0.00    +0.000 HD
ATOM     34  H   UNL     1      -5.718  -4.786  21.049  0.00  0.00    +0.000 HD
ATOM     35  H   UNL     1      -9.661  -4.189  19.471  0.00  0.00    +0.000 HD
BRANCH  31  36
ATOM     36  C   UNL     1      -8.055  -3.396  21.503  0.00  0.00    +0.000 A 
ATOM     37  C   UNL     1      -8.002  -3.791  22.840  0.00  0.00    +0.000 A 
ATOM     38  C   UNL     1      -8.520  -2.898  23.785  0.00  0.00    +0.000 A 
ATOM     39  C   UNL     1      -8.725  -2.894  25.179  0.00  0.00    +0.000 A 
ATOM     40  N   UNL     1      -9.331  -1.780  25.604  0.00  0.00    +0.000 NA
ATOM     41  N   UNL     1      -9.502  -1.065  24.477  0.00  0.00    +0.000 N 
ATOM     42  C   UNL     1      -9.008  -1.674  23.355  0.00  0.00    +0.000 A 
ATOM     43  C   UNL     1      -8.955  -1.281  22.031  0.00  0.00    +0.000 A 
ATOM     44  N   UNL     1      -8.480  -2.160  21.116  0.00  0.00    +0.000 NA
ATOM     45  H   UNL     1      -7.620  -4.759  23.142  0.00  0.00    +0.000 HD
ATOM     46  H   UNL     1      -8.473  -3.661  25.899  0.00  0.00    +0.000 HD
ATOM     47  H   UNL     1      -9.985  -0.177  24.542  0.00  0.00    +0.000 HD
ATOM     48  H   UNL     1      -9.296  -0.321  21.665  0.00  0.00    +0.000 HD
ENDBRANCH  31  36
ENDBRANCH  26  27
ENDBRANCH   1  26
TORSDOF 8
ENDMDL
MODEL 4
REMARK VINA RESULT:   -11.037      1.873      2.583
REMARK INTER + INTRA:         -16.778
REMARK INTER:                 -15.905
REMARK INTRA:                  -0.873
REMARK UNBOUND:                -0.902
REMARK  Name = 
REMARK  8 active torsions:
REMARK  status: ('A' for Active; 'I' for Inactive)
REMARK    1  A    between atoms: N_1  and  C_2
REMARK    2  A    between atoms: C_2  and  C_3
REMARK    3  A    between atoms: C_2  and  C_20
REMARK    4  A    between atoms: C_3  and  O_4
REMARK    5  A    between atoms: O_4  and  C_5
REMARK    6  A    between atoms: C_9  and  C_10
REMARK    7  A    between atoms: C_20  and  C_21
REMARK    8  A    between atoms: C_25  and  C_26
REMARK                            x       y       z     vdW  Elec       q    Type
REMARK                         _______ _______ _______ _____ _____    ______ ____
ROOT
ATOM      1  C   UNL     1      -9.086  -7.299  17.230  0.00  0.00    +0.000 C 
ATOM      2  H   UNL     1      -8.342  -7.740  17.908  0.00  0.00    +0.000 HD
ATOM      3  H   UNL     1      -8.665  -7.265  16.219  0.00  0.00    +0.000 HD
ENDROOT
BRANCH   1   4
ATOM      4  C   UNL     1     -10.354  -8.181  17.218  0.00  0.00    +0.000 C 
ATOM      5  H   UNL     1     -10.309  -8.844  18.090  0.00  0.00    +0.000 HD
BRANCH   4   6
ATOM      6  N   UNL     1     -11.556  -7.339  17.382  0.00  0.00    +0.000 NA
ATOM      7  H   UNL     1     -12.369  -7.811  16.987  0.00  0.00    +0.000 HD
ATOM      8  H   UNL     1     -11.430  -6.480  16.846  0.00  0.00    +0.000 HD
ENDBRANCH   4   6
BRANCH   4   9
ATOM      9  C   UNL     1     -10.458  -9.024  15.925  0.00  0.00    +0.000 C 
ATOM     10  H   UNL     1     -10.134  -8.427  15.063  0.00  0.00    +0.000 HD
ATOM     11  H   UNL     1     -11.511  -9.273  15.730  0.00  0.00    +0.000 HD
BRANCH   9  12
ATOM     12  C   UNL     1      -9.685 -10.323  15.970  0.00  0.00    +0.000 A 
ATOM     13  C   UNL     1      -9.265 -10.934  14.782  0.00  0.00    +0.000 A 
ATOM     14  C   UNL     1      -8.562 -12.138  14.811  0.00  0.00    +0.000 A 
ATOM     15  C   UNL     1      -8.272 -12.750  16.031  0.00  0.00    +0.000 A 
ATOM     16  C   UNL     1      -8.684 -12.162  17.234  0.00  0.00    +0.000 A 
ATOM     17  C   UNL     1      -9.387 -10.944  17.192  0.00  0.00    +0.000 A 
ATOM     18  H   UNL     1      -9.481 -10.475  13.817  0.00  0.00    +0.000 HD
ATOM     19  H   UNL     1      -8.242 -12.603  13.881  0.00  0.00    +0.000 HD
ATOM     20  H   UNL     1      -7.727 -13.692  16.036  0.00  0.00    +0.000 HD
ATOM     21  H   UNL     1      -9.710 -10.487  18.127  0.00  0.00    +0.000 HD
BRANCH  16  22
ATOM     22  C   UNL     1      -8.396 -12.821  18.559  0.00  0.00    +0.000 C 
ATOM     23  F   UNL     1      -7.157 -13.383  18.635  0.00  0.00    +0.000 F 
ATOM     24  F   UNL     1      -8.475 -11.951  19.604  0.00  0.00    +0.000 F 
ATOM     25  F   UNL     1      -9.275 -13.823  18.843  0.00  0.00    +0.000 F 
ENDBRANCH  16  22
ENDBRANCH   9  12
ENDBRANCH   4   9
ENDBRANCH   1   4
BRANCH   1  26
ATOM     26  O   UNL     1      -9.423  -5.979  17.669  0.00  0.00    +0.000 OA
BRANCH  26  27
ATOM     27  C   UNL     1      -8.624  -5.437  18.631  0.00  0.00    +0.000 A 
ATOM     28  C   UNL     1      -7.390  -6.049  18.815  0.00  0.00    +0.000 A 
ATOM     29  N   UNL     1      -6.470  -5.660  19.723  0.00  0.00    +0.000 NA
ATOM     30  C   UNL     1      -6.813  -4.603  20.499  0.00  0.00    +0.000 A 
ATOM     31  C   UNL     1      -8.017  -3.902  20.414  0.00  0.00    +0.000 A 
ATOM     32  C   UNL     1      -8.929  -4.348  19.446  0.00  0.00    +0.000 A 
ATOM     33  H   UNL     1      -7.104  -6.907  18.213  0.00  0.00    +0.000 HD
ATOM     34  H   UNL     1      -6.061  -4.351  21.242  0.00  0.00    +0.000 HD
ATOM     35  H   UNL     1      -9.882  -3.831  19.365  0.00  0.00    +0.000 HD
BRANCH  31  36
ATOM     36  C   UNL     1      -8.339  -2.801  21.338  0.00  0.00    +0.000 A 
ATOM     37  C   UNL     1      -9.439  -1.966  21.142  0.00  0.00    +0.000 A 
ATOM     38  C   UNL     1      -9.529  -0.835  21.961  0.00  0.00    +0.000 A 
ATOM     39  C   UNL     1     -10.392   0.273  22.078  0.00  0.00    +0.000 A 
ATOM     40  N   UNL     1      -9.993   1.137  23.018  0.00  0.00    +0.000 NA
ATOM     41  N   UNL     1      -8.876   0.569  23.511  0.00  0.00    +0.000 N 
ATOM     42  C   UNL     1      -8.564  -0.631  22.934  0.00  0.00    +0.000 A 
ATOM     43  C   UNL     1      -7.541  -1.534  23.160  0.00  0.00    +0.000 A 
ATOM     44  N   UNL     1      -7.440  -2.612  22.347  0.00  0.00    +0.000 NA
ATOM     45  H   UNL     1     -10.173  -2.150  20.367  0.00  0.00    +0.000 HD
ATOM     46  H   UNL     1     -11.284   0.495  21.508  0.00  0.00    +0.000 HD
ATOM     47  H   UNL     1      -8.362   1.068  24.227  0.00  0.00    +0.000 HD
ATOM     48  H   UNL     1      -6.790  -1.424  23.932  0.00  0.00    +0.000 HD
ENDBRANCH  31  36
ENDBRANCH  26  27
ENDBRANCH   1  26
TORSDOF 8
ENDMDL
MODEL 5
REMARK VINA RESULT:   -10.807      2.473      3.699
REMARK INTER + INTRA:         -16.447
REMARK INTER:                 -15.641
REMARK INTRA:                  -0.806
REMARK UNBOUND:                -0.902
REMARK  Name = 
REMARK  8 active torsions:
REMARK  status: ('A' for Active; 'I' for Inactive)
REMARK    1  A    between atoms: N_1  and  C_2
REMARK    2  A    between atoms: C_2  and  C_3
REMARK    3  A    between atoms: C_2  and  C_20
REMARK    4  A    between atoms: C_3  and  O_4
REMARK    5  A    between atoms: O_4  and  C_5
REMARK    6  A    between atoms: C_9  and  C_10
REMARK    7  A    between atoms: C_20  and  C_21
REMARK    8  A    between atoms: C_25  and  C_26
REMARK                            x       y       z     vdW  Elec       q    Type
REMARK                         _______ _______ _______ _____ _____    ______ ____
ROOT
ATOM      1  C   UNL     1      -9.542  -6.861  15.962  0.00  0.00    +0.000 C 
ATOM      2  H   UNL     1      -8.911  -6.482  16.778  0.00  0.00    +0.000 HD
ATOM      3  H   UNL     1      -8.961  -6.854  15.033  0.00  0.00    +0.000 HD
ENDROOT
BRANCH   1   4
ATOM      4  C   UNL     1      -9.969  -8.312  16.278  0.00  0.00    +0.000 C 
ATOM      5  H   UNL     1      -9.750  -8.503  17.334  0.00  0.00    +0.000 HD
BRANCH   4   6
ATOM      6  N   UNL     1     -11.429  -8.457  16.110  0.00  0.00    +0.000 NA
ATOM      7  H   UNL     1     -11.855  -7.543  15.955  0.00  0.00    +0.000 HD
ATOM      8  H   UNL     1     -11.825  -8.818  16.979  0.00  0.00    +0.000 HD
ENDBRANCH   4   6
BRANCH   4   9
ATOM      9  C   UNL     1      -9.221  -9.339  15.395  0.00  0.00    +0.000 C 
ATOM     10  H   UNL     1      -8.258  -8.920  15.071  0.00  0.00    +0.000 HD
ATOM     11  H   UNL     1      -9.788  -9.516  14.471  0.00  0.00    +0.000 HD
BRANCH   9  12
ATOM     12  C   UNL     1      -9.000 -10.679  16.058  0.00  0.00    +0.000 A 
ATOM     13  C   UNL     1      -8.809 -10.758  17.444  0.00  0.00    +0.000 A 
ATOM     14  C   UNL     1      -8.592 -11.987  18.065  0.00  0.00    +0.000 A 
ATOM     15  C   UNL     1      -8.560 -13.158  17.306  0.00  0.00    +0.000 A 
ATOM     16  C   UNL     1      -8.744 -13.108  15.917  0.00  0.00    +0.000 A 
ATOM     17  C   UNL     1      -8.968 -11.862  15.304  0.00  0.00    +0.000 A 
ATOM     18  H   UNL     1      -8.828  -9.856  18.057  0.00  0.00    +0.000 HD
ATOM     19  H   UNL     1      -8.444 -12.035  19.141  0.00  0.00    +0.000 HD
ATOM     20  H   UNL     1      -8.385 -14.109  17.805  0.00  0.00    +0.000 HD
ATOM     21  H   UNL     1      -9.109 -11.821  14.224  0.00  0.00    +0.000 HD
BRANCH  16  22
ATOM     22  C   UNL     1      -8.691 -14.362  15.081  0.00  0.00    +0.000 C 
ATOM     23  F   UNL     1      -9.918 -14.863  14.765  0.00  0.00    +0.000 F 
ATOM     24  F   UNL     1      -8.050 -14.171  13.895  0.00  0.00    +0.000 F 
ATOM     25  F   UNL     1      -8.026 -15.375  15.704  0.00  0.00    +0.000 F 
ENDBRANCH  16  22
ENDBRANCH   9  12
ENDBRANCH   4   9
ENDBRANCH   1   4
BRANCH   1  26
ATOM     26  O   UNL     1     -10.705  -6.039  15.823  0.00  0.00    +0.000 OA
BRANCH  26  27
ATOM     27  C   UNL     1     -10.727  -4.890  16.556  0.00  0.00    +0.000 A 
ATOM     28  C   UNL     1     -11.442  -3.831  16.008  0.00  0.00    +0.000 A 
ATOM     29  N   UNL     1     -11.570  -2.616  16.583  0.00  0.00    +0.000 NA
ATOM     30  C   UNL     1     -10.935  -2.449  17.767  0.00  0.00    +0.000 A 
ATOM     31  C   UNL     1     -10.188  -3.430  18.422  0.00  0.00    +0.000 A 
ATOM     32  C   UNL     1     -10.098  -4.675  17.781  0.00  0.00    +0.000 A 
ATOM     33  H   UNL     1     -11.946  -3.940  15.052  0.00  0.00    +0.000 HD
ATOM     34  H   UNL     1     -11.031  -1.445  18.172  0.00  0.00    +0.000 HD
ATOM     35  H   UNL     1      -9.511  -5.455  18.259  0.00  0.00    +0.000 HD
BRANCH  31  36
ATOM     36  C   UNL     1      -9.476  -3.150  19.681  0.00  0.00    +0.000 A 
ATOM     37  C   UNL     1      -9.797  -2.058  20.487  0.00  0.00    +0.000 A 
ATOM     38  C   UNL     1      -8.926  -1.773  21.545  0.00  0.00    +0.000 A 
ATOM     39  C   UNL     1      -8.818  -0.779  22.538  0.00  0.00    +0.000 A 
ATOM     40  N   UNL     1      -7.729  -0.932  23.299  0.00  0.00    +0.000 NA
ATOM     41  N   UNL     1      -7.147  -2.036  22.796  0.00  0.00    +0.000 N 
ATOM     42  C   UNL     1      -7.836  -2.602  21.758  0.00  0.00    +0.000 A 
ATOM     43  C   UNL     1      -7.606  -3.731  20.994  0.00  0.00    +0.000 A 
ATOM     44  N   UNL     1      -8.435  -3.987  19.954  0.00  0.00    +0.000 NA
ATOM     45  H   UNL     1     -10.654  -1.425  20.288  0.00  0.00    +0.000 HD
ATOM     46  H   UNL     1      -9.477   0.057  22.727  0.00  0.00    +0.000 HD
ATOM     47  H   UNL     1      -6.266  -2.337  23.195  0.00  0.00    +0.000 HD
ATOM     48  H   UNL     1      -6.785  -4.419  21.154  0.00  0.00    +0.000 HD
ENDBRANCH  31  36
ENDBRANCH  26  27
ENDBRANCH   1  26
TORSDOF 8
ENDMDL
MODEL 6
REMARK VINA RESULT:   -10.769      5.959     11.038
REMARK INTER + INTRA:         -16.393
REMARK INTER:                 -15.546
REMARK INTRA:                  -0.847
REMARK UNBOUND:                -0.902
REMARK  Name = 
REMARK  8 active torsions:
REMARK  status: ('A' for Active; 'I' for Inactive)
REMARK    1  A    between atoms: N_1  and  C_2
REMARK    2  A    between atoms: C_2  and  C_3
REMARK    3  A    between atoms: C_2  and  C_20
REMARK    4  A    between atoms: C_3  and  O_4
REMARK    5  A    between atoms: O_4  and  C_5
REMARK    6  A    between atoms: C_9  and  C_10
REMARK    7  A    between atoms: C_20  and  C_21
REMARK    8  A    between atoms: C_25  and  C_26
REMARK                            x       y       z     vdW  Elec       q    Type
REMARK                         _______ _______ _______ _____ _____    ______ ____
ROOT
ATOM      1  C   UNL     1      -6.837  -4.644  20.475  0.00  0.00    +0.000 C 
ATOM      2  H   UNL     1      -6.990  -4.047  19.565  0.00  0.00    +0.000 HD
ATOM      3  H   UNL     1      -5.859  -5.133  20.417  0.00  0.00    +0.000 HD
ENDROOT
BRANCH   1   4
ATOM      4  C   UNL     1      -6.862  -3.714  21.708  0.00  0.00    +0.000 C 
ATOM      5  H   UNL     1      -6.875  -4.346  22.604  0.00  0.00    +0.000 HD
BRANCH   4   6
ATOM      6  N   UNL     1      -5.621  -2.916  21.764  0.00  0.00    +0.000 NA
ATOM      7  H   UNL     1      -5.823  -1.981  22.114  0.00  0.00    +0.000 HD
ATOM      8  H   UNL     1      -5.263  -2.800  20.815  0.00  0.00    +0.000 HD
ENDBRANCH   4   6
BRANCH   4   9
ATOM      9  C   UNL     1      -8.100  -2.786  21.707  0.00  0.00    +0.000 C 
ATOM     10  H   UNL     1      -8.964  -3.318  21.285  0.00  0.00    +0.000 HD
ATOM     11  H   UNL     1      -7.924  -1.935  21.034  0.00  0.00    +0.000 HD
BRANCH   9  12
ATOM     12  C   UNL     1      -8.455  -2.227  23.066  0.00  0.00    +0.000 A 
ATOM     13  C   UNL     1      -8.822  -3.087  24.108  0.00  0.00    +0.000 A 
ATOM     14  C   UNL     1      -9.163  -2.582  25.362  0.00  0.00    +0.000 A 
ATOM     15  C   UNL     1      -9.147  -1.205  25.589  0.00  0.00    +0.000 A 
ATOM     16  C   UNL     1      -8.788  -0.321  24.563  0.00  0.00    +0.000 A 
ATOM     17  C   UNL     1      -8.440  -0.844  23.304  0.00  0.00    +0.000 A 
ATOM     18  H   UNL     1      -8.843  -4.166  23.954  0.00  0.00    +0.000 HD
ATOM     19  H   UNL     1      -9.447  -3.260  26.163  0.00  0.00    +0.000 HD
ATOM     20  H   UNL     1      -9.421  -0.826  26.572  0.00  0.00    +0.000 HD
ATOM     21  H   UNL     1      -8.163  -0.158  22.504  0.00  0.00    +0.000 HD
BRANCH  16  22
ATOM     22  C   UNL     1      -8.786   1.170  24.787  0.00  0.00    +0.000 C 
ATOM     23  F   UNL     1      -9.058   1.532  26.072  0.00  0.00    +0.000 F 
ATOM     24  F   UNL     1      -7.588   1.742  24.484  0.00  0.00    +0.000 F 
ATOM     25  F   UNL     1      -9.709   1.812  24.018  0.00  0.00    +0.000 F 
ENDBRANCH  16  22
ENDBRANCH   9  12
ENDBRANCH   4   9
ENDBRANCH   1   4
BRANCH   1  26
ATOM     26  O   UNL     1      -7.873  -5.625  20.594  0.00  0.00    +0.000 OA
BRANCH  26  27
ATOM     27  C   UNL     1      -8.492  -5.997  19.438  0.00  0.00    +0.000 A 
ATOM     28  C   UNL     1      -9.204  -5.001  18.780  0.00  0.00    +0.000 A 
ATOM     29  N   UNL     1      -9.886  -5.181  17.629  0.00  0.00    +0.000 NA
ATOM     30  C   UNL     1      -9.864  -6.434  17.115  0.00  0.00    +0.000 A 
ATOM     31  C   UNL     1      -9.188  -7.519  17.677  0.00  0.00    +0.000 A 
ATOM     32  C   UNL     1      -8.490  -7.269  18.867  0.00  0.00    +0.000 A 
ATOM     33  H   UNL     1      -9.246  -3.993  19.184  0.00  0.00    +0.000 HD
ATOM     34  H   UNL     1     -10.459  -6.542  16.213  0.00  0.00    +0.000 HD
ATOM     35  H   UNL     1      -7.966  -8.097  19.337  0.00  0.00    +0.000 HD
BRANCH  31  36
ATOM     36  C   UNL     1      -9.265  -8.868  17.088  0.00  0.00    +0.000 A 
ATOM     37  C   UNL     1      -8.940 -10.013  17.814  0.00  0.00    +0.000 A 
ATOM     38  C   UNL     1      -8.851 -11.213  17.099  0.00  0.00    +0.000 A 
ATOM     39  C   UNL     1      -8.507 -12.549  17.387  0.00  0.00    +0.000 A 
ATOM     40  N   UNL     1      -8.523 -13.327  16.299  0.00  0.00    +0.000 NA
ATOM     41  N   UNL     1      -8.890 -12.485  15.316  0.00  0.00    +0.000 N 
ATOM     42  C   UNL     1      -9.129 -11.207  15.741  0.00  0.00    +0.000 A 
ATOM     43  C   UNL     1      -9.542 -10.067  15.077  0.00  0.00    +0.000 A 
ATOM     44  N   UNL     1      -9.598  -8.903  15.766  0.00  0.00    +0.000 NA
ATOM     45  H   UNL     1      -8.720  -9.982  18.875  0.00  0.00    +0.000 HD
ATOM     46  H   UNL     1      -8.231 -12.983  18.338  0.00  0.00    +0.000 HD
ATOM     47  H   UNL     1      -8.938 -12.845  14.370  0.00  0.00    +0.000 HD
ATOM     48  H   UNL     1      -9.799 -10.033  14.026  0.00  0.00    +0.000 HD
ENDBRANCH  31  36
ENDBRANCH  26  27
ENDBRANCH   1  26
TORSDOF 8
ENDMDL
MODEL 7
REMARK VINA RESULT:   -10.637      2.515      4.158
REMARK INTER + INTRA:         -16.202
REMARK INTER:                 -15.458
REMARK INTRA:                  -0.744
REMARK UNBOUND:                -0.902
REMARK  Name = 
REMARK  8 active torsions:
REMARK  status: ('A' for Active; 'I' for Inactive)
REMARK    1  A    between atoms: N_1  and  C_2
REMARK    2  A    between atoms: C_2  and  C_3
REMARK    3  A    between atoms: C_2  and  C_20
REMARK    4  A    between atoms: C_3  and  O_4
REMARK    5  A    between atoms: O_4  and  C_5
REMARK    6  A    between atoms: C_9  and  C_10
REMARK    7  A    between atoms: C_20  and  C_21
REMARK    8  A    between atoms: C_25  and  C_26
REMARK                            x       y       z     vdW  Elec       q    Type
REMARK                         _______ _______ _______ _____ _____    ______ ____
ROOT
ATOM      1  C   UNL     1     -10.940  -7.758  16.883  0.00  0.00    +0.000 C 
ATOM      2  H   UNL     1     -11.855  -8.314  17.133  0.00  0.00    +0.000 HD
ATOM      3  H   UNL     1     -10.438  -7.469  17.812  0.00  0.00    +0.000 HD
ENDROOT
BRANCH   1   4
ATOM      4  C   UNL     1      -9.997  -8.667  16.063  0.00  0.00    +0.000 C 
ATOM      5  H   UNL     1     -10.616  -9.405  15.540  0.00  0.00    +0.000 HD
BRANCH   4   6
ATOM      6  N   UNL     1      -9.307  -7.874  15.026  0.00  0.00    +0.000 NA
ATOM      7  H   UNL     1      -9.059  -6.957  15.396  0.00  0.00    +0.000 HD
ATOM      8  H   UNL     1      -9.955  -7.710  14.254  0.00  0.00    +0.000 HD
ENDBRANCH   4   6
BRANCH   4   9
ATOM      9  C   UNL     1      -8.968  -9.391  16.962  0.00  0.00    +0.000 C 
ATOM     10  H   UNL     1      -9.237  -9.259  18.019  0.00  0.00    +0.000 HD
ATOM     11  H   UNL     1      -7.982  -8.919  16.851  0.00  0.00    +0.000 HD
BRANCH   9  12
ATOM     12  C   UNL     1      -8.805 -10.862  16.655  0.00  0.00    +0.000 A 
ATOM     13  C   UNL     1      -8.577 -11.287  15.339  0.00  0.00    +0.000 A 
ATOM     14  C   UNL     1      -8.437 -12.641  15.042  0.00  0.00    +0.000 A 
ATOM     15  C   UNL     1      -8.528 -13.593  16.058  0.00  0.00    +0.000 A 
ATOM     16  C   UNL     1      -8.760 -13.197  17.382  0.00  0.00    +0.000 A 
ATOM     17  C   UNL     1      -8.892 -11.827  17.670  0.00  0.00    +0.000 A 
ATOM     18  H   UNL     1      -8.504 -10.561  14.529  0.00  0.00    +0.000 HD
ATOM     19  H   UNL     1      -8.262 -12.958  14.016  0.00  0.00    +0.000 HD
ATOM     20  H   UNL     1      -8.422 -14.648  15.808  0.00  0.00    +0.000 HD
ATOM     21  H   UNL     1      -9.075 -11.517  18.699  0.00  0.00    +0.000 HD
BRANCH  16  22
ATOM     22  C   UNL     1      -8.881 -14.215  18.487  0.00  0.00    +0.000 C 
ATOM     23  F   UNL     1      -7.691 -14.765  18.861  0.00  0.00    +0.000 F 
ATOM     24  F   UNL     1      -9.422 -13.692  19.623  0.00  0.00    +0.000 F 
ATOM     25  F   UNL     1      -9.682 -15.263  18.144  0.00  0.00    +0.000 F 
ENDBRANCH  16  22
ENDBRANCH   9  12
ENDBRANCH   4   9
ENDBRANCH   1   4
BRANCH   1  26
ATOM     26  O   UNL     1     -11.270  -6.595  16.118  0.00  0.00    +0.000 OA
BRANCH  26  27
ATOM     27  C   UNL     1     -11.012  -5.391  16.702  0.00  0.00    +0.000 A 
ATOM     28  C   UNL     1     -11.545  -4.277  16.065  0.00  0.00    +0.000 A 
ATOM     29  N   UNL     1     -11.390  -3.004  16.489  0.00  0.00    +0.000 NA
ATOM     30  C   UNL     1     -10.646  -2.839  17.608  0.00  0.00    +0.000 A 
ATOM     31  C   UNL     1     -10.056  -3.871  18.340  0.00  0.00    +0.000 A 
ATOM     32  C   UNL     1     -10.260  -5.172  17.856  0.00  0.00    +0.000 A 
ATOM     33  H   UNL     1     -12.133  -4.388  15.157  0.00  0.00    +0.000 HD
ATOM     34  H   UNL     1     -10.513  -1.798  17.888  0.00  0.00    +0.000 HD
ATOM     35  H   UNL     1      -9.802  -5.997  18.395  0.00  0.00    +0.000 HD
BRANCH  31  36
ATOM     36  C   UNL     1      -9.209  -3.602  19.514  0.00  0.00    +0.000 A 
ATOM     37  C   UNL     1      -9.395  -2.480  20.322  0.00  0.00    +0.000 A 
ATOM     38  C   UNL     1      -8.410  -2.219  21.280  0.00  0.00    +0.000 A 
ATOM     39  C   UNL     1      -8.156  -1.212  22.233  0.00  0.00    +0.000 A 
ATOM     40  N   UNL     1      -7.004  -1.404  22.886  0.00  0.00    +0.000 NA
ATOM     41  N   UNL     1      -6.528  -2.546  22.354  0.00  0.00    +0.000 N 
ATOM     42  C   UNL     1      -7.344  -3.097  21.404  0.00  0.00    +0.000 A 
ATOM     43  C   UNL     1      -7.246  -4.250  20.649  0.00  0.00    +0.000 A 
ATOM     44  N   UNL     1      -8.186  -4.484  19.703  0.00  0.00    +0.000 NA
ATOM     45  H   UNL     1     -10.237  -1.809  20.194  0.00  0.00    +0.000 HD
ATOM     46  H   UNL     1      -8.752  -0.341  22.467  0.00  0.00    +0.000 HD
ATOM     47  H   UNL     1      -5.627  -2.882  22.671  0.00  0.00    +0.000 HD
ATOM     48  H   UNL     1      -6.446  -4.974  20.743  0.00  0.00    +0.000 HD
ENDBRANCH  31  36
ENDBRANCH  26  27
ENDBRANCH   1  26
TORSDOF 8
ENDMDL
MODEL 8
REMARK VINA RESULT:   -10.629      5.076      7.964
REMARK INTER + INTRA:         -16.191
REMARK INTER:                 -15.372
REMARK INTRA:                  -0.818
REMARK UNBOUND:                -0.902
REMARK  Name = 
REMARK  8 active torsions:
REMARK  status: ('A' for Active; 'I' for Inactive)
REMARK    1  A    between atoms: N_1  and  C_2
REMARK    2  A    between atoms: C_2  and  C_3
REMARK    3  A    between atoms: C_2  and  C_20
REMARK    4  A    between atoms: C_3  and  O_4
REMARK    5  A    between atoms: O_4  and  C_5
REMARK    6  A    between atoms: C_9  and  C_10
REMARK    7  A    between atoms: C_20  and  C_21
REMARK    8  A    between atoms: C_25  and  C_26
REMARK                            x       y       z     vdW  Elec       q    Type
REMARK                         _______ _______ _______ _____ _____    ______ ____
ROOT
ATOM      1  C   UNL     1      -9.694  -7.146  17.116  0.00  0.00    +0.000 C 
ATOM      2  H   UNL     1      -8.831  -7.213  17.793  0.00  0.00    +0.000 HD
ATOM      3  H   UNL     1      -9.379  -6.657  16.189  0.00  0.00    +0.000 HD
ENDROOT
BRANCH   1   4
ATOM      4  C   UNL     1     -10.199  -8.569  16.788  0.00  0.00    +0.000 C 
ATOM      5  H   UNL     1     -10.401  -9.080  17.737  0.00  0.00    +0.000 HD
BRANCH   4   6
ATOM      6  N   UNL     1     -11.482  -8.495  16.061  0.00  0.00    +0.000 NA
ATOM      7  H   UNL     1     -12.211  -8.133  16.675  0.00  0.00    +0.000 HD
ATOM      8  H   UNL     1     -11.765  -9.440  15.799  0.00  0.00    +0.000 HD
ENDBRANCH   4   6
BRANCH   4   9
ATOM      9  C   UNL     1      -9.162  -9.376  15.972  0.00  0.00    +0.000 C 
ATOM     10  H   UNL     1      -8.209  -8.830  15.938  0.00  0.00    +0.000 HD
ATOM     11  H   UNL     1      -9.492  -9.452  14.927  0.00  0.00    +0.000 HD
BRANCH   9  12
ATOM     12  C   UNL     1      -8.931 -10.780  16.481  0.00  0.00    +0.000 A 
ATOM     13  C   UNL     1      -8.695 -11.007  17.843  0.00  0.00    +0.000 A 
ATOM     14  C   UNL     1      -8.469 -12.297  18.322  0.00  0.00    +0.000 A 
ATOM     15  C   UNL     1      -8.472 -13.380  17.442  0.00  0.00    +0.000 A 
ATOM     16  C   UNL     1      -8.701 -13.181  16.074  0.00  0.00    +0.000 A 
ATOM     17  C   UNL     1      -8.934 -11.876  15.605  0.00  0.00    +0.000 A 
ATOM     18  H   UNL     1      -8.687 -10.176  18.549  0.00  0.00    +0.000 HD
ATOM     19  H   UNL     1      -8.286 -12.459  19.382  0.00  0.00    +0.000 HD
ATOM     20  H   UNL     1      -8.289 -14.380  17.832  0.00  0.00    +0.000 HD
ATOM     21  H   UNL     1      -9.110 -11.720  14.541  0.00  0.00    +0.000 HD
BRANCH  16  22
ATOM     22  C   UNL     1      -8.686 -14.339  15.108  0.00  0.00    +0.000 C 
ATOM     23  F   UNL     1      -9.928 -14.761  14.738  0.00  0.00    +0.000 F 
ATOM     24  F   UNL     1      -8.032 -14.045  13.950  0.00  0.00    +0.000 F 
ATOM     25  F   UNL     1      -8.060 -15.435  15.620  0.00  0.00    +0.000 F 
ENDBRANCH  16  22
ENDBRANCH   9  12
ENDBRANCH   4   9
ENDBRANCH   1   4
BRANCH   1  26
ATOM     26  O   UNL     1     -10.743  -6.397  17.738  0.00  0.00    +0.000 OA
BRANCH  26  27
ATOM     27  C   UNL     1     -11.017  -5.175  17.200  0.00  0.00    +0.000 A 
ATOM     28  C   UNL     1     -11.476  -4.207  18.086  0.00  0.00    +0.000 A 
ATOM     29  N   UNL     1     -11.805  -2.945  17.738  0.00  0.00    +0.000 NA
ATOM     30  C   UNL     1     -11.679  -2.639  16.425  0.00  0.00    +0.000 A 
ATOM     31  C   UNL     1     -11.230  -3.517  15.436  0.00  0.00    +0.000 A 
ATOM     32  C   UNL     1     -10.895  -4.812  15.859  0.00  0.00    +0.000 A 
ATOM     33  H   UNL     1     -11.597  -4.438  19.141  0.00  0.00    +0.000 HD
ATOM     34  H   UNL     1     -11.994  -1.628  16.184  0.00  0.00    +0.000 HD
ATOM     35  H   UNL     1     -10.556  -5.523  15.111  0.00  0.00    +0.000 HD
BRANCH  31  36
ATOM     36  C   UNL     1     -11.180  -3.125  14.017  0.00  0.00    +0.000 A 
ATOM     37  C   UNL     1     -11.850  -3.842  13.026  0.00  0.00    +0.000 A 
ATOM     38  C   UNL     1     -11.567  -3.503  11.698  0.00  0.00    +0.000 A 
ATOM     39  C   UNL     1     -11.940  -3.974  10.423  0.00  0.00    +0.000 A 
ATOM     40  N   UNL     1     -11.322  -3.319   9.434  0.00  0.00    +0.000 NA
ATOM     41  N   UNL     1     -10.559  -2.418  10.082  0.00  0.00    +0.000 N 
ATOM     42  C   UNL     1     -10.687  -2.462  11.444  0.00  0.00    +0.000 A 
ATOM     43  C   UNL     1     -10.117  -1.712  12.456  0.00  0.00    +0.000 A 
ATOM     44  N   UNL     1     -10.371  -2.063  13.739  0.00  0.00    +0.000 NA
ATOM     45  H   UNL     1     -12.527  -4.656  13.258  0.00  0.00    +0.000 HD
ATOM     46  H   UNL     1     -12.623  -4.774  10.175  0.00  0.00    +0.000 HD
ATOM     47  H   UNL     1      -9.957  -1.817   9.532  0.00  0.00    +0.000 HD
ATOM     48  H   UNL     1      -9.453  -0.873  12.294  0.00  0.00    +0.000 HD
ENDBRANCH  31  36
ENDBRANCH  26  27
ENDBRANCH   1  26
TORSDOF 8
ENDMDL
