MODEL 1
REMARK VINA RESULT:   -10.181      0.000      0.000
REMARK INTER + INTRA:         -10.900
REMARK INTER:                 -10.776
REMARK INTRA:                  -0.124
REMARK UNBOUND:                -0.124
REMARK  Name = 
REMARK  1 active torsions:
REMARK  status: ('A' for Active; 'I' for Inactive)
REMARK    1  A    between atoms: C_6  and  C_7
REMARK                            x       y       z     vdW  Elec       q    Type
REMARK                         _______ _______ _______ _____ _____    ______ ____
ROOT
ATOM      1  C   UNL     1      -9.037  -9.578  17.723  0.00  0.00    +0.000 A 
ATOM      2  C   UNL     1      -8.817  -9.981  19.030  0.00  0.00    +0.000 A 
ATOM      3  N   UNL     1      -8.541 -11.324  19.028  0.00  0.00    +0.000 N 
ATOM      4  C   UNL     1      -8.567 -11.815  17.745  0.00  0.00    +0.000 A 
ATOM      5  C   UNL     1      -8.363 -13.119  17.276  0.00  0.00    +0.000 A 
ATOM      6  C   UNL     1      -8.447 -13.334  15.898  0.00  0.00    +0.000 A 
ATOM      7  C   UNL     1      -8.724 -12.287  15.025  0.00  0.00    +0.000 A 
ATOM      8  C   UNL     1      -8.932 -10.991  15.513  0.00  0.00    +0.000 A 
ATOM      9  C   UNL     1      -8.856 -10.741  16.900  0.00  0.00    +0.000 A 
ATOM     10  H   UNL     1      -8.830  -9.436  19.965  0.00  0.00    +0.000 HD
ATOM     11  H   UNL     1      -8.349 -11.882  19.848  0.00  0.00    +0.000 HD
ATOM     12  H   UNL     1      -8.149 -13.940  17.953  0.00  0.00    +0.000 HD
ATOM     13  H   UNL     1      -8.295 -14.335  15.502  0.00  0.00    +0.000 HD
ATOM     14  H   UNL     1      -8.784 -12.470  13.956  0.00  0.00    +0.000 HD
ATOM     15  H   UNL     1      -9.154 -10.183  14.823  0.00  0.00    +0.000 HD
ENDROOT
BRANCH   1  21
ATOM     16  N   UNL     1     -11.247  -5.566  18.790  0.00  0.00    +0.000 N 
ATOM     17  C   UNL     1     -10.467  -6.274  17.899  0.00  0.00    +0.000 A 
ATOM     18  N   UNL     1     -10.085  -5.649  16.785  0.00  0.00    +0.000 NA
ATOM     19  C   UNL     1      -9.318  -6.354  15.938  0.00  0.00    +0.000 A 
ATOM     20  C   UNL     1      -8.940  -7.656  16.162  0.00  0.00    +0.000 A 
ATOM     21  C   UNL     1      -9.402  -8.219  17.332  0.00  0.00    +0.000 A 
ATOM     22  N   UNL     1     -10.178  -7.539  18.203  0.00  0.00    +0.000 NA
ATOM     23  H   UNL     1     -11.718  -4.816  18.305  0.00  0.00    +0.000 HD
ATOM     24  H   UNL     1     -11.816  -6.206  19.327  0.00  0.00    +0.000 HD
ATOM     25  H   UNL     1      -8.998  -5.823  15.047  0.00  0.00    +0.000 HD
ATOM     26  H   UNL     1      -8.302  -8.179  15.465  0.00  0.00    +0.000 HD
ENDBRANCH   1  21
TORSDOF 1
ENDMDL
MODEL 2
REMARK VINA RESULT:   -10.044      0.925      1.273
REMARK INTER + INTRA:         -10.755
REMARK INTER:                 -10.638
REMARK INTRA:                  -0.118
REMARK UNBOUND:                -0.124
REMARK  Name = 
REMARK  1 active torsions:
REMARK  status: ('A' for Active; 'I' for Inactive)
REMARK    1  A    between atoms: C_6  and  C_7
REMARK                            x       y       z     vdW  Elec       q    Type
REMARK                         _______ _______ _______ _____ _____    ______ ____
ROOT
ATOM      1  C   UNL     1      -8.939  -9.519  18.039  0.00  0.00    +0.000 A 
ATOM      2  C   UNL     1      -8.696 -10.088  19.278  0.00  0.00    +0.000 A 
ATOM      3  N   UNL     1      -8.485 -11.431  19.104  0.00  0.00    +0.000 N 
ATOM      4  C   UNL     1      -8.576 -11.760  17.774  0.00  0.00    +0.000 A 
ATOM      5  C   UNL     1      -8.449 -13.005  17.144  0.00  0.00    +0.000 A 
ATOM      6  C   UNL     1      -8.587 -13.047  15.754  0.00  0.00    +0.000 A 
ATOM      7  C   UNL     1      -8.842 -11.890  15.025  0.00  0.00    +0.000 A 
ATOM      8  C   UNL     1      -8.972 -10.656  15.672  0.00  0.00    +0.000 A 
ATOM      9  C   UNL     1      -8.840 -10.581  17.075  0.00  0.00    +0.000 A 
ATOM     10  H   UNL     1      -8.653  -9.661  20.272  0.00  0.00    +0.000 HD
ATOM     11  H   UNL     1      -8.294 -12.093  19.844  0.00  0.00    +0.000 HD
ATOM     12  H   UNL     1      -8.252 -13.911  17.709  0.00  0.00    +0.000 HD
ATOM     13  H   UNL     1      -8.496 -13.998  15.235  0.00  0.00    +0.000 HD
ATOM     14  H   UNL     1      -8.945 -11.939  13.944  0.00  0.00    +0.000 HD
ATOM     15  H   UNL     1      -9.178  -9.760  15.093  0.00  0.00    +0.000 HD
ENDROOT
BRANCH   1  21
ATOM     16  N   UNL     1     -11.550  -6.288  15.836  0.00  0.00    +0.000 N 
ATOM     17  C   UNL     1     -10.560  -6.568  16.756  0.00  0.00    +0.000 A 
ATOM     18  N   UNL     1     -10.006  -5.537  17.394  0.00  0.00    +0.000 NA
ATOM     19  C   UNL     1      -9.052  -5.834  18.292  0.00  0.00    +0.000 A 
ATOM     20  C   UNL     1      -8.630  -7.115  18.554  0.00  0.00    +0.000 A 
ATOM     21  C   UNL     1      -9.251  -8.108  17.828  0.00  0.00    +0.000 A 
ATOM     22  N   UNL     1     -10.210  -7.843  16.915  0.00  0.00    +0.000 NA
ATOM     23  H   UNL     1     -11.453  -5.336  15.514  0.00  0.00    +0.000 HD
ATOM     24  H   UNL     1     -11.582  -7.017  15.138  0.00  0.00    +0.000 HD
ATOM     25  H   UNL     1      -8.627  -4.985  18.818  0.00  0.00    +0.000 HD
ATOM     26  H   UNL     1      -7.876  -7.312  19.302  0.00  0.00    +0.000 HD
ENDBRANCH   1  21
TORSDOF 1
ENDMDL
MODEL 3
REMARK VINA RESULT:    -9.911      1.675      2.413
REMARK INTER + INTRA:         -10.615
REMARK INTER:                 -10.391
REMARK INTRA:                  -0.224
REMARK UNBOUND:                -0.124
REMARK  Name = 
REMARK  1 active torsions:
REMARK  status: ('A' for Active; 'I' for Inactive)
REMARK    1  A    between atoms: C_6  and  C_7
REMARK                            x       y       z     vdW  Elec       q    Type
REMARK                         _______ _______ _______ _____ _____    ______ ____
ROOT
ATOM      1  C   UNL     1      -9.212  -9.052  16.056  0.00  0.00    +0.000 A 
ATOM      2  C   UNL     1      -8.961  -8.953  14.698  0.00  0.00    +0.000 A 
ATOM      3  N   UNL     1      -8.620 -10.194  14.229  0.00  0.00    +0.000 N 
ATOM      4  C   UNL     1      -8.646 -11.114  15.248  0.00  0.00    +0.000 A 
ATOM      5  C   UNL     1      -8.354 -12.485  15.232  0.00  0.00    +0.000 A 
ATOM      6  C   UNL     1      -8.470 -13.187  16.434  0.00  0.00    +0.000 A 
ATOM      7  C   UNL     1      -8.862 -12.545  17.604  0.00  0.00    +0.000 A 
ATOM      8  C   UNL     1      -9.142 -11.174  17.603  0.00  0.00    +0.000 A 
ATOM      9  C   UNL     1      -9.033 -10.435  16.405  0.00  0.00    +0.000 A 
ATOM     10  H   UNL     1      -8.995  -8.111  14.018  0.00  0.00    +0.000 HD
ATOM     11  H   UNL     1      -8.376 -10.410  13.271  0.00  0.00    +0.000 HD
ATOM     12  H   UNL     1      -8.046 -12.989  14.322  0.00  0.00    +0.000 HD
ATOM     13  H   UNL     1      -8.249 -14.251  16.456  0.00  0.00    +0.000 HD
ATOM     14  H   UNL     1      -8.949 -13.106  18.531  0.00  0.00    +0.000 HD
ATOM     15  H   UNL     1      -9.441 -10.681  18.524  0.00  0.00    +0.000 HD
ENDROOT
BRANCH   1  21
ATOM     16  N   UNL     1     -12.156  -5.508  16.995  0.00  0.00    +0.000 N 
ATOM     17  C   UNL     1     -11.033  -6.226  17.352  0.00  0.00    +0.000 A 
ATOM     18  N   UNL     1     -10.394  -5.853  18.461  0.00  0.00    +0.000 NA
ATOM     19  C   UNL     1      -9.310  -6.573  18.795  0.00  0.00    +0.000 A 
ATOM     20  C   UNL     1      -8.843  -7.630  18.052  0.00  0.00    +0.000 A 
ATOM     21  C   UNL     1      -9.563  -7.923  16.914  0.00  0.00    +0.000 A 
ATOM     22  N   UNL     1     -10.654  -7.218  16.547  0.00  0.00    +0.000 NA
ATOM     23  H   UNL     1     -12.117  -4.589  17.411  0.00  0.00    +0.000 HD
ATOM     24  H   UNL     1     -12.290  -5.563  15.994  0.00  0.00    +0.000 HD
ATOM     25  H   UNL     1      -8.814  -6.270  19.712  0.00  0.00    +0.000 HD
ATOM     26  H   UNL     1      -7.981  -8.198  18.370  0.00  0.00    +0.000 HD
ENDBRANCH   1  21
TORSDOF 1
ENDMDL
MODEL 4
REMARK VINA RESULT:    -9.632      1.815      2.585
REMARK INTER + INTRA:         -10.319
REMARK INTER:                 -10.054
REMARK INTRA:                  -0.265
REMARK UNBOUND:                -0.124
REMARK  Name = 
REMARK  1 active torsions:
REMARK  status: ('A' for Active; 'I' for Inactive)
REMARK    1  A    between atoms: C_6  and  C_7
REMARK                            x       y       z     vdW  Elec       q    Type
REMARK                         _______ _______ _______ _____ _____    ______ ____
ROOT
ATOM      1  C   UNL     1      -9.223  -9.087  16.082  0.00  0.00    +0.000 A 
ATOM      2  C   UNL     1      -9.074  -8.930  14.713  0.00  0.00    +0.000 A 
ATOM      3  N   UNL     1      -8.727 -10.141  14.174  0.00  0.00    +0.000 N 
ATOM      4  C   UNL     1      -8.651 -11.098  15.157  0.00  0.00    +0.000 A 
ATOM      5  C   UNL     1      -8.317 -12.456  15.067  0.00  0.00    +0.000 A 
ATOM      6  C   UNL     1      -8.323 -13.205  16.246  0.00  0.00    +0.000 A 
ATOM      7  C   UNL     1      -8.650 -12.619  17.465  0.00  0.00    +0.000 A 
ATOM      8  C   UNL     1      -8.974 -11.259  17.537  0.00  0.00    +0.000 A 
ATOM      9  C   UNL     1      -8.975 -10.474  16.363  0.00  0.00    +0.000 A 
ATOM     10  H   UNL     1      -9.183  -8.066  14.071  0.00  0.00    +0.000 HD
ATOM     11  H   UNL     1      -8.546 -10.314  13.194  0.00  0.00    +0.000 HD
ATOM     12  H   UNL     1      -8.059 -12.916  14.119  0.00  0.00    +0.000 HD
ATOM     13  H   UNL     1      -8.067 -14.261  16.212  0.00  0.00    +0.000 HD
ATOM     14  H   UNL     1      -8.652 -13.216  18.374  0.00  0.00    +0.000 HD
ATOM     15  H   UNL     1      -9.222 -10.811  18.494  0.00  0.00    +0.000 HD
ENDROOT
BRANCH   1  21
ATOM     16  N   UNL     1      -7.740  -5.414  18.616  0.00  0.00    +0.000 N 
ATOM     17  C   UNL     1      -8.791  -6.206  18.203  0.00  0.00    +0.000 A 
ATOM     18  N   UNL     1     -10.008  -5.891  18.648  0.00  0.00    +0.000 NA
ATOM     19  C   UNL     1     -11.018  -6.669  18.224  0.00  0.00    +0.000 A 
ATOM     20  C   UNL     1     -10.845  -7.749  17.392  0.00  0.00    +0.000 A 
ATOM     21  C   UNL     1      -9.547  -8.003  17.004  0.00  0.00    +0.000 A 
ATOM     22  N   UNL     1      -8.510  -7.243  17.415  0.00  0.00    +0.000 NA
ATOM     23  H   UNL     1      -7.986  -4.946  19.476  0.00  0.00    +0.000 HD
ATOM     24  H   UNL     1      -6.884  -5.952  18.604  0.00  0.00    +0.000 HD
ATOM     25  H   UNL     1     -12.004  -6.386  18.578  0.00  0.00    +0.000 HD
ATOM     26  H   UNL     1     -11.688  -8.334  17.056  0.00  0.00    +0.000 HD
ENDBRANCH   1  21
TORSDOF 1
ENDMDL
MODEL 5
REMARK VINA RESULT:    -9.528      1.891      3.007
REMARK INTER + INTRA:         -10.209
REMARK INTER:                 -10.265
REMARK INTRA:                   0.056
REMARK UNBOUND:                -0.124
REMARK  Name = 
REMARK  1 active torsions:
REMARK  status: ('A' for Active; 'I' for Inactive)
REMARK    1  A    between atoms: C_6  and  C_7
REMARK                            x       y       z     vdW  Elec       q    Type
REMARK                         _______ _______ _______ _____ _____    ______ ____
ROOT
ATOM      1  C   UNL     1      -9.039  -9.767  16.727  0.00  0.00    +0.000 A 
ATOM      2  C   UNL     1      -9.240  -9.249  15.458  0.00  0.00    +0.000 A 
ATOM      3  N   UNL     1      -9.163 -10.276  14.554  0.00  0.00    +0.000 N 
ATOM      4  C   UNL     1      -8.922 -11.464  15.200  0.00  0.00    +0.000 A 
ATOM      5  C   UNL     1      -8.753 -12.754  14.680  0.00  0.00    +0.000 A 
ATOM      6  C   UNL     1      -8.520 -13.794  15.584  0.00  0.00    +0.000 A 
ATOM      7  C   UNL     1      -8.460 -13.553  16.952  0.00  0.00    +0.000 A 
ATOM      8  C   UNL     1      -8.624 -12.256  17.454  0.00  0.00    +0.000 A 
ATOM      9  C   UNL     1      -8.858 -11.184  16.567  0.00  0.00    +0.000 A 
ATOM     10  H   UNL     1      -9.432  -8.241  15.113  0.00  0.00    +0.000 HD
ATOM     11  H   UNL     1      -9.262 -10.181  13.553  0.00  0.00    +0.000 HD
ATOM     12  H   UNL     1      -8.797 -12.946  13.613  0.00  0.00    +0.000 HD
ATOM     13  H   UNL     1      -8.383 -14.806  15.212  0.00  0.00    +0.000 HD
ATOM     14  H   UNL     1      -8.280 -14.372  17.643  0.00  0.00    +0.000 HD
ATOM     15  H   UNL     1      -8.568 -12.079  18.524  0.00  0.00    +0.000 HD
ENDROOT
BRANCH   1  21
ATOM     16  N   UNL     1      -8.877  -9.642  21.425  0.00  0.00    +0.000 N 
ATOM     17  C   UNL     1      -8.901  -8.947  20.234  0.00  0.00    +0.000 A 
ATOM     18  N   UNL     1      -8.854  -7.616  20.298  0.00  0.00    +0.000 NA
ATOM     19  C   UNL     1      -8.867  -6.961  19.126  0.00  0.00    +0.000 A 
ATOM     20  C   UNL     1      -8.943  -7.590  17.906  0.00  0.00    +0.000 A 
ATOM     21  C   UNL     1      -9.007  -8.966  17.948  0.00  0.00    +0.000 A 
ATOM     22  N   UNL     1      -8.999  -9.654  19.109  0.00  0.00    +0.000 NA
ATOM     23  H   UNL     1      -9.198  -9.044  22.172  0.00  0.00    +0.000 HD
ATOM     24  H   UNL     1      -9.338 -10.533  21.308  0.00  0.00    +0.000 HD
ATOM     25  H   UNL     1      -8.806  -5.879  19.196  0.00  0.00    +0.000 HD
ATOM     26  H   UNL     1      -8.927  -7.026  16.986  0.00  0.00    +0.000 HD
ENDBRANCH   1  21
TORSDOF 1
ENDMDL
MODEL 6
REMARK VINA RESULT:    -9.357      1.646      2.747
REMARK INTER + INTRA:         -10.028
REMARK INTER:                  -9.807
REMARK INTRA:                  -0.221
REMARK UNBOUND:                -0.124
REMARK  Name = 
REMARK  1 active torsions:
REMARK  status: ('A' for Active; 'I' for Inactive)
REMARK    1  A    between atoms: C_6  and  C_7
REMARK                            x       y       z     vdW  Elec       q    Type
REMARK                         _______ _______ _______ _____ _____    ______ ____
ROOT
ATOM      1  C   UNL     1      -9.545  -9.581  15.904  0.00  0.00    +0.000 A 
ATOM      2  C   UNL     1      -9.595 -10.188  14.660  0.00  0.00    +0.000 A 
ATOM      3  N   UNL     1      -9.181 -11.487  14.796  0.00  0.00    +0.000 N 
ATOM      4  C   UNL     1      -8.866 -11.754  16.106  0.00  0.00    +0.000 A 
ATOM      5  C   UNL     1      -8.389 -12.932  16.695  0.00  0.00    +0.000 A 
ATOM      6  C   UNL     1      -8.154 -12.920  18.072  0.00  0.00    +0.000 A 
ATOM      7  C   UNL     1      -8.386 -11.776  18.829  0.00  0.00    +0.000 A 
ATOM      8  C   UNL     1      -8.856 -10.606  18.221  0.00  0.00    +0.000 A 
ATOM      9  C   UNL     1      -9.101 -10.585  16.831  0.00  0.00    +0.000 A 
ATOM     10  H   UNL     1      -9.887  -9.815  13.687  0.00  0.00    +0.000 HD
ATOM     11  H   UNL     1      -9.110 -12.159  14.044  0.00  0.00    +0.000 HD
ATOM     12  H   UNL     1      -8.204 -13.827  16.109  0.00  0.00    +0.000 HD
ATOM     13  H   UNL     1      -7.782 -13.818  18.560  0.00  0.00    +0.000 HD
ATOM     14  H   UNL     1      -8.200 -11.783  19.899  0.00  0.00    +0.000 HD
ATOM     15  H   UNL     1      -9.027  -9.716  18.821  0.00  0.00    +0.000 HD
ENDROOT
BRANCH   1  21
ATOM     16  N   UNL     1      -8.975  -5.071  14.697  0.00  0.00    +0.000 N 
ATOM     17  C   UNL     1      -9.589  -5.998  15.514  0.00  0.00    +0.000 A 
ATOM     18  N   UNL     1     -10.450  -5.540  16.424  0.00  0.00    +0.000 NA
ATOM     19  C   UNL     1     -11.043  -6.461  17.201  0.00  0.00    +0.000 A 
ATOM     20  C   UNL     1     -10.791  -7.809  17.107  0.00  0.00    +0.000 A 
ATOM     21  C   UNL     1      -9.872  -8.179  16.149  0.00  0.00    +0.000 A 
ATOM     22  N   UNL     1      -9.255  -7.278  15.355  0.00  0.00    +0.000 NA
ATOM     23  H   UNL     1      -8.984  -4.167  15.146  0.00  0.00    +0.000 HD
ATOM     24  H   UNL     1      -8.084  -5.431  14.385  0.00  0.00    +0.000 HD
ATOM     25  H   UNL     1     -11.757  -6.074  17.921  0.00  0.00    +0.000 HD
ATOM     26  H   UNL     1     -11.309  -8.518  17.736  0.00  0.00    +0.000 HD
ENDBRANCH   1  21
TORSDOF 1
ENDMDL
MODEL 7
REMARK VINA RESULT:    -9.247      1.903      5.810
REMARK INTER + INTRA:          -9.912
REMARK INTER:                  -9.922
REMARK INTRA:                   0.010
REMARK UNBOUND:                -0.124
REMARK  Name = 
REMARK  1 active torsions:
REMARK  status: ('A' for Active; 'I' for Inactive)
REMARK    1  A    between atoms: C_6  and  C_7
REMARK                            x       y       z     vdW  Elec       q    Type
REMARK                         _______ _______ _______ _____ _____    ______ ____
ROOT
ATOM      1  C   UNL     1      -9.078 -10.487  16.761  0.00  0.00    +0.000 A 
ATOM      2  C   UNL     1      -9.517  -9.562  15.827  0.00  0.00    +0.000 A 
ATOM      3  N   UNL     1      -9.630  -8.344  16.445  0.00  0.00    +0.000 N 
ATOM      4  C   UNL     1      -9.268  -8.443  17.766  0.00  0.00    +0.000 A 
ATOM      5  C   UNL     1      -9.246  -7.465  18.769  0.00  0.00    +0.000 A 
ATOM      6  C   UNL     1      -8.823  -7.851  20.044  0.00  0.00    +0.000 A 
ATOM      7  C   UNL     1      -8.437  -9.162  20.304  0.00  0.00    +0.000 A 
ATOM      8  C   UNL     1      -8.472 -10.128  19.291  0.00  0.00    +0.000 A 
ATOM      9  C   UNL     1      -8.897  -9.770  17.993  0.00  0.00    +0.000 A 
ATOM     10  H   UNL     1      -9.760  -9.658  14.777  0.00  0.00    +0.000 HD
ATOM     11  H   UNL     1      -9.940  -7.491  16.001  0.00  0.00    +0.000 HD
ATOM     12  H   UNL     1      -9.548  -6.441  18.572  0.00  0.00    +0.000 HD
ATOM     13  H   UNL     1      -8.795  -7.117  20.845  0.00  0.00    +0.000 HD
ATOM     14  H   UNL     1      -8.108  -9.447  21.300  0.00  0.00    +0.000 HD
ATOM     15  H   UNL     1      -8.175 -11.150  19.506  0.00  0.00    +0.000 HD
ENDROOT
BRANCH   1  21
ATOM     16  N   UNL     1      -8.823 -14.886  18.404  0.00  0.00    +0.000 N 
ATOM     17  C   UNL     1      -8.791 -14.036  17.318  0.00  0.00    +0.000 A 
ATOM     18  N   UNL     1      -8.621 -14.584  16.114  0.00  0.00    +0.000 NA
ATOM     19  C   UNL     1      -8.603 -13.739  15.070  0.00  0.00    +0.000 A 
ATOM     20  C   UNL     1      -8.730 -12.376  15.196  0.00  0.00    +0.000 A 
ATOM     21  C   UNL     1      -8.881 -11.907  16.483  0.00  0.00    +0.000 A 
ATOM     22  N   UNL     1      -8.900 -12.729  17.553  0.00  0.00    +0.000 NA
ATOM     23  H   UNL     1      -8.350 -15.747  18.174  0.00  0.00    +0.000 HD
ATOM     24  H   UNL     1      -8.520 -14.391  19.232  0.00  0.00    +0.000 HD
ATOM     25  H   UNL     1      -8.487 -14.204  14.096  0.00  0.00    +0.000 HD
ATOM     26  H   UNL     1      -8.735 -11.734  14.327  0.00  0.00    +0.000 HD
ENDBRANCH   1  21
TORSDOF 1
ENDMDL
MODEL 8
REMARK VINA RESULT:    -9.077      1.967      2.353
REMARK INTER + INTRA:          -9.731
REMARK INTER:                  -9.579
REMARK INTRA:                  -0.152
REMARK UNBOUND:                -0.124
REMARK  Name = 
REMARK  1 active torsions:
REMARK  status: ('A' for Active; 'I' for Inactive)
REMARK    1  A    between atoms: C_6  and  C_7
REMARK                            x       y       z     vdW  Elec       q    Type
REMARK                         _______ _______ _______ _____ _____    ______ ____
ROOT
ATOM      1  C   UNL     1      -8.800  -8.684  18.898  0.00  0.00    +0.000 A 
ATOM      2  C   UNL     1      -8.555  -9.533  19.965  0.00  0.00    +0.000 A 
ATOM      3  N   UNL     1      -8.567 -10.823  19.503  0.00  0.00    +0.000 N 
ATOM      4  C   UNL     1      -8.809 -10.844  18.151  0.00  0.00    +0.000 A 
ATOM      5  C   UNL     1      -8.925 -11.931  17.274  0.00  0.00    +0.000 A 
ATOM      6  C   UNL     1      -9.173 -11.654  15.927  0.00  0.00    +0.000 A 
ATOM      7  C   UNL     1      -9.301 -10.344  15.476  0.00  0.00    +0.000 A 
ATOM      8  C   UNL     1      -9.190  -9.272  16.368  0.00  0.00    +0.000 A 
ATOM      9  C   UNL     1      -8.941  -9.517  17.736  0.00  0.00    +0.000 A 
ATOM     10  H   UNL     1      -8.371  -9.338  21.013  0.00  0.00    +0.000 HD
ATOM     11  H   UNL     1      -8.425 -11.647  20.070  0.00  0.00    +0.000 HD
ATOM     12  H   UNL     1      -8.828 -12.954  17.621  0.00  0.00    +0.000 HD
ATOM     13  H   UNL     1      -9.270 -12.475  15.221  0.00  0.00    +0.000 HD
ATOM     14  H   UNL     1      -9.493 -10.146  14.425  0.00  0.00    +0.000 HD
ATOM     15  H   UNL     1      -9.298  -8.253  16.006  0.00  0.00    +0.000 HD
ENDROOT
BRANCH   1  21
ATOM     16  N   UNL     1      -7.066  -4.668  20.624  0.00  0.00    +0.000 N 
ATOM     17  C   UNL     1      -8.016  -5.297  19.846  0.00  0.00    +0.000 A 
ATOM     18  N   UNL     1      -8.918  -4.526  19.237  0.00  0.00    +0.000 NA
ATOM     19  C   UNL     1      -9.827  -5.158  18.477  0.00  0.00    +0.000 A 
ATOM     20  C   UNL     1      -9.869  -6.523  18.323  0.00  0.00    +0.000 A 
ATOM     21  C   UNL     1      -8.906  -7.231  19.009  0.00  0.00    +0.000 A 
ATOM     22  N   UNL     1      -7.981  -6.627  19.785  0.00  0.00    +0.000 NA
ATOM     23  H   UNL     1      -7.410  -3.765  20.915  0.00  0.00    +0.000 HD
ATOM     24  H   UNL     1      -6.743  -5.300  21.344  0.00  0.00    +0.000 HD
ATOM     25  H   UNL     1     -10.539  -4.515  17.971  0.00  0.00    +0.000 HD
ATOM     26  H   UNL     1     -10.603  -6.990  17.682  0.00  0.00    +0.000 HD
ENDBRANCH   1  21
TORSDOF 1
ENDMDL
MODEL 9
REMARK VINA RESULT:    -8.988      1.608      2.471
REMARK INTER + INTRA:          -9.638
REMARK INTER:                  -9.379
REMARK INTRA:                  -0.258
REMARK UNBOUND:                -0.124
REMARK  Name = 
REMARK  1 active torsions:
REMARK  status: ('A' for Active; 'I' for Inactive)
REMARK    1  A    between atoms: C_6  and  C_7
REMARK                            x       y       z     vdW  Elec       q    Type
REMARK                         _______ _______ _______ _____ _____    ______ ____
ROOT
ATOM      1  C   UNL     1      -9.488  -7.913  17.577  0.00  0.00    +0.000 A 
ATOM      2  C   UNL     1      -9.154  -7.848  18.920  0.00  0.00    +0.000 A 
ATOM      3  N   UNL     1      -8.771  -9.097  19.332  0.00  0.00    +0.000 N 
ATOM      4  C   UNL     1      -8.838  -9.986  18.286  0.00  0.00    +0.000 A 
ATOM      5  C   UNL     1      -8.559 -11.359  18.252  0.00  0.00    +0.000 A 
ATOM      6  C   UNL     1      -8.711 -12.022  17.033  0.00  0.00    +0.000 A 
ATOM      7  C   UNL     1      -9.126 -11.341  15.893  0.00  0.00    +0.000 A 
ATOM      8  C   UNL     1      -9.408  -9.971  15.948  0.00  0.00    +0.000 A 
ATOM      9  C   UNL     1      -9.265  -9.272  17.166  0.00  0.00    +0.000 A 
ATOM     10  H   UNL     1      -9.153  -7.025  19.623  0.00  0.00    +0.000 HD
ATOM     11  H   UNL     1      -8.484  -9.341  20.270  0.00  0.00    +0.000 HD
ATOM     12  H   UNL     1      -8.237 -11.895  19.139  0.00  0.00    +0.000 HD
ATOM     13  H   UNL     1      -8.504 -13.088  16.973  0.00  0.00    +0.000 HD
ATOM     14  H   UNL     1      -9.239 -11.871  14.951  0.00  0.00    +0.000 HD
ATOM     15  H   UNL     1      -9.738  -9.450  15.054  0.00  0.00    +0.000 HD
ENDROOT
BRANCH   1  21
ATOM     16  N   UNL     1      -8.863  -4.956  13.975  0.00  0.00    +0.000 N 
ATOM     17  C   UNL     1      -9.659  -5.380  15.019  0.00  0.00    +0.000 A 
ATOM     18  N   UNL     1     -10.821  -4.753  15.200  0.00  0.00    +0.000 NA
ATOM     19  C   UNL     1     -11.583  -5.190  16.216  0.00  0.00    +0.000 A 
ATOM     20  C   UNL     1     -11.214  -6.213  17.056  0.00  0.00    +0.000 A 
ATOM     21  C   UNL     1      -9.986  -6.783  16.797  0.00  0.00    +0.000 A 
ATOM     22  N   UNL     1      -9.194  -6.365  15.787  0.00  0.00    +0.000 NA
ATOM     23  H   UNL     1      -9.101  -4.004  13.734  0.00  0.00    +0.000 HD
ATOM     24  H   UNL     1      -7.895  -5.159  14.180  0.00  0.00    +0.000 HD
ATOM     25  H   UNL     1     -12.535  -4.683  16.335  0.00  0.00    +0.000 HD
ATOM     26  H   UNL     1     -11.868  -6.550  17.846  0.00  0.00    +0.000 HD
ENDBRANCH   1  21
TORSDOF 1
ENDMDL
