REMARK  Name = 
REMARK  8 active torsions:
REMARK  status: ('A' for Active; 'I' for Inactive)
REMARK    1  A    between atoms: C_1  and  O_2
REMARK    2  A    between atoms: O_2  and  C_3
REMARK    3  A    between atoms: N_17  and  C_18
REMARK    4  A    between atoms: N_21  and  C_22
REMARK    5  A    between atoms: C_22  and  C_23
REMARK    6  A    between atoms: C_23  and  C_24
REMARK    7  A    between atoms: C_24  and  N_25
REMARK    8  A    between atoms: C_28  and  C_29
REMARK                            x       y       z     vdW  Elec       q    Type
REMARK                         _______ _______ _______ _____ _____    ______ ____
ROOT
ATOM      1  C   UNL     1      -2.913  -1.977   2.354  0.00  0.00    +0.000 A 
ATOM      2  C   UNL     1      -3.263  -1.012   3.293  0.00  0.00    +0.000 A 
ATOM      3  C   UNL     1      -2.649   0.222   3.299  0.00  0.00    +0.000 A 
ATOM      4  C   UNL     1      -1.637   0.527   2.362  0.00  0.00    +0.000 A 
ATOM      5  C   UNL     1      -0.861   1.620   1.995  0.00  0.00    +0.000 A 
ATOM      6  C   UNL     1      -0.892   2.849   2.682  0.00  0.00    +0.000 A 
ATOM      7  C   UNL     1      -0.205   3.911   2.080  0.00  0.00    +0.000 A 
ATOM      8  C   UNL     1       0.812   3.735   1.141  0.00  0.00    +0.000 A 
ATOM      9  C   UNL     1       0.997   2.412   0.622  0.00  0.00    +0.000 A 
ATOM     10  C   UNL     1       2.232   2.077   0.038  0.00  0.00    +0.000 A 
ATOM     11  C   UNL     1       3.375   2.829   0.337  0.00  0.00    +0.000 A 
ATOM     12  C   UNL     1       3.158   3.897   1.207  0.00  0.00    +0.000 A 
ATOM     13  C   UNL     1       3.435   4.092   2.623  0.00  0.00    +0.000 A 
ATOM     14  C   UNL     1       2.777   5.255   2.997  0.00  0.00    +0.000 A 
ATOM     15  N   UNL     1       2.329   5.764   1.781  0.00  0.00    +0.000 N 
ATOM     16  C   UNL     1       1.940   4.595   1.097  0.00  0.00    +0.000 A 
ATOM     17  C   UNL     1       0.035   1.410   0.976  0.00  0.00    +0.000 A 
ATOM     18  N   UNL     1      -0.169   0.063   0.690  0.00  0.00    +0.000 N 
ATOM     19  C   UNL     1      -1.225  -0.458   1.458  0.00  0.00    +0.000 A 
ATOM     20  C   UNL     1      -1.841  -1.730   1.451  0.00  0.00    +0.000 A 
ATOM     21  C   UNL     1      -0.480   5.072   2.857  0.00  0.00    +0.000 C 
ATOM     22  O   UNL     1      -0.494   6.275   2.596  0.00  0.00    +0.000 OA
ATOM     23  N   UNL     1      -0.898   4.563   4.057  0.00  0.00    +0.000 N 
ATOM     24  C   UNL     1      -1.289   3.246   3.997  0.00  0.00    +0.000 C 
ATOM     25  O   UNL     1      -1.669   2.635   4.984  0.00  0.00    +0.000 OA
ATOM     26  H   UNL     1      -4.043  -1.203   4.031  0.00  0.00    +0.000 HD
ATOM     27  H   UNL     1      -2.967   0.952   4.034  0.00  0.00    +0.000 HD
ATOM     28  H   UNL     1       2.425   1.126  -0.436  0.00  0.00    +0.000 HD
ATOM     29  H   UNL     1       4.359   2.418   0.156  0.00  0.00    +0.000 HD
ATOM     30  H   UNL     1       3.917   3.388   3.287  0.00  0.00    +0.000 HD
ATOM     31  H   UNL     1       2.649   5.806   3.917  0.00  0.00    +0.000 HD
ATOM     32  H   UNL     1      -1.552  -2.506   0.758  0.00  0.00    +0.000 HD
ATOM     33  H   UNL     1      -0.233   4.714   4.808  0.00  0.00    +0.000 HD
ENDROOT
BRANCH  15  34
ATOM     34  C   UNL     1       3.178   6.781   1.140  0.00  0.00    +0.000 C 
ATOM     35  H   UNL     1       3.071   7.716   1.691  0.00  0.00    +0.000 HD
ATOM     36  H   UNL     1       2.890   6.892   0.091  0.00  0.00    +0.000 HD
ATOM     37  H   UNL     1       4.223   6.445   1.194  0.00  0.00    +0.000 HD
ENDBRANCH  15  34
BRANCH  18  38
ATOM     38  C   UNL     1       0.611  -0.723  -0.255  0.00  0.00    +0.000 C 
ATOM     39  H   UNL     1       0.275  -1.759  -0.180  0.00  0.00    +0.000 HD
ATOM     40  H   UNL     1       1.647  -0.731   0.103  0.00  0.00    +0.000 HD
BRANCH  38  41
ATOM     41  C   UNL     1       0.496  -0.224  -1.699  0.00  0.00    +0.000 C 
ATOM     42  H   UNL     1       0.867   0.796  -1.817  0.00  0.00    +0.000 HD
ATOM     43  H   UNL     1      -0.560  -0.147  -1.984  0.00  0.00    +0.000 HD
BRANCH  41  44
ATOM     44  C   UNL     1       1.278  -1.123  -2.662  0.00  0.00    +0.000 C 
ATOM     45  H   UNL     1       2.341  -1.066  -2.391  0.00  0.00    +0.000 HD
ATOM     46  H   UNL     1       1.191  -0.725  -3.682  0.00  0.00    +0.000 HD
BRANCH  44  47
ATOM     47  N   UNL     1       0.826  -2.520  -2.600  0.00  0.00    +0.000 NA
ATOM     48  C   UNL     1      -0.584  -2.634  -2.994  0.00  0.00    +0.000 C 
ATOM     49  C   UNL     1      -1.072  -4.069  -2.852  0.00  0.00    +0.000 C 
ATOM     50  C   UNL     1      -0.246  -5.007  -3.729  0.00  0.00    +0.000 C 
ATOM     51  C   UNL     1       1.236  -4.844  -3.372  0.00  0.00    +0.000 C 
ATOM     52  C   UNL     1       1.692  -3.381  -3.421  0.00  0.00    +0.000 C 
ATOM     53  H   UNL     1      -0.738  -2.262  -4.015  0.00  0.00    +0.000 HD
ATOM     54  H   UNL     1      -1.223  -2.041  -2.335  0.00  0.00    +0.000 HD
ATOM     55  H   UNL     1      -2.138  -4.109  -3.097  0.00  0.00    +0.000 HD
ATOM     56  H   UNL     1      -0.986  -4.377  -1.801  0.00  0.00    +0.000 HD
ATOM     57  H   UNL     1      -0.545  -6.043  -3.531  0.00  0.00    +0.000 HD
ATOM     58  H   UNL     1       1.863  -5.448  -4.038  0.00  0.00    +0.000 HD
ATOM     59  H   UNL     1       1.398  -5.228  -2.355  0.00  0.00    +0.000 HD
ATOM     60  H   UNL     1       1.731  -3.025  -4.457  0.00  0.00    +0.000 HD
ATOM     61  H   UNL     1       2.720  -3.339  -3.036  0.00  0.00    +0.000 HD
BRANCH  50  62
ATOM     62  C   UNL     1      -0.509  -4.748  -5.211  0.00  0.00    +0.000 C 
ATOM     63  N   UNL     1      -1.812  -4.855  -5.602  0.00  0.00    +0.000 N 
ATOM     64  O   UNL     1       0.357  -4.473  -6.034  0.00  0.00    +0.000 OA
ATOM     65  H   UNL     1      -2.543  -5.209  -5.003  0.00  0.00    +0.000 HD
ATOM     66  H   UNL     1      -2.015  -4.715  -6.583  0.00  0.00    +0.000 HD
ENDBRANCH  50  62
ENDBRANCH  44  47
ENDBRANCH  41  44
ENDBRANCH  38  41
ENDBRANCH  18  38
BRANCH   1  67
ATOM     67  O   UNL     1      -3.491  -3.205   2.232  0.00  0.00    +0.000 OA
BRANCH  67  68
ATOM     68  C   UNL     1      -4.875  -3.245   2.611  0.00  0.00    +0.000 C 
ATOM     69  H   UNL     1      -5.273  -4.247   2.334  0.00  0.00    +0.000 HD
ATOM     70  H   UNL     1      -5.454  -2.500   2.104  0.00  0.00    +0.000 HD
ATOM     71  H   UNL     1      -4.990  -3.173   3.708  0.00  0.00    +0.000 HD
ENDBRANCH  67  68
ENDBRANCH   1  67
TORSDOF 8
