
 OpenBabel01112422383D

 38 41  0  0  0  0  0  0  0  0999 V2000
    2.8882   -0.4839    1.2220 O   0  0  0  0  0  0  0  0  0  0  0  0
    2.8353   -0.5690   -0.0036 C   0  0  0  0  0  0  0  0  0  0  0  0
    1.5518   -1.0211   -0.6014 C   0  0  0  0  0  0  0  0  0  0  0  0
    0.6973   -1.7989    0.1869 C   0  0  0  0  0  0  0  0  0  0  0  0
   -0.5479   -2.1881   -0.3075 C   0  0  0  0  0  0  0  0  0  0  0  0
   -0.9137   -1.8241   -1.5960 C   0  0  0  0  0  0  0  0  0  0  0  0
   -0.0853   -1.0483   -2.3885 C   0  0  0  0  0  0  0  0  0  0  0  0
    1.1360   -0.6158   -1.8777 C   0  0  0  0  0  0  0  0  0  0  0  0
    3.9896   -0.1975   -0.7274 N   0  0  0  0  0  0  0  0  0  0  0  0
    4.3088   -0.5569   -2.0370 C   0  0  0  0  0  0  0  0  0  0  0  0
    3.8609   -1.5666   -2.9003 C   0  0  0  0  0  0  0  0  0  0  0  0
    3.8817   -1.2283   -4.2491 C   0  0  0  0  0  0  0  0  0  0  0  0
    3.3429   -2.0663   -5.1856 O   0  0  0  0  0  0  0  0  0  0  0  0
    4.3682    0.0025   -4.6795 C   0  0  0  0  0  0  0  0  0  0  0  0
    4.0914    0.4264   -5.9475 O   0  0  0  0  0  0  0  0  0  0  0  0
    5.1288    0.8060   -3.8350 C   0  0  0  0  0  0  0  0  0  0  0  0
    5.1659    0.4465   -2.4774 C   0  0  0  0  0  0  0  0  0  0  0  0
    5.9281    0.7330   -1.3205 C   0  0  0  0  0  0  0  0  0  0  0  0
    7.2625    1.0814   -1.0296 C   0  0  0  0  0  0  0  0  0  0  0  0
    7.5636    1.4246    0.2876 C   0  0  0  0  0  0  0  0  0  0  0  0
    8.8597    1.5207    0.7147 O   0  0  0  0  0  0  0  0  0  0  0  0
    6.5564    1.6386    1.2203 C   0  0  0  0  0  0  0  0  0  0  0  0
    6.8582    2.1576    2.4471 O   0  0  0  0  0  0  0  0  0  0  0  0
    5.2488    1.2545    0.9648 C   0  0  0  0  0  0  0  0  0  0  0  0
    5.0239    0.6153   -0.2636 C   0  0  0  0  0  0  0  0  0  0  0  0
    0.9870   -2.0795    1.2008 H   0  0  0  0  0  0  0  0  0  0  0  0
   -1.2202   -2.7585    0.3214 H   0  0  0  0  0  0  0  0  0  0  0  0
   -1.9048   -2.1162   -1.9757 H   0  0  0  0  0  0  0  0  0  0  0  0
   -0.3822   -0.7659   -3.3965 H   0  0  0  0  0  0  0  0  0  0  0  0
    1.7403    0.0422   -2.4988 H   0  0  0  0  0  0  0  0  0  0  0  0
    3.3796   -2.4661   -2.5350 H   0  0  0  0  0  0  0  0  0  0  0  0
    3.4615   -2.9750   -4.8535 H   0  0  0  0  0  0  0  0  0  0  0  0
    3.4581   -0.2346   -6.2945 H   0  0  0  0  0  0  0  0  0  0  0  0
    5.5806    1.7265   -4.1913 H   0  0  0  0  0  0  0  0  0  0  0  0
    8.0341    0.9767   -1.7844 H   0  0  0  0  0  0  0  0  0  0  0  0
    9.3506    0.8120    0.2575 H   0  0  0  0  0  0  0  0  0  0  0  0
    7.8215    2.3149    2.4189 H   0  0  0  0  0  0  0  0  0  0  0  0
    4.4775    1.3562    1.7208 H   0  0  0  0  0  0  0  0  0  0  0  0
  1  2  2  0  0  0  0
  2  3  1  0  0  0  0
  2  9  1  0  0  0  0
  3  4  1  0  0  0  0
  3  8  2  0  0  0  0
  4  5  2  0  0  0  0
  4 26  1  0  0  0  0
  5  6  1  0  0  0  0
  5 27  1  0  0  0  0
  6  7  2  0  0  0  0
  6 28  1  0  0  0  0
  7  8  1  0  0  0  0
  7 29  1  0  0  0  0
  8 30  1  0  0  0  0
  9 10  1  0  0  0  0
  9 25  1  0  0  0  0
 10 11  1  0  0  0  0
 10 17  2  0  0  0  0
 11 12  2  0  0  0  0
 11 31  1  0  0  0  0
 12 13  1  0  0  0  0
 12 14  1  0  0  0  0
 13 32  1  0  0  0  0
 14 15  1  0  0  0  0
 14 16  2  0  0  0  0
 15 33  1  0  0  0  0
 16 17  1  0  0  0  0
 16 34  1  0  0  0  0
 17 18  1  0  0  0  0
 18 19  1  0  0  0  0
 18 25  2  0  0  0  0
 19 20  2  0  0  0  0
 19 35  1  0  0  0  0
 20 21  1  0  0  0  0
 20 22  1  0  0  0  0
 21 36  1  0  0  0  0
 22 23  1  0  0  0  0
 22 24  2  0  0  0  0
 23 37  1  0  0  0  0
 24 25  1  0  0  0  0
 24 38  1  0  0  0  0
M  END
$$$$
