
 OpenBabel01112422353D

 67 73  0  0  1  0  0  0  0  0999 V2000
   21.6315    5.4425   20.7566 C   0  0  0  0  0  0  0  0  0  0  0  0
   21.3317    4.1945   20.1002 N   0  0  0  0  0  0  0  0  0  0  0  0
   22.3689    3.2664   19.9197 C   0  0  0  0  0  0  0  0  0  0  0  0
   21.6683    2.0795   19.9029 C   0  0  0  0  0  0  0  0  0  0  0  0
   20.6750    2.4533   18.9664 C   0  0  0  0  0  0  0  0  0  0  0  0
   20.0214    1.7217   17.9647 C   0  0  0  0  0  0  0  0  0  0  0  0
   18.8664    2.2243   17.4128 C   0  0  0  0  0  0  0  0  0  0  0  0
   18.2856    3.3188   18.0387 C   0  0  0  0  0  0  0  0  0  0  0  0
   16.9390    3.5422   17.7831 C   0  0  0  0  0  0  0  0  0  0  0  0
   16.1352    3.1753   16.7295 N   0  0  0  0  0  0  0  0  0  0  0  0
   14.9794    3.9246   16.7273 C   0  0  0  0  0  0  0  0  0  0  0  0
   14.0454    4.0659   15.6859 C   0  0  0  0  0  0  0  0  0  0  0  0
   14.1848    3.3411   14.3695 C   0  0  0  0  0  0  0  0  0  0  0  0
   14.1303    1.8152   14.5178 C   0  0  0  0  0  0  0  0  0  0  0  0
   12.8174    1.3636   15.1542 C   0  0  0  0  0  0  0  0  0  0  0  0
   12.7986   -0.0922   15.2981 N   0  0  0  0  0  0  0  0  0  0  0  0
   11.5700   -0.5632   15.9557 C   0  0  1  0  0  0  0  0  0  0  0  0
   10.3213   -0.2628   15.1076 C   0  0  0  0  0  0  0  0  0  0  0  0
    9.0635   -0.8979   15.6852 C   0  0  0  0  0  0  0  0  0  0  0  0
    9.2454   -2.3975   15.8824 C   0  0  2  0  0  0  0  0  0  0  0  0
    8.0672   -2.9500   16.4554 O   0  0  0  0  0  0  0  0  0  0  0  0
   10.4421   -2.6848   16.7845 C   0  0  0  0  0  0  0  0  0  0  0  0
   11.7196   -2.0718   16.2194 C   0  0  0  0  0  0  0  0  0  0  0  0
   12.9733    4.9369   15.9331 C   0  0  0  0  0  0  0  0  0  0  0  0
   12.8191    5.5917   17.1573 C   0  0  0  0  0  0  0  0  0  0  0  0
   13.7629    5.4034   18.1824 C   0  0  0  0  0  0  0  0  0  0  0  0
   14.8906    4.6020   17.9514 C   0  0  0  0  0  0  0  0  0  0  0  0
   16.1176    4.2912   18.5637 C   0  0  0  0  0  0  0  0  0  0  0  0
   16.6964    5.0959   19.5835 C   0  0  0  0  0  0  0  0  0  0  0  0
   18.1134    5.2373   19.4229 C   0  0  0  0  0  0  0  0  0  0  0  0
   18.9448    4.1870   18.9642 C   0  0  0  0  0  0  0  0  0  0  0  0
   20.2472    3.7622   19.3439 C   0  0  0  0  0  0  0  0  0  0  0  0
   18.2052    6.6827   19.2138 C   0  0  0  0  0  0  0  0  0  0  0  0
   18.8323    7.3513   18.3983 O   0  0  0  0  0  0  0  0  0  0  0  0
   17.1066    7.1837   19.8894 N   0  0  0  0  0  0  0  0  0  0  0  0
   16.1530    6.2548   20.2000 C   0  0  0  0  0  0  0  0  0  0  0  0
   15.1201    6.4893   20.8087 O   0  0  0  0  0  0  0  0  0  0  0  0
   20.9972    5.5312   21.6425 H   0  0  0  0  0  0  0  0  0  0  0  0
   21.5195    6.2630   20.0649 H   0  0  0  0  0  0  0  0  0  0  0  0
   22.6823    5.4005   21.0930 H   0  0  0  0  0  0  0  0  0  0  0  0
   23.1553    3.5773   19.2371 H   0  0  0  0  0  0  0  0  0  0  0  0
   21.3397    1.6353   20.8473 H   0  0  0  0  0  0  0  0  0  0  0  0
   20.4055    0.7546   17.6585 H   0  0  0  0  0  0  0  0  0  0  0  0
   18.3725    1.6571   16.6310 H   0  0  0  0  0  0  0  0  0  0  0  0
   16.4562    2.6401   15.9437 H   0  0  0  0  0  0  0  0  0  0  0  0
   15.1413    3.6295   13.9123 H   0  0  0  0  0  0  0  0  0  0  0  0
   13.4024    3.6687   13.6729 H   0  0  0  0  0  0  0  0  0  0  0  0
   14.9715    1.4427   15.1111 H   0  0  0  0  0  0  0  0  0  0  0  0
   14.2406    1.3631   13.5242 H   0  0  0  0  0  0  0  0  0  0  0  0
   12.0046    1.7069   14.5075 H   0  0  0  0  0  0  0  0  0  0  0  0
   12.6914    1.8222   16.1413 H   0  0  0  0  0  0  0  0  0  0  0  0
   13.6023   -0.3807   15.8576 H   0  0  0  0  0  0  0  0  0  0  0  0
   11.4654   -0.0650   16.9285 H   0  0  0  0  0  0  0  0  0  0  0  0
   10.4710   -0.6234   14.0814 H   0  0  0  0  0  0  0  0  0  0  0  0
   10.1474    0.8176   15.0441 H   0  0  0  0  0  0  0  0  0  0  0  0
    8.2099   -0.7063   15.0243 H   0  0  0  0  0  0  0  0  0  0  0  0
    8.8123   -0.4204   16.6415 H   0  0  0  0  0  0  0  0  0  0  0  0
    9.3929   -2.8808   14.9097 H   0  0  0  0  0  0  0  0  0  0  0  0
    7.9175   -2.5185   17.3137 H   0  0  0  0  0  0  0  0  0  0  0  0
   10.5654   -3.7675   16.9056 H   0  0  0  0  0  0  0  0  0  0  0  0
   10.2535   -2.2917   17.7921 H   0  0  0  0  0  0  0  0  0  0  0  0
   11.9828   -2.5923   15.2890 H   0  0  0  0  0  0  0  0  0  0  0  0
   12.5422   -2.2484   16.9234 H   0  0  0  0  0  0  0  0  0  0  0  0
   12.2276    5.1112   15.1596 H   0  0  0  0  0  0  0  0  0  0  0  0
   11.9839    6.2494   17.3211 H   0  0  0  0  0  0  0  0  0  0  0  0
   13.6182    5.9469   19.1080 H   0  0  0  0  0  0  0  0  0  0  0  0
   16.7650    8.1128   19.7049 H   0  0  0  0  0  0  0  0  0  0  0  0
  1  2  1  0  0  0  0
  1 38  1  0  0  0  0
  1 39  1  0  0  0  0
  1 40  1  0  0  0  0
  2  3  1  0  0  0  0
  2 32  1  0  0  0  0
  3  4  2  0  0  0  0
  3 41  1  0  0  0  0
  4  5  1  0  0  0  0
  4 42  1  0  0  0  0
  5  6  1  0  0  0  0
  5 32  2  0  0  0  0
  6  7  2  0  0  0  0
  6 43  1  0  0  0  0
  7  8  1  0  0  0  0
  7 44  1  0  0  0  0
  8  9  1  0  0  0  0
  8 31  2  0  0  0  0
  9 10  1  0  0  0  0
  9 28  2  0  0  0  0
 10 11  1  0  0  0  0
 10 45  1  0  0  0  0
 11 12  1  0  0  0  0
 11 27  2  0  0  0  0
 12 13  1  0  0  0  0
 12 24  2  0  0  0  0
 13 14  1  0  0  0  0
 13 46  1  0  0  0  0
 13 47  1  0  0  0  0
 14 15  1  0  0  0  0
 14 48  1  0  0  0  0
 14 49  1  0  0  0  0
 15 16  1  0  0  0  0
 15 50  1  0  0  0  0
 15 51  1  0  0  0  0
 16 52  1  0  0  0  0
 17 18  1  0  0  0  0
 17 23  1  0  0  0  0
 17 16  1  0  0  0  0
 17 53  1  1  0  0  0
 18 19  1  0  0  0  0
 18 54  1  0  0  0  0
 18 55  1  0  0  0  0
 19 20  1  0  0  0  0
 19 56  1  0  0  0  0
 19 57  1  0  0  0  0
 20 21  1  0  0  0  0
 20 22  1  0  0  0  0
 20 58  1  6  0  0  0
 21 59  1  0  0  0  0
 22 23  1  0  0  0  0
 22 60  1  0  0  0  0
 22 61  1  0  0  0  0
 23 62  1  0  0  0  0
 23 63  1  0  0  0  0
 24 25  1  0  0  0  0
 24 64  1  0  0  0  0
 25 26  2  0  0  0  0
 25 65  1  0  0  0  0
 26 27  1  0  0  0  0
 26 66  1  0  0  0  0
 27 28  1  0  0  0  0
 28 29  1  0  0  0  0
 29 30  2  0  0  0  0
 29 36  1  0  0  0  0
 30 31  1  0  0  0  0
 30 33  1  0  0  0  0
 31 32  1  0  0  0  0
 33 34  2  0  0  0  0
 33 35  1  0  0  0  0
 35 36  1  0  0  0  0
 35 67  1  0  0  0  0
 36 37  2  0  0  0  0
M  END
$$$$
