MODEL 1
REMARK VINA RESULT:   -11.227      0.000      0.000
REMARK INTER + INTRA:         -17.337
REMARK INTER:                 -16.149
REMARK INTRA:                  -1.188
REMARK UNBOUND:                -1.188
REMARK  Name = 
REMARK  8 active torsions:
REMARK  status: ('A' for Active; 'I' for Inactive)
REMARK    1  A    between atoms: C_2  and  C_3
REMARK    2  A    between atoms: C_6  and  O_7
REMARK    3  A    between atoms: O_7  and  C_8
REMARK    4  A    between atoms: C_8  and  C_9
REMARK    5  A    between atoms: C_9  and  N_10
REMARK    6  A    between atoms: C_9  and  C_11
REMARK    7  A    between atoms: C_11  and  C_12
REMARK    8  A    between atoms: C_22  and  C_23
REMARK                            x       y       z     vdW  Elec       q    Type
REMARK                         _______ _______ _______ _____ _____    ______ ____
ROOT
ATOM      1  C   UNL     1      -6.591  -4.747  20.290  0.00  0.00    +0.000 A 
ATOM      2  N   UNL     1      -6.122  -5.506  19.257  0.00  0.00    +0.000 NA
ATOM      3  C   UNL     1      -7.031  -5.920  18.331  0.00  0.00    +0.000 A 
ATOM      4  C   UNL     1      -8.385  -5.664  18.418  0.00  0.00    +0.000 A 
ATOM      5  C   UNL     1      -8.825  -4.894  19.497  0.00  0.00    +0.000 A 
ATOM      6  C   UNL     1      -7.919  -4.370  20.469  0.00  0.00    +0.000 A 
ATOM      7  H   UNL     1      -6.583  -6.450  17.494  0.00  0.00    +0.000 HD
ATOM      8  H   UNL     1      -9.887  -4.663  19.555  0.00  0.00    +0.000 HD
ENDROOT
BRANCH   6   9
ATOM      9  C   UNL     1      -8.397  -3.335  21.421  0.00  0.00    +0.000 A 
ATOM     10  C   UNL     1      -8.627  -2.032  20.946  0.00  0.00    +0.000 A 
ATOM     11  C   UNL     1      -8.745  -0.951  21.814  0.00  0.00    +0.000 A 
ATOM     12  C   UNL     1      -8.719  -1.155  23.194  0.00  0.00    +0.000 A 
ATOM     13  C   UNL     1      -8.702  -0.086  24.091  0.00  0.00    +0.000 A 
ATOM     14  N   UNL     1      -8.863  -0.212  25.424  0.00  0.00    +0.000 NA
ATOM     15  C   UNL     1      -9.021  -1.471  25.884  0.00  0.00    +0.000 A 
ATOM     16  C   UNL     1      -8.913  -2.609  25.094  0.00  0.00    +0.000 A 
ATOM     17  C   UNL     1      -8.723  -2.460  23.708  0.00  0.00    +0.000 A 
ATOM     18  C   UNL     1      -8.523  -3.544  22.812  0.00  0.00    +0.000 A 
ATOM     19  H   UNL     1      -8.647  -1.827  19.878  0.00  0.00    +0.000 HD
ATOM     20  H   UNL     1      -8.862   0.046  21.402  0.00  0.00    +0.000 HD
ATOM     21  H   UNL     1      -8.536   0.931  23.746  0.00  0.00    +0.000 HD
ATOM     22  H   UNL     1      -9.249  -1.537  26.946  0.00  0.00    +0.000 HD
ATOM     23  H   UNL     1      -9.003  -3.586  25.555  0.00  0.00    +0.000 HD
ATOM     24  H   UNL     1      -8.415  -4.547  23.221  0.00  0.00    +0.000 HD
ENDBRANCH   6   9
BRANCH   1  26
ATOM     25  C   UNL     1      -4.607  -3.882  21.799  0.00  0.00    +0.000 C 
ATOM     26  C   UNL     1      -5.518  -4.280  21.122  0.00  0.00    +0.000 C 
ATOM     27  H   UNL     1      -3.796  -3.537  22.402  0.00  0.00    +0.000 HD
ENDBRANCH   1  26
BRANCH   4  28
ATOM     28  O   UNL     1      -9.346  -6.033  17.522  0.00  0.00    +0.000 OA
BRANCH  28  29
ATOM     29  C   UNL     1      -9.317  -7.398  17.086  0.00  0.00    +0.000 C 
ATOM     30  H   UNL     1      -8.547  -7.958  17.631  0.00  0.00    +0.000 HD
ATOM     31  H   UNL     1      -9.093  -7.441  16.012  0.00  0.00    +0.000 HD
BRANCH  29  32
ATOM     32  C   UNL     1     -10.691  -8.049  17.370  0.00  0.00    +0.000 C 
ATOM     33  H   UNL     1     -10.582  -8.650  18.280  0.00  0.00    +0.000 HD
BRANCH  32  34
ATOM     34  N   UNL     1     -11.702  -7.005  17.645  0.00  0.00    +0.000 NA
ATOM     35  H   UNL     1     -11.297  -6.098  17.404  0.00  0.00    +0.000 HD
ATOM     36  H   UNL     1     -11.875  -6.959  18.649  0.00  0.00    +0.000 HD
ENDBRANCH  32  34
BRANCH  32  37
ATOM     37  C   UNL     1     -11.107  -8.972  16.194  0.00  0.00    +0.000 C 
ATOM     38  H   UNL     1     -11.415  -8.338  15.352  0.00  0.00    +0.000 HD
ATOM     39  H   UNL     1     -11.982  -9.571  16.473  0.00  0.00    +0.000 HD
BRANCH  37  40
ATOM     40  C   UNL     1     -10.030  -9.867  15.659  0.00  0.00    +0.000 A 
ATOM     41  C   UNL     1      -9.662 -10.001  14.332  0.00  0.00    +0.000 A 
ATOM     42  N   UNL     1      -8.538 -10.775  14.337  0.00  0.00    +0.000 N 
ATOM     43  C   UNL     1      -8.613 -11.626  15.408  0.00  0.00    +0.000 A 
ATOM     44  C   UNL     1      -8.093 -12.903  15.617  0.00  0.00    +0.000 A 
ATOM     45  C   UNL     1      -8.270 -13.449  16.890  0.00  0.00    +0.000 A 
ATOM     46  C   UNL     1      -8.808 -12.684  17.926  0.00  0.00    +0.000 A 
ATOM     47  C   UNL     1      -9.321 -11.399  17.687  0.00  0.00    +0.000 A 
ATOM     48  C   UNL     1      -9.330 -10.912  16.367  0.00  0.00    +0.000 A 
ATOM     49  H   UNL     1     -10.016  -9.532  13.424  0.00  0.00    +0.000 HD
ATOM     50  H   UNL     1      -7.690 -10.565  13.829  0.00  0.00    +0.000 HD
ATOM     51  H   UNL     1      -7.654 -13.480  14.810  0.00  0.00    +0.000 HD
ATOM     52  H   UNL     1      -7.978 -14.480  17.075  0.00  0.00    +0.000 HD
ATOM     53  H   UNL     1      -8.879 -13.110  18.923  0.00  0.00    +0.000 HD
ATOM     54  H   UNL     1      -9.772 -10.832  18.495  0.00  0.00    +0.000 HD
ENDBRANCH  37  40
ENDBRANCH  32  37
ENDBRANCH  29  32
ENDBRANCH  28  29
ENDBRANCH   4  28
TORSDOF 8
ENDMDL
MODEL 2
REMARK VINA RESULT:   -11.168      1.087      1.661
REMARK INTER + INTRA:         -17.252
REMARK INTER:                 -16.244
REMARK INTRA:                  -1.008
REMARK UNBOUND:                -1.188
REMARK  Name = 
REMARK  8 active torsions:
REMARK  status: ('A' for Active; 'I' for Inactive)
REMARK    1  A    between atoms: C_2  and  C_3
REMARK    2  A    between atoms: C_6  and  O_7
REMARK    3  A    between atoms: O_7  and  C_8
REMARK    4  A    between atoms: C_8  and  C_9
REMARK    5  A    between atoms: C_9  and  N_10
REMARK    6  A    between atoms: C_9  and  C_11
REMARK    7  A    between atoms: C_11  and  C_12
REMARK    8  A    between atoms: C_22  and  C_23
REMARK                            x       y       z     vdW  Elec       q    Type
REMARK                         _______ _______ _______ _____ _____    ______ ____
ROOT
ATOM      1  C   UNL     1      -6.601  -4.727  20.291  0.00  0.00    +0.000 A 
ATOM      2  N   UNL     1      -6.130  -5.476  19.251  0.00  0.00    +0.000 NA
ATOM      3  C   UNL     1      -7.035  -5.871  18.313  0.00  0.00    +0.000 A 
ATOM      4  C   UNL     1      -8.387  -5.607  18.394  0.00  0.00    +0.000 A 
ATOM      5  C   UNL     1      -8.830  -4.847  19.480  0.00  0.00    +0.000 A 
ATOM      6  C   UNL     1      -7.927  -4.343  20.465  0.00  0.00    +0.000 A 
ATOM      7  H   UNL     1      -6.585  -6.393  17.472  0.00  0.00    +0.000 HD
ATOM      8  H   UNL     1      -9.891  -4.610  19.534  0.00  0.00    +0.000 HD
ENDROOT
BRANCH   6   9
ATOM      9  C   UNL     1      -8.403  -3.317  21.428  0.00  0.00    +0.000 A 
ATOM     10  C   UNL     1      -8.636  -2.010  20.965  0.00  0.00    +0.000 A 
ATOM     11  C   UNL     1      -8.753  -0.936  21.842  0.00  0.00    +0.000 A 
ATOM     12  C   UNL     1      -8.724  -1.154  23.221  0.00  0.00    +0.000 A 
ATOM     13  C   UNL     1      -8.706  -0.092  24.128  0.00  0.00    +0.000 A 
ATOM     14  N   UNL     1      -8.865  -0.231  25.459  0.00  0.00    +0.000 NA
ATOM     15  C   UNL     1      -9.021  -1.494  25.908  0.00  0.00    +0.000 A 
ATOM     16  C   UNL     1      -8.914  -2.625  25.108  0.00  0.00    +0.000 A 
ATOM     17  C   UNL     1      -8.726  -2.463  23.723  0.00  0.00    +0.000 A 
ATOM     18  C   UNL     1      -8.527  -3.538  22.817  0.00  0.00    +0.000 A 
ATOM     19  H   UNL     1      -8.658  -1.795  19.899  0.00  0.00    +0.000 HD
ATOM     20  H   UNL     1      -8.871   0.064  21.439  0.00  0.00    +0.000 HD
ATOM     21  H   UNL     1      -8.543   0.928  23.791  0.00  0.00    +0.000 HD
ATOM     22  H   UNL     1      -9.248  -1.570  26.970  0.00  0.00    +0.000 HD
ATOM     23  H   UNL     1      -9.002  -3.606  25.560  0.00  0.00    +0.000 HD
ATOM     24  H   UNL     1      -8.418  -4.545  23.217  0.00  0.00    +0.000 HD
ENDBRANCH   6   9
BRANCH   1  26
ATOM     25  C   UNL     1      -4.636  -3.881  21.835  0.00  0.00    +0.000 C 
ATOM     26  C   UNL     1      -5.530  -4.279  21.136  0.00  0.00    +0.000 C 
ATOM     27  H   UNL     1      -3.835  -3.533  22.450  0.00  0.00    +0.000 HD
ENDBRANCH   1  26
BRANCH   4  28
ATOM     28  O   UNL     1      -9.345  -5.957  17.487  0.00  0.00    +0.000 OA
BRANCH  28  29
ATOM     29  C   UNL     1     -10.495  -6.634  18.007  0.00  0.00    +0.000 C 
ATOM     30  H   UNL     1     -11.415  -6.141  17.670  0.00  0.00    +0.000 HD
ATOM     31  H   UNL     1     -10.469  -6.624  19.105  0.00  0.00    +0.000 HD
BRANCH  29  32
ATOM     32  C   UNL     1     -10.502  -8.092  17.489  0.00  0.00    +0.000 C 
ATOM     33  H   UNL     1     -11.141  -8.672  18.165  0.00  0.00    +0.000 HD
BRANCH  32  34
ATOM     34  N   UNL     1     -11.113  -8.150  16.144  0.00  0.00    +0.000 NA
ATOM     35  H   UNL     1     -11.835  -7.429  16.090  0.00  0.00    +0.000 HD
ATOM     36  H   UNL     1     -11.611  -9.034  16.036  0.00  0.00    +0.000 HD
ENDBRANCH  32  34
BRANCH  32  37
ATOM     37  C   UNL     1      -9.068  -8.682  17.508  0.00  0.00    +0.000 C 
ATOM     38  H   UNL     1      -8.503  -8.185  18.308  0.00  0.00    +0.000 HD
ATOM     39  H   UNL     1      -8.551  -8.453  16.569  0.00  0.00    +0.000 HD
BRANCH  37  40
ATOM     40  C   UNL     1      -8.974 -10.151  17.793  0.00  0.00    +0.000 A 
ATOM     41  C   UNL     1      -8.585 -10.729  18.989  0.00  0.00    +0.000 A 
ATOM     42  N   UNL     1      -8.820 -12.066  18.847  0.00  0.00    +0.000 N 
ATOM     43  C   UNL     1      -8.663 -12.386  17.524  0.00  0.00    +0.000 A 
ATOM     44  C   UNL     1      -8.267 -13.567  16.895  0.00  0.00    +0.000 A 
ATOM     45  C   UNL     1      -8.322 -13.580  15.500  0.00  0.00    +0.000 A 
ATOM     46  C   UNL     1      -8.886 -12.514  14.798  0.00  0.00    +0.000 A 
ATOM     47  C   UNL     1      -9.280 -11.339  15.457  0.00  0.00    +0.000 A 
ATOM     48  C   UNL     1      -9.048 -11.233  16.841  0.00  0.00    +0.000 A 
ATOM     49  H   UNL     1      -8.286 -10.310  19.940  0.00  0.00    +0.000 HD
ATOM     50  H   UNL     1      -9.298 -12.643  19.524  0.00  0.00    +0.000 HD
ATOM     51  H   UNL     1      -7.852 -14.399  17.453  0.00  0.00    +0.000 HD
ATOM     52  H   UNL     1      -7.925 -14.435  14.958  0.00  0.00    +0.000 HD
ATOM     53  H   UNL     1      -8.974 -12.575  13.717  0.00  0.00    +0.000 HD
ATOM     54  H   UNL     1      -9.681 -10.504  14.893  0.00  0.00    +0.000 HD
ENDBRANCH  37  40
ENDBRANCH  32  37
ENDBRANCH  29  32
ENDBRANCH  28  29
ENDBRANCH   4  28
TORSDOF 8
ENDMDL
MODEL 3
REMARK VINA RESULT:   -10.831      2.246      3.282
REMARK INTER + INTRA:         -16.768
REMARK INTER:                 -15.808
REMARK INTRA:                  -0.960
REMARK UNBOUND:                -1.188
REMARK  Name = 
REMARK  8 active torsions:
REMARK  status: ('A' for Active; 'I' for Inactive)
REMARK    1  A    between atoms: C_2  and  C_3
REMARK    2  A    between atoms: C_6  and  O_7
REMARK    3  A    between atoms: O_7  and  C_8
REMARK    4  A    between atoms: C_8  and  C_9
REMARK    5  A    between atoms: C_9  and  N_10
REMARK    6  A    between atoms: C_9  and  C_11
REMARK    7  A    between atoms: C_11  and  C_12
REMARK    8  A    between atoms: C_22  and  C_23
REMARK                            x       y       z     vdW  Elec       q    Type
REMARK                         _______ _______ _______ _____ _____    ______ ____
ROOT
ATOM      1  C   UNL     1      -9.975  -1.713  18.209  0.00  0.00    +0.000 A 
ATOM      2  N   UNL     1     -10.688  -1.729  17.045  0.00  0.00    +0.000 NA
ATOM      3  C   UNL     1     -11.202  -2.927  16.650  0.00  0.00    +0.000 A 
ATOM      4  C   UNL     1     -10.988  -4.112  17.326  0.00  0.00    +0.000 A 
ATOM      5  C   UNL     1     -10.244  -4.054  18.506  0.00  0.00    +0.000 A 
ATOM      6  C   UNL     1      -9.732  -2.821  19.015  0.00  0.00    +0.000 A 
ATOM      7  H   UNL     1     -11.824  -2.858  15.762  0.00  0.00    +0.000 HD
ATOM      8  H   UNL     1     -10.097  -4.980  19.060  0.00  0.00    +0.000 HD
ENDROOT
BRANCH   6   9
ATOM      9  C   UNL     1      -9.199  -2.774  20.400  0.00  0.00    +0.000 A 
ATOM     10  C   UNL     1      -8.077  -3.559  20.722  0.00  0.00    +0.000 A 
ATOM     11  C   UNL     1      -7.732  -3.827  22.043  0.00  0.00    +0.000 A 
ATOM     12  C   UNL     1      -8.453  -3.246  23.087  0.00  0.00    +0.000 A 
ATOM     13  C   UNL     1      -8.219  -3.594  24.419  0.00  0.00    +0.000 A 
ATOM     14  N   UNL     1      -8.745  -2.942  25.476  0.00  0.00    +0.000 NA
ATOM     15  C   UNL     1      -9.565  -1.910  25.186  0.00  0.00    +0.000 A 
ATOM     16  C   UNL     1      -9.970  -1.574  23.900  0.00  0.00    +0.000 A 
ATOM     17  C   UNL     1      -9.429  -2.278  22.810  0.00  0.00    +0.000 A 
ATOM     18  C   UNL     1      -9.821  -2.078  21.460  0.00  0.00    +0.000 A 
ATOM     19  H   UNL     1      -7.492  -4.037  19.940  0.00  0.00    +0.000 HD
ATOM     20  H   UNL     1      -6.894  -4.487  22.246  0.00  0.00    +0.000 HD
ATOM     21  H   UNL     1      -7.594  -4.446  24.673  0.00  0.00    +0.000 HD
ATOM     22  H   UNL     1      -9.894  -1.340  26.052  0.00  0.00    +0.000 HD
ATOM     23  H   UNL     1     -10.673  -0.760  23.761  0.00  0.00    +0.000 HD
ATOM     24  H   UNL     1     -10.654  -1.409  21.252  0.00  0.00    +0.000 HD
ENDBRANCH   6   9
BRANCH   1  26
ATOM     25  C   UNL     1      -9.289   0.753  18.850  0.00  0.00    +0.000 C 
ATOM     26  C   UNL     1      -9.596  -0.375  18.569  0.00  0.00    +0.000 C 
ATOM     27  H   UNL     1      -9.007   1.753  19.098  0.00  0.00    +0.000 HD
ENDBRANCH   1  26
BRANCH   4  28
ATOM     28  O   UNL     1     -11.483  -5.341  16.997  0.00  0.00    +0.000 OA
BRANCH  28  29
ATOM     29  C   UNL     1     -10.638  -6.170  16.190  0.00  0.00    +0.000 C 
ATOM     30  H   UNL     1      -9.605  -5.804  16.215  0.00  0.00    +0.000 HD
ATOM     31  H   UNL     1     -10.992  -6.163  15.151  0.00  0.00    +0.000 HD
BRANCH  29  32
ATOM     32  C   UNL     1     -10.661  -7.613  16.750  0.00  0.00    +0.000 C 
ATOM     33  H   UNL     1     -11.107  -7.564  17.750  0.00  0.00    +0.000 HD
BRANCH  32  34
ATOM     34  N   UNL     1     -11.534  -8.467  15.916  0.00  0.00    +0.000 NA
ATOM     35  H   UNL     1     -12.384  -7.941  15.702  0.00  0.00    +0.000 HD
ATOM     36  H   UNL     1     -11.848  -9.267  16.465  0.00  0.00    +0.000 HD
ENDBRANCH  32  34
BRANCH  32  37
ATOM     37  C   UNL     1      -9.220  -8.176  16.857  0.00  0.00    +0.000 C 
ATOM     38  H   UNL     1      -8.645  -7.522  17.526  0.00  0.00    +0.000 HD
ATOM     39  H   UNL     1      -8.725  -8.141  15.880  0.00  0.00    +0.000 HD
BRANCH  37  40
ATOM     40  C   UNL     1      -9.104  -9.555  17.435  0.00  0.00    +0.000 A 
ATOM     41  C   UNL     1      -8.766  -9.869  18.740  0.00  0.00    +0.000 A 
ATOM     42  N   UNL     1      -8.958 -11.215  18.857  0.00  0.00    +0.000 N 
ATOM     43  C   UNL     1      -8.720 -11.785  17.634  0.00  0.00    +0.000 A 
ATOM     44  C   UNL     1      -8.259 -13.052  17.275  0.00  0.00    +0.000 A 
ATOM     45  C   UNL     1      -8.236 -13.344  15.910  0.00  0.00    +0.000 A 
ATOM     46  C   UNL     1      -8.789 -12.461  14.982  0.00  0.00    +0.000 A 
ATOM     47  C   UNL     1      -9.249 -11.193  15.372  0.00  0.00    +0.000 A 
ATOM     48  C   UNL     1      -9.096 -10.806  16.717  0.00  0.00    +0.000 A 
ATOM     49  H   UNL     1      -8.531  -9.258  19.601  0.00  0.00    +0.000 HD
ATOM     50  H   UNL     1      -9.457 -11.663  19.612  0.00  0.00    +0.000 HD
ATOM     51  H   UNL     1      -7.854 -13.742  18.009  0.00  0.00    +0.000 HD
ATOM     52  H   UNL     1      -7.788 -14.275  15.570  0.00  0.00    +0.000 HD
ATOM     53  H   UNL     1      -8.815 -12.738  13.932  0.00  0.00    +0.000 HD
ATOM     54  H   UNL     1      -9.640 -10.502  14.633  0.00  0.00    +0.000 HD
ENDBRANCH  37  40
ENDBRANCH  32  37
ENDBRANCH  29  32
ENDBRANCH  28  29
ENDBRANCH   4  28
TORSDOF 8
ENDMDL
MODEL 4
REMARK VINA RESULT:   -10.694      2.480      3.309
REMARK INTER + INTRA:         -16.571
REMARK INTER:                 -15.339
REMARK INTRA:                  -1.231
REMARK UNBOUND:                -1.188
REMARK  Name = 
REMARK  8 active torsions:
REMARK  status: ('A' for Active; 'I' for Inactive)
REMARK    1  A    between atoms: C_2  and  C_3
REMARK    2  A    between atoms: C_6  and  O_7
REMARK    3  A    between atoms: O_7  and  C_8
REMARK    4  A    between atoms: C_8  and  C_9
REMARK    5  A    between atoms: C_9  and  N_10
REMARK    6  A    between atoms: C_9  and  C_11
REMARK    7  A    between atoms: C_11  and  C_12
REMARK    8  A    between atoms: C_22  and  C_23
REMARK                            x       y       z     vdW  Elec       q    Type
REMARK                         _______ _______ _______ _____ _____    ______ ____
ROOT
ATOM      1  C   UNL     1      -8.064  -3.122  21.085  0.00  0.00    +0.000 A 
ATOM      2  N   UNL     1      -7.226  -4.198  21.021  0.00  0.00    +0.000 NA
ATOM      3  C   UNL     1      -7.455  -5.103  20.030  0.00  0.00    +0.000 A 
ATOM      4  C   UNL     1      -8.510  -5.017  19.143  0.00  0.00    +0.000 A 
ATOM      5  C   UNL     1      -9.351  -3.907  19.249  0.00  0.00    +0.000 A 
ATOM      6  C   UNL     1      -9.130  -2.885  20.222  0.00  0.00    +0.000 A 
ATOM      7  H   UNL     1      -6.708  -5.891  19.983  0.00  0.00    +0.000 HD
ATOM      8  H   UNL     1     -10.166  -3.818  18.534  0.00  0.00    +0.000 HD
ENDROOT
BRANCH   6   9
ATOM      9  C   UNL     1      -9.873  -1.604  20.109  0.00  0.00    +0.000 A 
ATOM     10  C   UNL     1      -9.386  -0.614  19.237  0.00  0.00    +0.000 A 
ATOM     11  C   UNL     1      -9.817   0.707  19.322  0.00  0.00    +0.000 A 
ATOM     12  C   UNL     1     -10.814   1.061  20.232  0.00  0.00    +0.000 A 
ATOM     13  C   UNL     1     -11.177   2.393  20.438  0.00  0.00    +0.000 A 
ATOM     14  N   UNL     1     -12.249   2.784  21.156  0.00  0.00    +0.000 NA
ATOM     15  C   UNL     1     -12.976   1.796  21.720  0.00  0.00    +0.000 A 
ATOM     16  C   UNL     1     -12.620   0.453  21.692  0.00  0.00    +0.000 A 
ATOM     17  C   UNL     1     -11.486   0.064  20.956  0.00  0.00    +0.000 A 
ATOM     18  C   UNL     1     -10.981  -1.262  20.914  0.00  0.00    +0.000 A 
ATOM     19  H   UNL     1      -8.603  -0.844  18.518  0.00  0.00    +0.000 HD
ATOM     20  H   UNL     1      -9.370   1.451  18.670  0.00  0.00    +0.000 HD
ATOM     21  H   UNL     1     -10.582   3.204  20.026  0.00  0.00    +0.000 HD
ATOM     22  H   UNL     1     -13.889   2.131  22.208  0.00  0.00    +0.000 HD
ATOM     23  H   UNL     1     -13.235  -0.270  22.215  0.00  0.00    +0.000 HD
ATOM     24  H   UNL     1     -11.433  -2.013  21.560  0.00  0.00    +0.000 HD
ENDBRANCH   6   9
BRANCH   1  26
ATOM     25  C   UNL     1      -7.262  -1.418  22.933  0.00  0.00    +0.000 C 
ATOM     26  C   UNL     1      -7.640  -2.191  22.093  0.00  0.00    +0.000 C 
ATOM     27  H   UNL     1      -6.930  -0.737  23.686  0.00  0.00    +0.000 HD
ENDBRANCH   1  26
BRANCH   4  28
ATOM     28  O   UNL     1      -8.790  -5.876  18.120  0.00  0.00    +0.000 OA
BRANCH  28  29
ATOM     29  C   UNL     1     -10.177  -6.128  17.864  0.00  0.00    +0.000 C 
ATOM     30  H   UNL     1     -10.548  -5.461  17.076  0.00  0.00    +0.000 HD
ATOM     31  H   UNL     1     -10.761  -5.957  18.777  0.00  0.00    +0.000 HD
BRANCH  29  32
ATOM     32  C   UNL     1     -10.347  -7.591  17.389  0.00  0.00    +0.000 C 
ATOM     33  H   UNL     1     -10.957  -8.105  18.140  0.00  0.00    +0.000 HD
BRANCH  32  34
ATOM     34  N   UNL     1     -11.093  -7.627  16.112  0.00  0.00    +0.000 NA
ATOM     35  H   UNL     1     -10.437  -7.864  15.366  0.00  0.00    +0.000 HD
ATOM     36  H   UNL     1     -11.423  -6.688  15.887  0.00  0.00    +0.000 HD
ENDBRANCH  32  34
BRANCH  32  37
ATOM     37  C   UNL     1      -8.967  -8.290  17.281  0.00  0.00    +0.000 C 
ATOM     38  H   UNL     1      -8.276  -7.795  17.976  0.00  0.00    +0.000 HD
ATOM     39  H   UNL     1      -8.552  -8.158  16.275  0.00  0.00    +0.000 HD
BRANCH  37  40
ATOM     40  C   UNL     1      -8.946  -9.744  17.650  0.00  0.00    +0.000 A 
ATOM     41  C   UNL     1      -8.634 -10.267  18.893  0.00  0.00    +0.000 A 
ATOM     42  N   UNL     1      -8.917 -11.600  18.814  0.00  0.00    +0.000 N 
ATOM     43  C   UNL     1      -8.715 -12.000  17.519  0.00  0.00    +0.000 A 
ATOM     44  C   UNL     1      -8.339 -13.229  16.975  0.00  0.00    +0.000 A 
ATOM     45  C   UNL     1      -8.333 -13.319  15.582  0.00  0.00    +0.000 A 
ATOM     46  C   UNL     1      -8.822 -12.275  14.797  0.00  0.00    +0.000 A 
ATOM     47  C   UNL     1      -9.197 -11.050  15.371  0.00  0.00    +0.000 A 
ATOM     48  C   UNL     1      -9.021 -10.874  16.757  0.00  0.00    +0.000 A 
ATOM     49  H   UNL     1      -8.361  -9.806  19.832  0.00  0.00    +0.000 HD
ATOM     50  H   UNL     1      -9.447 -12.119  19.499  0.00  0.00    +0.000 HD
ATOM     51  H   UNL     1      -7.984 -14.044  17.597  0.00  0.00    +0.000 HD
ATOM     52  H   UNL     1      -7.948 -14.218  15.107  0.00  0.00    +0.000 HD
ATOM     53  H   UNL     1      -8.864 -12.393  13.718  0.00  0.00    +0.000 HD
ATOM     54  H   UNL     1      -9.538 -10.233  14.744  0.00  0.00    +0.000 HD
ENDBRANCH  37  40
ENDBRANCH  32  37
ENDBRANCH  29  32
ENDBRANCH  28  29
ENDBRANCH   4  28
TORSDOF 8
ENDMDL
MODEL 5
REMARK VINA RESULT:   -10.658      5.468      8.442
REMARK INTER + INTRA:         -16.519
REMARK INTER:                 -15.346
REMARK INTRA:                  -1.173
REMARK UNBOUND:                -1.188
REMARK  Name = 
REMARK  8 active torsions:
REMARK  status: ('A' for Active; 'I' for Inactive)
REMARK    1  A    between atoms: C_2  and  C_3
REMARK    2  A    between atoms: C_6  and  O_7
REMARK    3  A    between atoms: O_7  and  C_8
REMARK    4  A    between atoms: C_8  and  C_9
REMARK    5  A    between atoms: C_9  and  N_10
REMARK    6  A    between atoms: C_9  and  C_11
REMARK    7  A    between atoms: C_11  and  C_12
REMARK    8  A    between atoms: C_22  and  C_23
REMARK                            x       y       z     vdW  Elec       q    Type
REMARK                         _______ _______ _______ _____ _____    ______ ____
ROOT
ATOM      1  C   UNL     1     -12.187  -2.611  15.717  0.00  0.00    +0.000 A 
ATOM      2  N   UNL     1     -12.114  -2.979  17.030  0.00  0.00    +0.000 NA
ATOM      3  C   UNL     1     -11.582  -4.203  17.301  0.00  0.00    +0.000 A 
ATOM      4  C   UNL     1     -11.178  -5.095  16.328  0.00  0.00    +0.000 A 
ATOM      5  C   UNL     1     -11.280  -4.685  14.997  0.00  0.00    +0.000 A 
ATOM      6  C   UNL     1     -11.766  -3.390  14.643  0.00  0.00    +0.000 A 
ATOM      7  H   UNL     1     -11.477  -4.402  18.364  0.00  0.00    +0.000 HD
ATOM      8  H   UNL     1     -10.936  -5.372  14.226  0.00  0.00    +0.000 HD
ENDROOT
BRANCH   6   9
ATOM      9  C   UNL     1     -11.590  -2.905  13.250  0.00  0.00    +0.000 A 
ATOM     10  C   UNL     1     -12.570  -3.222  12.293  0.00  0.00    +0.000 A 
ATOM     11  C   UNL     1     -12.322  -3.102  10.928  0.00  0.00    +0.000 A 
ATOM     12  C   UNL     1     -11.108  -2.578  10.482  0.00  0.00    +0.000 A 
ATOM     13  C   UNL     1     -10.772  -2.564   9.127  0.00  0.00    +0.000 A 
ATOM     14  N   UNL     1      -9.708  -1.911   8.617  0.00  0.00    +0.000 NA
ATOM     15  C   UNL     1      -8.928  -1.264   9.507  0.00  0.00    +0.000 A 
ATOM     16  C   UNL     1      -9.095  -1.333  10.885  0.00  0.00    +0.000 A 
ATOM     17  C   UNL     1     -10.198  -2.037  11.403  0.00  0.00    +0.000 A 
ATOM     18  C   UNL     1     -10.432  -2.240  12.788  0.00  0.00    +0.000 A 
ATOM     19  H   UNL     1     -13.527  -3.640  12.596  0.00  0.00    +0.000 HD
ATOM     20  H   UNL     1     -13.085  -3.415  10.223  0.00  0.00    +0.000 HD
ATOM     21  H   UNL     1     -11.364  -3.111   8.399  0.00  0.00    +0.000 HD
ATOM     22  H   UNL     1      -8.137  -0.664   9.062  0.00  0.00    +0.000 HD
ATOM     23  H   UNL     1      -8.390  -0.823  11.532  0.00  0.00    +0.000 HD
ATOM     24  H   UNL     1      -9.673  -1.918  13.499  0.00  0.00    +0.000 HD
ENDBRANCH   6   9
BRANCH   1  26
ATOM     25  C   UNL     1     -13.064  -0.136  15.460  0.00  0.00    +0.000 C 
ATOM     26  C   UNL     1     -12.652  -1.259  15.580  0.00  0.00    +0.000 C 
ATOM     27  H   UNL     1     -13.425   0.862  15.345  0.00  0.00    +0.000 HD
ENDBRANCH   1  26
BRANCH   4  28
ATOM     28  O   UNL     1     -10.624  -6.326  16.527  0.00  0.00    +0.000 OA
BRANCH  28  29
ATOM     29  C   UNL     1      -9.386  -6.582  15.854  0.00  0.00    +0.000 C 
ATOM     30  H   UNL     1      -8.937  -5.643  15.508  0.00  0.00    +0.000 HD
ATOM     31  H   UNL     1      -9.561  -7.233  14.988  0.00  0.00    +0.000 HD
BRANCH  29  32
ATOM     32  C   UNL     1      -8.405  -7.262  16.839  0.00  0.00    +0.000 C 
ATOM     33  H   UNL     1      -7.890  -8.056  16.287  0.00  0.00    +0.000 HD
BRANCH  32  34
ATOM     34  N   UNL     1      -7.378  -6.293  17.282  0.00  0.00    +0.000 NA
ATOM     35  H   UNL     1      -7.504  -5.430  16.751  0.00  0.00    +0.000 HD
ATOM     36  H   UNL     1      -6.454  -6.635  17.017  0.00  0.00    +0.000 HD
ENDBRANCH  32  34
BRANCH  32  37
ATOM     37  C   UNL     1      -9.177  -7.884  18.032  0.00  0.00    +0.000 C 
ATOM     38  H   UNL     1     -10.249  -7.703  17.879  0.00  0.00    +0.000 HD
ATOM     39  H   UNL     1      -8.902  -7.379  18.966  0.00  0.00    +0.000 HD
BRANCH  37  40
ATOM     40  C   UNL     1      -9.032  -9.367  18.196  0.00  0.00    +0.000 A 
ATOM     41  C   UNL     1      -8.519 -10.022  19.302  0.00  0.00    +0.000 A 
ATOM     42  N   UNL     1      -8.744 -11.350  19.083  0.00  0.00    +0.000 N 
ATOM     43  C   UNL     1      -8.711 -11.568  17.731  0.00  0.00    +0.000 A 
ATOM     44  C   UNL     1      -8.358 -12.690  16.980  0.00  0.00    +0.000 A 
ATOM     45  C   UNL     1      -8.547 -12.603  15.600  0.00  0.00    +0.000 A 
ATOM     46  C   UNL     1      -9.195 -11.502  15.037  0.00  0.00    +0.000 A 
ATOM     47  C   UNL     1      -9.543 -10.388  15.817  0.00  0.00    +0.000 A 
ATOM     48  C   UNL     1      -9.179 -10.377  17.176  0.00  0.00    +0.000 A 
ATOM     49  H   UNL     1      -8.136  -9.666  20.249  0.00  0.00    +0.000 HD
ATOM     50  H   UNL     1      -9.144 -11.986  19.758  0.00  0.00    +0.000 HD
ATOM     51  H   UNL     1      -7.877 -13.551  17.433  0.00  0.00    +0.000 HD
ATOM     52  H   UNL     1      -8.191 -13.406  14.960  0.00  0.00    +0.000 HD
ATOM     53  H   UNL     1      -9.386 -11.486  13.967  0.00  0.00    +0.000 HD
ATOM     54  H   UNL     1     -10.010  -9.524  15.357  0.00  0.00    +0.000 HD
ENDBRANCH  37  40
ENDBRANCH  32  37
ENDBRANCH  29  32
ENDBRANCH  28  29
ENDBRANCH   4  28
TORSDOF 8
ENDMDL
MODEL 6
REMARK VINA RESULT:   -10.579      4.833      9.769
REMARK INTER + INTRA:         -16.405
REMARK INTER:                 -15.767
REMARK INTRA:                  -0.638
REMARK UNBOUND:                -1.188
REMARK  Name = 
REMARK  8 active torsions:
REMARK  status: ('A' for Active; 'I' for Inactive)
REMARK    1  A    between atoms: C_2  and  C_3
REMARK    2  A    between atoms: C_6  and  O_7
REMARK    3  A    between atoms: O_7  and  C_8
REMARK    4  A    between atoms: C_8  and  C_9
REMARK    5  A    between atoms: C_9  and  N_10
REMARK    6  A    between atoms: C_9  and  C_11
REMARK    7  A    between atoms: C_11  and  C_12
REMARK    8  A    between atoms: C_22  and  C_23
REMARK                            x       y       z     vdW  Elec       q    Type
REMARK                         _______ _______ _______ _____ _____    ______ ____
ROOT
ATOM      1  C   UNL     1      -9.309  -8.303  18.730  0.00  0.00    +0.000 A 
ATOM      2  N   UNL     1      -9.916  -7.188  19.234  0.00  0.00    +0.000 NA
ATOM      3  C   UNL     1     -10.628  -6.423  18.361  0.00  0.00    +0.000 A 
ATOM      4  C   UNL     1     -10.712  -6.682  17.007  0.00  0.00    +0.000 A 
ATOM      5  C   UNL     1     -10.068  -7.826  16.530  0.00  0.00    +0.000 A 
ATOM      6  C   UNL     1      -9.360  -8.710  17.400  0.00  0.00    +0.000 A 
ATOM      7  H   UNL     1     -11.151  -5.598  18.837  0.00  0.00    +0.000 HD
ATOM      8  H   UNL     1     -10.156  -8.052  15.469  0.00  0.00    +0.000 HD
ENDROOT
BRANCH   6   9
ATOM      9  C   UNL     1      -8.941 -10.042  16.895  0.00  0.00    +0.000 A 
ATOM     10  C   UNL     1      -8.568 -10.169  15.545  0.00  0.00    +0.000 A 
ATOM     11  C   UNL     1      -8.492 -11.412  14.923  0.00  0.00    +0.000 A 
ATOM     12  C   UNL     1      -8.705 -12.577  15.661  0.00  0.00    +0.000 A 
ATOM     13  C   UNL     1      -8.767 -13.830  15.047  0.00  0.00    +0.000 A 
ATOM     14  N   UNL     1      -8.784 -15.000  15.716  0.00  0.00    +0.000 NA
ATOM     15  C   UNL     1      -8.767 -14.913  17.063  0.00  0.00    +0.000 A 
ATOM     16  C   UNL     1      -8.848 -13.718  17.768  0.00  0.00    +0.000 A 
ATOM     17  C   UNL     1      -8.851 -12.506  17.055  0.00  0.00    +0.000 A 
ATOM     18  C   UNL     1      -9.005 -11.229  17.657  0.00  0.00    +0.000 A 
ATOM     19  H   UNL     1      -8.400  -9.286  14.931  0.00  0.00    +0.000 HD
ATOM     20  H   UNL     1      -8.259 -11.459  13.864  0.00  0.00    +0.000 HD
ATOM     21  H   UNL     1      -8.821 -13.920  13.966  0.00  0.00    +0.000 HD
ATOM     22  H   UNL     1      -8.679 -15.869  17.575  0.00  0.00    +0.000 HD
ATOM     23  H   UNL     1      -8.880 -13.743  18.851  0.00  0.00    +0.000 HD
ATOM     24  H   UNL     1      -9.228 -11.178  18.721  0.00  0.00    +0.000 HD
ENDBRANCH   6   9
BRANCH   1  26
ATOM     25  C   UNL     1      -8.186  -9.710  20.659  0.00  0.00    +0.000 C 
ATOM     26  C   UNL     1      -8.698  -9.079  19.772  0.00  0.00    +0.000 C 
ATOM     27  H   UNL     1      -7.724 -10.269  21.442  0.00  0.00    +0.000 HD
ENDBRANCH   1  26
BRANCH   4  28
ATOM     28  O   UNL     1     -11.417  -5.970  16.081  0.00  0.00    +0.000 OA
BRANCH  28  29
ATOM     29  C   UNL     1     -11.850  -4.663  16.480  0.00  0.00    +0.000 C 
ATOM     30  H   UNL     1     -11.817  -4.566  17.572  0.00  0.00    +0.000 HD
ATOM     31  H   UNL     1     -12.880  -4.493  16.140  0.00  0.00    +0.000 HD
BRANCH  29  32
ATOM     32  C   UNL     1     -10.904  -3.605  15.864  0.00  0.00    +0.000 C 
ATOM     33  H   UNL     1     -11.532  -2.782  15.504  0.00  0.00    +0.000 HD
BRANCH  32  34
ATOM     34  N   UNL     1     -10.008  -3.057  16.905  0.00  0.00    +0.000 NA
ATOM     35  H   UNL     1      -9.386  -2.377  16.463  0.00  0.00    +0.000 HD
ATOM     36  H   UNL     1      -9.393  -3.797  17.245  0.00  0.00    +0.000 HD
ENDBRANCH  32  34
BRANCH  32  37
ATOM     37  C   UNL     1     -10.118  -4.210  14.672  0.00  0.00    +0.000 C 
ATOM     38  H   UNL     1     -10.647  -5.110  14.332  0.00  0.00    +0.000 HD
ATOM     39  H   UNL     1      -9.123  -4.534  14.999  0.00  0.00    +0.000 HD
BRANCH  37  40
ATOM     40  C   UNL     1      -9.992  -3.329  13.464  0.00  0.00    +0.000 A 
ATOM     41  C   UNL     1      -8.916  -2.514  13.155  0.00  0.00    +0.000 A 
ATOM     42  N   UNL     1      -9.158  -2.046  11.896  0.00  0.00    +0.000 N 
ATOM     43  C   UNL     1     -10.515  -1.959  11.729  0.00  0.00    +0.000 A 
ATOM     44  C   UNL     1     -11.302  -1.116  10.942  0.00  0.00    +0.000 A 
ATOM     45  C   UNL     1     -12.673  -1.376  10.927  0.00  0.00    +0.000 A 
ATOM     46  C   UNL     1     -13.191  -2.512  11.551  0.00  0.00    +0.000 A 
ATOM     47  C   UNL     1     -12.376  -3.345  12.334  0.00  0.00    +0.000 A 
ATOM     48  C   UNL     1     -11.028  -2.985  12.522  0.00  0.00    +0.000 A 
ATOM     49  H   UNL     1      -7.975  -2.327  13.652  0.00  0.00    +0.000 HD
ATOM     50  H   UNL     1      -8.486  -2.044  11.142  0.00  0.00    +0.000 HD
ATOM     51  H   UNL     1     -10.884  -0.249  10.441  0.00  0.00    +0.000 HD
ATOM     52  H   UNL     1     -13.342  -0.688  10.416  0.00  0.00    +0.000 HD
ATOM     53  H   UNL     1     -14.253  -2.726  11.472  0.00  0.00    +0.000 HD
ATOM     54  H   UNL     1     -12.801  -4.202  12.845  0.00  0.00    +0.000 HD
ENDBRANCH  37  40
ENDBRANCH  32  37
ENDBRANCH  29  32
ENDBRANCH  28  29
ENDBRANCH   4  28
TORSDOF 8
ENDMDL
MODEL 7
REMARK VINA RESULT:   -10.525      2.018     10.433
REMARK INTER + INTRA:         -16.328
REMARK INTER:                 -15.826
REMARK INTRA:                  -0.502
REMARK UNBOUND:                -1.188
REMARK  Name = 
REMARK  8 active torsions:
REMARK  status: ('A' for Active; 'I' for Inactive)
REMARK    1  A    between atoms: C_2  and  C_3
REMARK    2  A    between atoms: C_6  and  O_7
REMARK    3  A    between atoms: O_7  and  C_8
REMARK    4  A    between atoms: C_8  and  C_9
REMARK    5  A    between atoms: C_9  and  N_10
REMARK    6  A    between atoms: C_9  and  C_11
REMARK    7  A    between atoms: C_11  and  C_12
REMARK    8  A    between atoms: C_22  and  C_23
REMARK                            x       y       z     vdW  Elec       q    Type
REMARK                         _______ _______ _______ _____ _____    ______ ____
ROOT
ATOM      1  C   UNL     1      -9.696  -6.118  18.187  0.00  0.00    +0.000 A 
ATOM      2  N   UNL     1      -9.450  -4.786  18.357  0.00  0.00    +0.000 NA
ATOM      3  C   UNL     1      -8.511  -4.443  19.281  0.00  0.00    +0.000 A 
ATOM      4  C   UNL     1      -7.854  -5.356  20.082  0.00  0.00    +0.000 A 
ATOM      5  C   UNL     1      -8.143  -6.709  19.885  0.00  0.00    +0.000 A 
ATOM      6  C   UNL     1      -9.067  -7.144  18.886  0.00  0.00    +0.000 A 
ATOM      7  H   UNL     1      -8.304  -3.376  19.311  0.00  0.00    +0.000 HD
ATOM      8  H   UNL     1      -7.607  -7.436  20.492  0.00  0.00    +0.000 HD
ENDROOT
BRANCH   6   9
ATOM      9  C   UNL     1      -9.123  -8.585  18.530  0.00  0.00    +0.000 A 
ATOM     10  C   UNL     1      -8.876  -9.541  19.532  0.00  0.00    +0.000 A 
ATOM     11  C   UNL     1      -8.581 -10.864  19.218  0.00  0.00    +0.000 A 
ATOM     12  C   UNL     1      -8.609 -11.292  17.890  0.00  0.00    +0.000 A 
ATOM     13  C   UNL     1      -8.192 -12.574  17.526  0.00  0.00    +0.000 A 
ATOM     14  N   UNL     1      -8.366 -13.107  16.300  0.00  0.00    +0.000 NA
ATOM     15  C   UNL     1      -8.960 -12.310  15.387  0.00  0.00    +0.000 A 
ATOM     16  C   UNL     1      -9.283 -10.977  15.608  0.00  0.00    +0.000 A 
ATOM     17  C   UNL     1      -9.075 -10.429  16.887  0.00  0.00    +0.000 A 
ATOM     18  C   UNL     1      -9.294  -9.064  17.213  0.00  0.00    +0.000 A 
ATOM     19  H   UNL     1      -8.838  -9.250  20.579  0.00  0.00    +0.000 HD
ATOM     20  H   UNL     1      -8.338 -11.555  20.020  0.00  0.00    +0.000 HD
ATOM     21  H   UNL     1      -7.677 -13.216  18.235  0.00  0.00    +0.000 HD
ATOM     22  H   UNL     1      -9.180 -12.797  14.439  0.00  0.00    +0.000 HD
ATOM     23  H   UNL     1      -9.711 -10.393  14.801  0.00  0.00    +0.000 HD
ATOM     24  H   UNL     1      -9.548  -8.371  16.413  0.00  0.00    +0.000 HD
ENDBRANCH   6   9
BRANCH   1  26
ATOM     25  C   UNL     1     -11.366  -6.520  16.184  0.00  0.00    +0.000 C 
ATOM     26  C   UNL     1     -10.612  -6.345  17.105  0.00  0.00    +0.000 C 
ATOM     27  H   UNL     1     -12.043  -6.670  15.372  0.00  0.00    +0.000 HD
ENDBRANCH   1  26
BRANCH   4  28
ATOM     28  O   UNL     1      -6.896  -5.085  21.014  0.00  0.00    +0.000 OA
BRANCH  28  29
ATOM     29  C   UNL     1      -6.394  -3.743  21.038  0.00  0.00    +0.000 C 
ATOM     30  H   UNL     1      -6.912  -3.128  20.292  0.00  0.00    +0.000 HD
ATOM     31  H   UNL     1      -5.320  -3.743  20.813  0.00  0.00    +0.000 HD
BRANCH  29  32
ATOM     32  C   UNL     1      -6.645  -3.133  22.437  0.00  0.00    +0.000 C 
ATOM     33  H   UNL     1      -5.983  -3.652  23.140  0.00  0.00    +0.000 HD
BRANCH  32  34
ATOM     34  N   UNL     1      -6.265  -1.704  22.444  0.00  0.00    +0.000 NA
ATOM     35  H   UNL     1      -5.386  -1.611  22.957  0.00  0.00    +0.000 HD
ATOM     36  H   UNL     1      -6.947  -1.175  22.988  0.00  0.00    +0.000 HD
ENDBRANCH  32  34
BRANCH  32  37
ATOM     37  C   UNL     1      -8.120  -3.349  22.867  0.00  0.00    +0.000 C 
ATOM     38  H   UNL     1      -8.135  -3.575  23.941  0.00  0.00    +0.000 HD
ATOM     39  H   UNL     1      -8.540  -4.224  22.356  0.00  0.00    +0.000 HD
BRANCH  37  40
ATOM     40  C   UNL     1      -9.028  -2.170  22.685  0.00  0.00    +0.000 A 
ATOM     41  C   UNL     1      -9.665  -1.802  21.512  0.00  0.00    +0.000 A 
ATOM     42  N   UNL     1     -10.515  -0.791  21.855  0.00  0.00    +0.000 N 
ATOM     43  C   UNL     1      -9.963  -0.112  22.909  0.00  0.00    +0.000 A 
ATOM     44  C   UNL     1     -10.069   1.220  23.312  0.00  0.00    +0.000 A 
ATOM     45  C   UNL     1      -9.451   1.558  24.517  0.00  0.00    +0.000 A 
ATOM     46  C   UNL     1      -8.890   0.574  25.332  0.00  0.00    +0.000 A 
ATOM     47  C   UNL     1      -8.799  -0.759  24.902  0.00  0.00    +0.000 A 
ATOM     48  C   UNL     1      -9.240  -1.079  23.604  0.00  0.00    +0.000 A 
ATOM     49  H   UNL     1      -9.677  -2.234  20.521  0.00  0.00    +0.000 HD
ATOM     50  H   UNL     1     -11.486  -0.737  21.582  0.00  0.00    +0.000 HD
ATOM     51  H   UNL     1     -10.530   1.973  22.681  0.00  0.00    +0.000 HD
ATOM     52  H   UNL     1      -9.413   2.601  24.824  0.00  0.00    +0.000 HD
ATOM     53  H   UNL     1      -8.469   0.855  26.294  0.00  0.00    +0.000 HD
ATOM     54  H   UNL     1      -8.324  -1.505  25.530  0.00  0.00    +0.000 HD
ENDBRANCH  37  40
ENDBRANCH  32  37
ENDBRANCH  29  32
ENDBRANCH  28  29
ENDBRANCH   4  28
TORSDOF 8
ENDMDL
MODEL 8
REMARK VINA RESULT:   -10.435      2.596      3.838
REMARK INTER + INTRA:         -16.198
REMARK INTER:                 -14.982
REMARK INTRA:                  -1.215
REMARK UNBOUND:                -1.188
REMARK  Name = 
REMARK  8 active torsions:
REMARK  status: ('A' for Active; 'I' for Inactive)
REMARK    1  A    between atoms: C_2  and  C_3
REMARK    2  A    between atoms: C_6  and  O_7
REMARK    3  A    between atoms: O_7  and  C_8
REMARK    4  A    between atoms: C_8  and  C_9
REMARK    5  A    between atoms: C_9  and  N_10
REMARK    6  A    between atoms: C_9  and  C_11
REMARK    7  A    between atoms: C_11  and  C_12
REMARK    8  A    between atoms: C_22  and  C_23
REMARK                            x       y       z     vdW  Elec       q    Type
REMARK                         _______ _______ _______ _____ _____    ______ ____
ROOT
ATOM      1  C   UNL     1     -11.003  -2.001  17.267  0.00  0.00    +0.000 A 
ATOM      2  N   UNL     1     -11.322  -2.432  16.011  0.00  0.00    +0.000 NA
ATOM      3  C   UNL     1     -11.185  -3.764  15.761  0.00  0.00    +0.000 A 
ATOM      4  C   UNL     1     -10.692  -4.669  16.678  0.00  0.00    +0.000 A 
ATOM      5  C   UNL     1     -10.366  -4.186  17.948  0.00  0.00    +0.000 A 
ATOM      6  C   UNL     1     -10.547  -2.814  18.301  0.00  0.00    +0.000 A 
ATOM      7  H   UNL     1     -11.531  -4.055  14.772  0.00  0.00    +0.000 HD
ATOM      8  H   UNL     1     -10.004  -4.900  18.685  0.00  0.00    +0.000 HD
ENDROOT
BRANCH   6   9
ATOM      9  C   UNL     1     -10.456  -2.414  19.728  0.00  0.00    +0.000 A 
ATOM     10  C   UNL     1     -11.640  -2.122  20.427  0.00  0.00    +0.000 A 
ATOM     11  C   UNL     1     -11.621  -1.430  21.635  0.00  0.00    +0.000 A 
ATOM     12  C   UNL     1     -10.404  -1.085  22.224  0.00  0.00    +0.000 A 
ATOM     13  C   UNL     1     -10.346  -0.280  23.364  0.00  0.00    +0.000 A 
ATOM     14  N   UNL     1      -9.226  -0.065  24.083  0.00  0.00    +0.000 NA
ATOM     15  C   UNL     1      -8.105  -0.660  23.625  0.00  0.00    +0.000 A 
ATOM     16  C   UNL     1      -8.029  -1.362  22.428  0.00  0.00    +0.000 A 
ATOM     17  C   UNL     1      -9.202  -1.559  21.678  0.00  0.00    +0.000 A 
ATOM     18  C   UNL     1      -9.237  -2.192  20.407  0.00  0.00    +0.000 A 
ATOM     19  H   UNL     1     -12.610  -2.366  20.001  0.00  0.00    +0.000 HD
ATOM     20  H   UNL     1     -12.562  -1.172  22.110  0.00  0.00    +0.000 HD
ATOM     21  H   UNL     1     -11.229   0.240  23.726  0.00  0.00    +0.000 HD
ATOM     22  H   UNL     1      -7.240  -0.554  24.276  0.00  0.00    +0.000 HD
ATOM     23  H   UNL     1      -7.074  -1.765  22.109  0.00  0.00    +0.000 HD
ATOM     24  H   UNL     1      -8.296  -2.462  19.932  0.00  0.00    +0.000 HD
ENDBRANCH   6   9
BRANCH   1  26
ATOM     25  C   UNL     1     -11.573   0.560  17.549  0.00  0.00    +0.000 C 
ATOM     26  C   UNL     1     -11.305  -0.607  17.431  0.00  0.00    +0.000 C 
ATOM     27  H   UNL     1     -11.801   1.598  17.651  0.00  0.00    +0.000 HD
ENDBRANCH   1  26
BRANCH   4  28
ATOM     28  O   UNL     1     -10.543  -6.014  16.501  0.00  0.00    +0.000 OA
BRANCH  28  29
ATOM     29  C   UNL     1      -9.356  -6.437  15.819  0.00  0.00    +0.000 C 
ATOM     30  H   UNL     1      -8.813  -5.571  15.421  0.00  0.00    +0.000 HD
ATOM     31  H   UNL     1      -9.621  -7.103  14.988  0.00  0.00    +0.000 HD
BRANCH  29  32
ATOM     32  C   UNL     1      -8.434  -7.176  16.819  0.00  0.00    +0.000 C 
ATOM     33  H   UNL     1      -7.925  -7.971  16.262  0.00  0.00    +0.000 HD
BRANCH  32  34
ATOM     34  N   UNL     1      -7.394  -6.255  17.327  0.00  0.00    +0.000 NA
ATOM     35  H   UNL     1      -7.722  -5.862  18.212  0.00  0.00    +0.000 HD
ATOM     36  H   UNL     1      -7.311  -5.458  16.697  0.00  0.00    +0.000 HD
ENDBRANCH  32  34
BRANCH  32  37
ATOM     37  C   UNL     1      -9.269  -7.807  17.963  0.00  0.00    +0.000 C 
ATOM     38  H   UNL     1     -10.333  -7.673  17.726  0.00  0.00    +0.000 HD
ATOM     39  H   UNL     1      -9.087  -7.274  18.904  0.00  0.00    +0.000 HD
BRANCH  37  40
ATOM     40  C   UNL     1      -9.078  -9.280  18.170  0.00  0.00    +0.000 A 
ATOM     41  C   UNL     1      -8.537  -9.885  19.291  0.00  0.00    +0.000 A 
ATOM     42  N   UNL     1      -8.725 -11.225  19.114  0.00  0.00    +0.000 N 
ATOM     43  C   UNL     1      -8.696 -11.483  17.769  0.00  0.00    +0.000 A 
ATOM     44  C   UNL     1      -8.315 -12.616  17.049  0.00  0.00    +0.000 A 
ATOM     45  C   UNL     1      -8.518 -12.576  15.669  0.00  0.00    +0.000 A 
ATOM     46  C   UNL     1      -9.203 -11.513  15.078  0.00  0.00    +0.000 A 
ATOM     47  C   UNL     1      -9.578 -10.387  15.828  0.00  0.00    +0.000 A 
ATOM     48  C   UNL     1      -9.203 -10.324  17.183  0.00  0.00    +0.000 A 
ATOM     49  H   UNL     1      -8.157  -9.489  20.223  0.00  0.00    +0.000 HD
ATOM     50  H   UNL     1      -9.100 -11.852  19.811  0.00  0.00    +0.000 HD
ATOM     51  H   UNL     1      -7.805 -13.449  17.522  0.00  0.00    +0.000 HD
ATOM     52  H   UNL     1      -8.144 -13.388  15.049  0.00  0.00    +0.000 HD
ATOM     53  H   UNL     1      -9.403 -11.534  14.011  0.00  0.00    +0.000 HD
ATOM     54  H   UNL     1     -10.075  -9.551  15.347  0.00  0.00    +0.000 HD
ENDBRANCH  37  40
ENDBRANCH  32  37
ENDBRANCH  29  32
ENDBRANCH  28  29
ENDBRANCH   4  28
TORSDOF 8
ENDMDL
MODEL 9
REMARK VINA RESULT:   -10.411      2.503      4.573
REMARK INTER + INTRA:         -16.164
REMARK INTER:                 -15.359
REMARK INTRA:                  -0.805
REMARK UNBOUND:                -1.188
REMARK  Name = 
REMARK  8 active torsions:
REMARK  status: ('A' for Active; 'I' for Inactive)
REMARK    1  A    between atoms: C_2  and  C_3
REMARK    2  A    between atoms: C_6  and  O_7
REMARK    3  A    between atoms: O_7  and  C_8
REMARK    4  A    between atoms: C_8  and  C_9
REMARK    5  A    between atoms: C_9  and  N_10
REMARK    6  A    between atoms: C_9  and  C_11
REMARK    7  A    between atoms: C_11  and  C_12
REMARK    8  A    between atoms: C_22  and  C_23
REMARK                            x       y       z     vdW  Elec       q    Type
REMARK                         _______ _______ _______ _____ _____    ______ ____
ROOT
ATOM      1  C   UNL     1      -8.767  -2.422  24.473  0.00  0.00    +0.000 A 
ATOM      2  N   UNL     1      -8.275  -3.673  24.238  0.00  0.00    +0.000 NA
ATOM      3  C   UNL     1      -8.029  -4.008  22.941  0.00  0.00    +0.000 A 
ATOM      4  C   UNL     1      -8.306  -3.182  21.870  0.00  0.00    +0.000 A 
ATOM      5  C   UNL     1      -8.820  -1.914  22.153  0.00  0.00    +0.000 A 
ATOM      6  C   UNL     1      -9.039  -1.471  23.493  0.00  0.00    +0.000 A 
ATOM      7  H   UNL     1      -7.565  -4.984  22.828  0.00  0.00    +0.000 HD
ATOM      8  H   UNL     1      -9.012  -1.246  21.315  0.00  0.00    +0.000 HD
ENDROOT
BRANCH   6   9
ATOM      9  C   UNL     1      -9.313  -0.033  23.746  0.00  0.00    +0.000 A 
ATOM     10  C   UNL     1     -10.413   0.569  23.110  0.00  0.00    +0.000 A 
ATOM     11  C   UNL     1     -10.538   1.952  23.025  0.00  0.00    +0.000 A 
ATOM     12  C   UNL     1      -9.603   2.779  23.652  0.00  0.00    +0.000 A 
ATOM     13  C   UNL     1      -9.621   4.164  23.479  0.00  0.00    +0.000 A 
ATOM     14  N   UNL     1      -8.871   5.026  24.195  0.00  0.00    +0.000 NA
ATOM     15  C   UNL     1      -8.044   4.474  25.107  0.00  0.00    +0.000 A 
ATOM     16  C   UNL     1      -7.850   3.106  25.257  0.00  0.00    +0.000 A 
ATOM     17  C   UNL     1      -8.624   2.220  24.487  0.00  0.00    +0.000 A 
ATOM     18  C   UNL     1      -8.464   0.809  24.497  0.00  0.00    +0.000 A 
ATOM     19  H   UNL     1     -11.160  -0.037  22.602  0.00  0.00    +0.000 HD
ATOM     20  H   UNL     1     -11.371   2.374  22.473  0.00  0.00    +0.000 HD
ATOM     21  H   UNL     1     -10.251   4.625  22.723  0.00  0.00    +0.000 HD
ATOM     22  H   UNL     1      -7.526   5.193  25.739  0.00  0.00    +0.000 HD
ATOM     23  H   UNL     1      -7.126   2.749  25.981  0.00  0.00    +0.000 HD
ATOM     24  H   UNL     1      -7.635   0.382  25.058  0.00  0.00    +0.000 HD
ENDBRANCH   6   9
BRANCH   1  26
ATOM     25  C   UNL     1      -8.924  -1.938  27.062  0.00  0.00    +0.000 C 
ATOM     26  C   UNL     1      -8.865  -2.156  25.881  0.00  0.00    +0.000 C 
ATOM     27  H   UNL     1      -8.980  -1.753  28.112  0.00  0.00    +0.000 HD
ENDBRANCH   1  26
BRANCH   4  28
ATOM     28  O   UNL     1      -8.073  -3.446  20.552  0.00  0.00    +0.000 OA
BRANCH  28  29
ATOM     29  C   UNL     1      -7.845  -4.819  20.210  0.00  0.00    +0.000 C 
ATOM     30  H   UNL     1      -8.005  -5.463  21.083  0.00  0.00    +0.000 HD
ATOM     31  H   UNL     1      -6.813  -4.948  19.859  0.00  0.00    +0.000 HD
BRANCH  29  32
ATOM     32  C   UNL     1      -8.840  -5.237  19.102  0.00  0.00    +0.000 C 
ATOM     33  H   UNL     1      -9.735  -5.626  19.602  0.00  0.00    +0.000 HD
BRANCH  32  34
ATOM     34  N   UNL     1      -9.251  -4.054  18.315  0.00  0.00    +0.000 NA
ATOM     35  H   UNL     1      -8.720  -3.248  18.650  0.00  0.00    +0.000 HD
ATOM     36  H   UNL     1     -10.226  -3.833  18.520  0.00  0.00    +0.000 HD
ENDBRANCH  32  34
BRANCH  32  37
ATOM     37  C   UNL     1      -8.226  -6.349  18.212  0.00  0.00    +0.000 C 
ATOM     38  H   UNL     1      -7.133  -6.286  18.290  0.00  0.00    +0.000 HD
ATOM     39  H   UNL     1      -8.478  -6.174  17.159  0.00  0.00    +0.000 HD
BRANCH  37  40
ATOM     40  C   UNL     1      -8.582  -7.755  18.592  0.00  0.00    +0.000 A 
ATOM     41  C   UNL     1      -8.384  -8.343  19.829  0.00  0.00    +0.000 A 
ATOM     42  N   UNL     1      -9.014  -9.552  19.769  0.00  0.00    +0.000 N 
ATOM     43  C   UNL     1      -8.966  -9.991  18.472  0.00  0.00    +0.000 A 
ATOM     44  C   UNL     1      -8.949 -11.276  17.926  0.00  0.00    +0.000 A 
ATOM     45  C   UNL     1      -9.009 -11.364  16.535  0.00  0.00    +0.000 A 
ATOM     46  C   UNL     1      -9.226 -10.226  15.756  0.00  0.00    +0.000 A 
ATOM     47  C   UNL     1      -9.242  -8.946  16.332  0.00  0.00    +0.000 A 
ATOM     48  C   UNL     1      -8.984  -8.824  17.710  0.00  0.00    +0.000 A 
ATOM     49  H   UNL     1      -7.968  -7.972  20.756  0.00  0.00    +0.000 HD
ATOM     50  H   UNL     1      -9.642  -9.911  20.473  0.00  0.00    +0.000 HD
ATOM     51  H   UNL     1      -8.805 -12.156  18.544  0.00  0.00    +0.000 HD
ATOM     52  H   UNL     1      -8.893 -12.333  16.055  0.00  0.00    +0.000 HD
ATOM     53  H   UNL     1      -9.331 -10.329  14.680  0.00  0.00    +0.000 HD
ATOM     54  H   UNL     1      -9.372  -8.068  15.708  0.00  0.00    +0.000 HD
ENDBRANCH  37  40
ENDBRANCH  32  37
ENDBRANCH  29  32
ENDBRANCH  28  29
ENDBRANCH   4  28
TORSDOF 8
ENDMDL
