MODEL 1
REMARK VINA RESULT:   -10.108      0.000      0.000
REMARK INTER + INTRA:         -19.249
REMARK INTER:                 -17.199
REMARK INTRA:                  -2.049
REMARK UNBOUND:                -2.049
REMARK  Name = 
REMARK  16 active torsions:
REMARK  status: ('A' for Active; 'I' for Inactive)
REMARK    1  A    between atoms: C_1  and  C_2
REMARK    2  A    between atoms: C_2  and  C_3
REMARK    3  A    between atoms: C_7  and  C_8
REMARK    4  A    between atoms: C_9  and  O_10
REMARK    5  A    between atoms: O_10  and  C_11
REMARK    6  A    between atoms: C_11  and  C_13
REMARK    7  A    between atoms: C_15  and  O_16
REMARK    8  A    between atoms: C_17  and  C_18
REMARK    9  A    between atoms: C_18  and  C_20
REMARK   10  A    between atoms: C_21  and  O_22
REMARK   11  A    between atoms: C_26  and  C_27
REMARK   12  A    between atoms: C_27  and  O_29
REMARK   13  A    between atoms: C_30  and  O_31
REMARK   14  A    between atoms: C_33  and  N_34
REMARK   15  A    between atoms: C_35  and  C_37
REMARK   16  A    between atoms: C_40  and  O_41
REMARK                            x       y       z     vdW  Elec       q    Type
REMARK                         _______ _______ _______ _____ _____    ______ ____
ROOT
ATOM      1  C   UNL     1     -11.073   0.190  15.288  0.00  0.00    +0.000 C 
ATOM      2  C   UNL     1     -11.874  -0.072  16.589  0.00  0.00    +0.000 C 
ATOM      3  C   UNL     1     -13.337   0.170  16.156  0.00  0.00    +0.000 C 
ATOM      4  C   UNL     1     -13.368  -0.402  14.731  0.00  0.00    +0.000 C 
ATOM      5  C   UNL     1     -11.902  -0.877  14.506  0.00  0.00    +0.000 C 
ATOM      6  C   UNL     1     -11.743  -2.185  15.368  0.00  0.00    +0.000 C 
ATOM      7  C   UNL     1     -11.753  -1.612  16.827  0.00  0.00    +0.000 C 
ATOM      8  H   UNL     1     -11.578   0.553  17.434  0.00  0.00    +0.000 HD
ATOM      9  H   UNL     1     -13.583   1.237  16.155  0.00  0.00    +0.000 HD
ATOM     10  H   UNL     1     -14.060  -0.326  16.810  0.00  0.00    +0.000 HD
ATOM     11  H   UNL     1     -13.668   0.369  14.013  0.00  0.00    +0.000 HD
ATOM     12  H   UNL     1     -14.087  -1.223  14.642  0.00  0.00    +0.000 HD
ATOM     13  H   UNL     1     -12.595  -2.865  15.245  0.00  0.00    +0.000 HD
ATOM     14  H   UNL     1     -12.645  -1.978  17.355  0.00  0.00    +0.000 HD
ENDROOT
BRANCH   1  15
ATOM     15  C   UNL     1      -9.559  -0.055  15.420  0.00  0.00    +0.000 C 
ATOM     16  H   UNL     1      -9.267  -0.109  16.475  0.00  0.00    +0.000 HD
ATOM     17  H   UNL     1      -8.990   0.761  14.959  0.00  0.00    +0.000 HD
ATOM     18  H   UNL     1      -9.206  -0.982  14.980  0.00  0.00    +0.000 HD
ENDBRANCH   1  15
BRANCH   5  19
ATOM     19  C   UNL     1     -11.576  -0.995  13.025  0.00  0.00    +0.000 C 
ATOM     20  H   UNL     1     -10.528  -1.272  12.870  0.00  0.00    +0.000 HD
ATOM     21  H   UNL     1     -11.736  -0.042  12.511  0.00  0.00    +0.000 HD
ATOM     22  H   UNL     1     -12.177  -1.761  12.532  0.00  0.00    +0.000 HD
ENDBRANCH   5  19
BRANCH   1  23
ATOM     23  C   UNL     1     -11.190   1.629  14.742  0.00  0.00    +0.000 C 
ATOM     24  H   UNL     1     -11.205   2.350  15.567  0.00  0.00    +0.000 HD
ATOM     25  H   UNL     1     -12.081   1.817  14.141  0.00  0.00    +0.000 HD
ATOM     26  H   UNL     1     -10.327   1.871  14.111  0.00  0.00    +0.000 HD
ENDBRANCH   1  23
BRANCH   7  27
ATOM     27  N   UNL     1     -10.619  -1.978  17.664  0.00  0.00    +0.000 N 
ATOM     28  C   UNL     1     -10.788  -2.809  18.752  0.00  0.00    +0.000 C 
ATOM     29  O   UNL     1     -11.885  -3.244  19.099  0.00  0.00    +0.000 OA
ATOM     30  H   UNL     1      -9.694  -1.859  17.266  0.00  0.00    +0.000 HD
BRANCH  28  31
ATOM     31  C   UNL     1      -9.570  -3.223  19.496  0.00  0.00    +0.000 A 
ATOM     32  C   UNL     1      -8.848  -4.377  19.164  0.00  0.00    +0.000 A 
ATOM     33  C   UNL     1      -7.713  -4.728  19.901  0.00  0.00    +0.000 A 
ATOM     34  C   UNL     1      -7.304  -3.922  20.963  0.00  0.00    +0.000 A 
ATOM     35  C   UNL     1      -8.003  -2.763  21.286  0.00  0.00    +0.000 A 
ATOM     36  C   UNL     1      -9.128  -2.409  20.549  0.00  0.00    +0.000 A 
ATOM     37  H   UNL     1      -9.140  -4.992  18.319  0.00  0.00    +0.000 HD
ATOM     38  H   UNL     1      -7.164  -5.629  19.636  0.00  0.00    +0.000 HD
ATOM     39  H   UNL     1      -7.666  -2.140  22.111  0.00  0.00    +0.000 HD
ATOM     40  H   UNL     1      -9.666  -1.490  20.794  0.00  0.00    +0.000 HD
BRANCH  34  41
ATOM     41  O   UNL     1      -6.212  -4.230  21.715  0.00  0.00    +0.000 OA
ATOM     42  H   UNL     1      -6.379  -3.969  22.635  0.00  0.00    +0.000 HD
ENDBRANCH  34  41
ENDBRANCH  28  31
ENDBRANCH   7  27
BRANCH   6  43
ATOM     43  O   UNL     1     -10.518  -2.873  15.060  0.00  0.00    +0.000 OA
BRANCH  43  44
ATOM     44  C   UNL     1     -10.644  -4.108  14.516  0.00  0.00    +0.000 C 
ATOM     45  O   UNL     1     -10.819  -4.369  13.344  0.00  0.00    +0.000 OA
BRANCH  44  46
ATOM     46  C   UNL     1     -10.314  -5.136  15.550  0.00  0.00    +0.000 A 
ATOM     47  C   UNL     1     -11.350  -5.825  16.184  0.00  0.00    +0.000 A 
ATOM     48  C   UNL     1     -11.048  -6.883  17.049  0.00  0.00    +0.000 A 
ATOM     49  C   UNL     1      -9.715  -7.285  17.274  0.00  0.00    +0.000 A 
ATOM     50  C   UNL     1      -8.692  -6.608  16.600  0.00  0.00    +0.000 A 
ATOM     51  C   UNL     1      -8.990  -5.518  15.790  0.00  0.00    +0.000 A 
ATOM     52  H   UNL     1     -12.382  -5.537  15.996  0.00  0.00    +0.000 HD
ATOM     53  H   UNL     1      -8.164  -5.001  15.318  0.00  0.00    +0.000 HD
BRANCH  50  54
ATOM     54  O   UNL     1      -7.359  -6.921  16.661  0.00  0.00    +0.000 OA
ATOM     55  H   UNL     1      -7.103  -7.464  15.897  0.00  0.00    +0.000 HD
ENDBRANCH  50  54
BRANCH  49  56
ATOM     56  C   UNL     1      -9.423  -8.420  18.179  0.00  0.00    +0.000 C 
ATOM     57  O   UNL     1      -9.628  -8.274  19.389  0.00  0.00    +0.000 OA
BRANCH  56  58
ATOM     58  C   UNL     1      -9.094  -9.803  17.717  0.00  0.00    +0.000 A 
ATOM     59  C   UNL     1      -8.607 -10.687  18.706  0.00  0.00    +0.000 A 
ATOM     60  C   UNL     1      -8.290 -12.012  18.416  0.00  0.00    +0.000 A 
ATOM     61  C   UNL     1      -8.472 -12.499  17.131  0.00  0.00    +0.000 A 
ATOM     62  C   UNL     1      -8.971 -11.659  16.136  0.00  0.00    +0.000 A 
ATOM     63  C   UNL     1      -9.290 -10.313  16.413  0.00  0.00    +0.000 A 
ATOM     64  H   UNL     1      -7.894 -12.657  19.198  0.00  0.00    +0.000 HD
ATOM     65  H   UNL     1      -8.212 -13.530  16.900  0.00  0.00    +0.000 HD
ATOM     66  H   UNL     1      -9.072 -12.066  15.133  0.00  0.00    +0.000 HD
BRANCH  63  67
ATOM     67  C   UNL     1      -9.771  -9.483  15.278  0.00  0.00    +0.000 C 
ATOM     68  O   UNL     1      -9.029  -9.014  14.436  0.00  0.00    +0.000 OA
BRANCH  67  69
ATOM     69  O   UNL     1     -11.109  -9.275  15.261  0.00  0.00    +0.000 OA
ATOM     70  H   UNL     1     -11.453  -8.545  15.808  0.00  0.00    +0.000 HD
ENDBRANCH  67  69
ENDBRANCH  63  67
BRANCH  59  71
ATOM     71  O   UNL     1      -8.454 -10.339  20.027  0.00  0.00    +0.000 OA
ATOM     72  H   UNL     1      -7.889  -9.530  20.072  0.00  0.00    +0.000 HD
ENDBRANCH  59  71
ENDBRANCH  56  58
ENDBRANCH  49  56
BRANCH  48  73
ATOM     73  O   UNL     1     -12.079  -7.517  17.690  0.00  0.00    +0.000 OA
ATOM     74  H   UNL     1     -12.695  -7.900  17.043  0.00  0.00    +0.000 HD
ENDBRANCH  48  73
ENDBRANCH  44  46
ENDBRANCH  43  44
ENDBRANCH   6  43
TORSDOF 16
ENDMDL
MODEL 2
REMARK VINA RESULT:    -9.743      2.190      3.827
REMARK INTER + INTRA:         -18.627
REMARK INTER:                 -15.712
REMARK INTRA:                  -2.916
REMARK UNBOUND:                -2.049
REMARK  Name = 
REMARK  16 active torsions:
REMARK  status: ('A' for Active; 'I' for Inactive)
REMARK    1  A    between atoms: C_1  and  C_2
REMARK    2  A    between atoms: C_2  and  C_3
REMARK    3  A    between atoms: C_7  and  C_8
REMARK    4  A    between atoms: C_9  and  O_10
REMARK    5  A    between atoms: O_10  and  C_11
REMARK    6  A    between atoms: C_11  and  C_13
REMARK    7  A    between atoms: C_15  and  O_16
REMARK    8  A    between atoms: C_17  and  C_18
REMARK    9  A    between atoms: C_18  and  C_20
REMARK   10  A    between atoms: C_21  and  O_22
REMARK   11  A    between atoms: C_26  and  C_27
REMARK   12  A    between atoms: C_27  and  O_29
REMARK   13  A    between atoms: C_30  and  O_31
REMARK   14  A    between atoms: C_33  and  N_34
REMARK   15  A    between atoms: C_35  and  C_37
REMARK   16  A    between atoms: C_40  and  O_41
REMARK                            x       y       z     vdW  Elec       q    Type
REMARK                         _______ _______ _______ _____ _____    ______ ____
ROOT
ATOM      1  C   UNL     1     -10.365   1.004  19.869  0.00  0.00    +0.000 C 
ATOM      2  C   UNL     1     -10.344   0.171  21.176  0.00  0.00    +0.000 C 
ATOM      3  C   UNL     1     -11.646   0.601  21.888  0.00  0.00    +0.000 C 
ATOM      4  C   UNL     1     -12.632   0.763  20.723  0.00  0.00    +0.000 C 
ATOM      5  C   UNL     1     -11.763   0.435  19.472  0.00  0.00    +0.000 C 
ATOM      6  C   UNL     1     -11.557  -1.125  19.496  0.00  0.00    +0.000 C 
ATOM      7  C   UNL     1     -10.583  -1.303  20.711  0.00  0.00    +0.000 C 
ATOM      8  H   UNL     1      -9.457   0.324  21.795  0.00  0.00    +0.000 HD
ATOM      9  H   UNL     1     -11.515   1.546  22.425  0.00  0.00    +0.000 HD
ATOM     10  H   UNL     1     -11.993  -0.138  22.617  0.00  0.00    +0.000 HD
ATOM     11  H   UNL     1     -13.031   1.783  20.694  0.00  0.00    +0.000 HD
ATOM     12  H   UNL     1     -13.487   0.086  20.821  0.00  0.00    +0.000 HD
ATOM     13  H   UNL     1     -12.491  -1.661  19.705  0.00  0.00    +0.000 HD
ATOM     14  H   UNL     1     -11.092  -1.865  21.507  0.00  0.00    +0.000 HD
ENDROOT
BRANCH   1  15
ATOM     15  C   UNL     1      -9.192   0.712  18.917  0.00  0.00    +0.000 C 
ATOM     16  H   UNL     1      -9.154   1.454  18.111  0.00  0.00    +0.000 HD
ATOM     17  H   UNL     1      -9.303  -0.275  18.453  0.00  0.00    +0.000 HD
ATOM     18  H   UNL     1      -8.210   0.742  19.377  0.00  0.00    +0.000 HD
ENDBRANCH   1  15
BRANCH   5  19
ATOM     19  C   UNL     1     -12.367   1.022  18.206  0.00  0.00    +0.000 C 
ATOM     20  H   UNL     1     -11.686   0.916  17.355  0.00  0.00    +0.000 HD
ATOM     21  H   UNL     1     -12.569   2.091  18.325  0.00  0.00    +0.000 HD
ATOM     22  H   UNL     1     -13.296   0.523  17.924  0.00  0.00    +0.000 HD
ENDBRANCH   5  19
BRANCH   1  23
ATOM     23  C   UNL     1     -10.324   2.532  20.083  0.00  0.00    +0.000 C 
ATOM     24  H   UNL     1     -10.416   2.771  21.149  0.00  0.00    +0.000 HD
ATOM     25  H   UNL     1     -11.109   3.086  19.566  0.00  0.00    +0.000 HD
ATOM     26  H   UNL     1      -9.368   2.943  19.736  0.00  0.00    +0.000 HD
ENDBRANCH   1  23
BRANCH   7  27
ATOM     27  N   UNL     1      -9.350  -2.028  20.440  0.00  0.00    +0.000 N 
ATOM     28  C   UNL     1      -8.643  -2.621  21.466  0.00  0.00    +0.000 C 
ATOM     29  O   UNL     1      -8.978  -2.536  22.647  0.00  0.00    +0.000 OA
ATOM     30  H   UNL     1      -9.194  -2.333  19.486  0.00  0.00    +0.000 HD
BRANCH  28  31
ATOM     31  C   UNL     1      -7.453  -3.432  21.101  0.00  0.00    +0.000 A 
ATOM     32  C   UNL     1      -7.505  -4.440  20.130  0.00  0.00    +0.000 A 
ATOM     33  C   UNL     1      -6.358  -5.182  19.828  0.00  0.00    +0.000 A 
ATOM     34  C   UNL     1      -5.166  -4.908  20.497  0.00  0.00    +0.000 A 
ATOM     35  C   UNL     1      -5.100  -3.894  21.448  0.00  0.00    +0.000 A 
ATOM     36  C   UNL     1      -6.238  -3.152  21.743  0.00  0.00    +0.000 A 
ATOM     37  H   UNL     1      -8.421  -4.638  19.582  0.00  0.00    +0.000 HD
ATOM     38  H   UNL     1      -6.414  -5.965  19.076  0.00  0.00    +0.000 HD
ATOM     39  H   UNL     1      -4.160  -3.687  21.954  0.00  0.00    +0.000 HD
ATOM     40  H   UNL     1      -6.180  -2.346  22.478  0.00  0.00    +0.000 HD
BRANCH  34  41
ATOM     41  O   UNL     1      -4.028  -5.611  20.245  0.00  0.00    +0.000 OA
ATOM     42  H   UNL     1      -4.080  -6.469  20.697  0.00  0.00    +0.000 HD
ENDBRANCH  34  41
ENDBRANCH  28  31
ENDBRANCH   7  27
BRANCH   6  43
ATOM     43  O   UNL     1     -10.985  -1.600  18.265  0.00  0.00    +0.000 OA
BRANCH  43  44
ATOM     44  C   UNL     1     -11.747  -2.456  17.540  0.00  0.00    +0.000 C 
ATOM     45  O   UNL     1     -12.792  -2.199  16.979  0.00  0.00    +0.000 OA
BRANCH  44  46
ATOM     46  C   UNL     1     -10.997  -3.733  17.343  0.00  0.00    +0.000 A 
ATOM     47  C   UNL     1     -10.367  -3.976  16.120  0.00  0.00    +0.000 A 
ATOM     48  C   UNL     1      -9.549  -5.101  15.975  0.00  0.00    +0.000 A 
ATOM     49  C   UNL     1      -9.325  -5.985  17.051  0.00  0.00    +0.000 A 
ATOM     50  C   UNL     1      -9.933  -5.706  18.280  0.00  0.00    +0.000 A 
ATOM     51  C   UNL     1     -10.795  -4.622  18.405  0.00  0.00    +0.000 A 
ATOM     52  H   UNL     1     -10.514  -3.284  15.293  0.00  0.00    +0.000 HD
ATOM     53  H   UNL     1     -11.271  -4.465  19.364  0.00  0.00    +0.000 HD
BRANCH  50  54
ATOM     54  O   UNL     1      -9.761  -6.428  19.432  0.00  0.00    +0.000 OA
ATOM     55  H   UNL     1     -10.511  -6.290  20.035  0.00  0.00    +0.000 HD
ENDBRANCH  50  54
BRANCH  49  56
ATOM     56  C   UNL     1      -8.440  -7.159  16.877  0.00  0.00    +0.000 C 
ATOM     57  O   UNL     1      -7.218  -6.988  16.937  0.00  0.00    +0.000 OA
BRANCH  56  58
ATOM     58  C   UNL     1      -8.917  -8.576  16.842  0.00  0.00    +0.000 A 
ATOM     59  C   UNL     1      -9.245  -9.087  15.566  0.00  0.00    +0.000 A 
ATOM     60  C   UNL     1      -9.674 -10.400  15.388  0.00  0.00    +0.000 A 
ATOM     61  C   UNL     1      -9.767 -11.249  16.480  0.00  0.00    +0.000 A 
ATOM     62  C   UNL     1      -9.430 -10.783  17.751  0.00  0.00    +0.000 A 
ATOM     63  C   UNL     1      -9.001  -9.454  17.947  0.00  0.00    +0.000 A 
ATOM     64  H   UNL     1      -9.942 -10.751  14.393  0.00  0.00    +0.000 HD
ATOM     65  H   UNL     1     -10.115 -12.270  16.345  0.00  0.00    +0.000 HD
ATOM     66  H   UNL     1      -9.544 -11.467  18.588  0.00  0.00    +0.000 HD
BRANCH  63  67
ATOM     67  C   UNL     1      -8.709  -9.035  19.343  0.00  0.00    +0.000 C 
ATOM     68  O   UNL     1      -7.648  -8.548  19.683  0.00  0.00    +0.000 OA
BRANCH  67  69
ATOM     69  O   UNL     1      -9.720  -9.250  20.218  0.00  0.00    +0.000 OA
ATOM     70  H   UNL     1      -9.864  -8.576  20.907  0.00  0.00    +0.000 HD
ENDBRANCH  67  69
ENDBRANCH  63  67
BRANCH  59  71
ATOM     71  O   UNL     1      -9.123  -8.363  14.404  0.00  0.00    +0.000 OA
ATOM     72  H   UNL     1      -8.773  -8.960  13.700  0.00  0.00    +0.000 HD
ENDBRANCH  59  71
ENDBRANCH  56  58
ENDBRANCH  49  56
BRANCH  48  73
ATOM     73  O   UNL     1      -8.975  -5.338  14.754  0.00  0.00    +0.000 OA
ATOM     74  H   UNL     1      -8.560  -6.217  14.739  0.00  0.00    +0.000 HD
ENDBRANCH  48  73
ENDBRANCH  44  46
ENDBRANCH  43  44
ENDBRANCH   6  43
TORSDOF 16
ENDMDL
MODEL 3
REMARK VINA RESULT:    -9.564      2.534      3.876
REMARK INTER + INTRA:         -18.322
REMARK INTER:                 -15.689
REMARK INTRA:                  -2.633
REMARK UNBOUND:                -2.049
REMARK  Name = 
REMARK  16 active torsions:
REMARK  status: ('A' for Active; 'I' for Inactive)
REMARK    1  A    between atoms: C_1  and  C_2
REMARK    2  A    between atoms: C_2  and  C_3
REMARK    3  A    between atoms: C_7  and  C_8
REMARK    4  A    between atoms: C_9  and  O_10
REMARK    5  A    between atoms: O_10  and  C_11
REMARK    6  A    between atoms: C_11  and  C_13
REMARK    7  A    between atoms: C_15  and  O_16
REMARK    8  A    between atoms: C_17  and  C_18
REMARK    9  A    between atoms: C_18  and  C_20
REMARK   10  A    between atoms: C_21  and  O_22
REMARK   11  A    between atoms: C_26  and  C_27
REMARK   12  A    between atoms: C_27  and  O_29
REMARK   13  A    between atoms: C_30  and  O_31
REMARK   14  A    between atoms: C_33  and  N_34
REMARK   15  A    between atoms: C_35  and  C_37
REMARK   16  A    between atoms: C_40  and  O_41
REMARK                            x       y       z     vdW  Elec       q    Type
REMARK                         _______ _______ _______ _____ _____    ______ ____
ROOT
ATOM      1  C   UNL     1     -10.103   1.228  17.991  0.00  0.00    +0.000 C 
ATOM      2  C   UNL     1     -11.136   1.725  19.034  0.00  0.00    +0.000 C 
ATOM      3  C   UNL     1     -12.278   2.287  18.159  0.00  0.00    +0.000 C 
ATOM      4  C   UNL     1     -12.316   1.303  16.980  0.00  0.00    +0.000 C 
ATOM      5  C   UNL     1     -11.164   0.308  17.308  0.00  0.00    +0.000 C 
ATOM      6  C   UNL     1     -11.700  -0.589  18.485  0.00  0.00    +0.000 C 
ATOM      7  C   UNL     1     -11.703   0.421  19.684  0.00  0.00    +0.000 C 
ATOM      8  H   UNL     1     -10.747   2.463  19.739  0.00  0.00    +0.000 HD
ATOM      9  H   UNL     1     -12.057   3.302  17.814  0.00  0.00    +0.000 HD
ATOM     10  H   UNL     1     -13.236   2.328  18.687  0.00  0.00    +0.000 HD
ATOM     11  H   UNL     1     -12.153   1.830  16.034  0.00  0.00    +0.000 HD
ATOM     12  H   UNL     1     -13.287   0.801  16.905  0.00  0.00    +0.000 HD
ATOM     13  H   UNL     1     -12.725  -0.934  18.305  0.00  0.00    +0.000 HD
ATOM     14  H   UNL     1     -12.738   0.590  20.014  0.00  0.00    +0.000 HD
ENDROOT
BRANCH   1  15
ATOM     15  C   UNL     1      -8.869   0.542  18.603  0.00  0.00    +0.000 C 
ATOM     16  H   UNL     1      -8.066   0.459  17.862  0.00  0.00    +0.000 HD
ATOM     17  H   UNL     1      -9.115  -0.472  18.941  0.00  0.00    +0.000 HD
ATOM     18  H   UNL     1      -8.426   1.062  19.445  0.00  0.00    +0.000 HD
ENDBRANCH   1  15
BRANCH   5  19
ATOM     19  C   UNL     1     -10.686  -0.419  16.061  0.00  0.00    +0.000 C 
ATOM     20  H   UNL     1     -11.040  -1.456  16.047  0.00  0.00    +0.000 HD
ATOM     21  H   UNL     1      -9.593  -0.453  16.020  0.00  0.00    +0.000 HD
ATOM     22  H   UNL     1     -11.054   0.048  15.146  0.00  0.00    +0.000 HD
ENDBRANCH   5  19
BRANCH   1  23
ATOM     23  C   UNL     1      -9.525   2.335  17.084  0.00  0.00    +0.000 C 
ATOM     24  H   UNL     1      -8.453   2.460  17.271  0.00  0.00    +0.000 HD
ATOM     25  H   UNL     1      -9.985   3.316  17.212  0.00  0.00    +0.000 HD
ATOM     26  H   UNL     1      -9.645   2.066  16.027  0.00  0.00    +0.000 HD
ENDBRANCH   1  23
BRANCH   7  27
ATOM     27  N   UNL     1     -10.971   0.004  20.872  0.00  0.00    +0.000 N 
ATOM     28  C   UNL     1     -11.643  -0.349  22.023  0.00  0.00    +0.000 C 
ATOM     29  O   UNL     1     -12.868  -0.291  22.129  0.00  0.00    +0.000 OA
ATOM     30  H   UNL     1     -10.013  -0.300  20.740  0.00  0.00    +0.000 HD
BRANCH  28  31
ATOM     31  C   UNL     1     -10.837  -0.864  23.160  0.00  0.00    +0.000 A 
ATOM     32  C   UNL     1      -9.763  -0.144  23.701  0.00  0.00    +0.000 A 
ATOM     33  C   UNL     1      -9.029  -0.676  24.765  0.00  0.00    +0.000 A 
ATOM     34  C   UNL     1      -9.375  -1.923  25.285  0.00  0.00    +0.000 A 
ATOM     35  C   UNL     1     -10.453  -2.635  24.768  0.00  0.00    +0.000 A 
ATOM     36  C   UNL     1     -11.188  -2.103  23.714  0.00  0.00    +0.000 A 
ATOM     37  H   UNL     1      -9.508   0.842  23.323  0.00  0.00    +0.000 HD
ATOM     38  H   UNL     1      -8.196  -0.109  25.172  0.00  0.00    +0.000 HD
ATOM     39  H   UNL     1     -10.716  -3.602  25.190  0.00  0.00    +0.000 HD
ATOM     40  H   UNL     1     -12.043  -2.657  23.320  0.00  0.00    +0.000 HD
BRANCH  34  41
ATOM     41  O   UNL     1      -8.682  -2.486  26.313  0.00  0.00    +0.000 OA
ATOM     42  H   UNL     1      -7.844  -2.839  25.973  0.00  0.00    +0.000 HD
ENDBRANCH  34  41
ENDBRANCH  28  31
ENDBRANCH   7  27
BRANCH   6  43
ATOM     43  O   UNL     1     -10.839  -1.716  18.723  0.00  0.00    +0.000 OA
BRANCH  43  44
ATOM     44  C   UNL     1     -11.428  -2.824  19.236  0.00  0.00    +0.000 C 
ATOM     45  O   UNL     1     -12.465  -2.868  19.864  0.00  0.00    +0.000 OA
BRANCH  44  46
ATOM     46  C   UNL     1     -10.721  -4.036  18.723  0.00  0.00    +0.000 A 
ATOM     47  C   UNL     1     -11.290  -4.772  17.682  0.00  0.00    +0.000 A 
ATOM     48  C   UNL     1     -10.571  -5.824  17.104  0.00  0.00    +0.000 A 
ATOM     49  C   UNL     1      -9.266  -6.140  17.537  0.00  0.00    +0.000 A 
ATOM     50  C   UNL     1      -8.696  -5.369  18.556  0.00  0.00    +0.000 A 
ATOM     51  C   UNL     1      -9.436  -4.364  19.170  0.00  0.00    +0.000 A 
ATOM     52  H   UNL     1     -12.286  -4.516  17.325  0.00  0.00    +0.000 HD
ATOM     53  H   UNL     1      -8.968  -3.817  19.978  0.00  0.00    +0.000 HD
BRANCH  50  54
ATOM     54  O   UNL     1      -7.421  -5.508  19.038  0.00  0.00    +0.000 OA
ATOM     55  H   UNL     1      -7.207  -6.448  19.165  0.00  0.00    +0.000 HD
ENDBRANCH  50  54
BRANCH  49  56
ATOM     56  C   UNL     1      -8.518  -7.247  16.897  0.00  0.00    +0.000 C 
ATOM     57  O   UNL     1      -7.400  -7.007  16.431  0.00  0.00    +0.000 OA
BRANCH  56  58
ATOM     58  C   UNL     1      -8.926  -8.684  16.955  0.00  0.00    +0.000 A 
ATOM     59  C   UNL     1      -9.257  -9.284  15.720  0.00  0.00    +0.000 A 
ATOM     60  C   UNL     1      -9.626 -10.625  15.629  0.00  0.00    +0.000 A 
ATOM     61  C   UNL     1      -9.654 -11.411  16.771  0.00  0.00    +0.000 A 
ATOM     62  C   UNL     1      -9.311 -10.855  18.003  0.00  0.00    +0.000 A 
ATOM     63  C   UNL     1      -8.943  -9.498  18.112  0.00  0.00    +0.000 A 
ATOM     64  H   UNL     1      -9.898 -11.046  14.663  0.00  0.00    +0.000 HD
ATOM     65  H   UNL     1      -9.954 -12.454  16.703  0.00  0.00    +0.000 HD
ATOM     66  H   UNL     1      -9.373 -11.493  18.881  0.00  0.00    +0.000 HD
BRANCH  63  67
ATOM     67  C   UNL     1      -8.641  -8.983  19.473  0.00  0.00    +0.000 C 
ATOM     68  O   UNL     1      -7.625  -8.372  19.743  0.00  0.00    +0.000 OA
BRANCH  67  69
ATOM     69  O   UNL     1      -9.586  -9.262  20.402  0.00  0.00    +0.000 OA
ATOM     70  H   UNL     1      -9.849  -8.539  21.001  0.00  0.00    +0.000 HD
ENDBRANCH  67  69
ENDBRANCH  63  67
BRANCH  59  71
ATOM     71  O   UNL     1      -9.197  -8.625  14.515  0.00  0.00    +0.000 OA
ATOM     72  H   UNL     1     -10.115  -8.373  14.252  0.00  0.00    +0.000 HD
ENDBRANCH  59  71
ENDBRANCH  56  58
ENDBRANCH  49  56
BRANCH  48  73
ATOM     73  O   UNL     1     -11.167  -6.554  16.111  0.00  0.00    +0.000 OA
ATOM     74  H   UNL     1     -11.219  -6.035  15.292  0.00  0.00    +0.000 HD
ENDBRANCH  48  73
ENDBRANCH  44  46
ENDBRANCH  43  44
ENDBRANCH   6  43
TORSDOF 16
ENDMDL
MODEL 4
REMARK VINA RESULT:    -9.497      1.863      5.681
REMARK INTER + INTRA:         -18.209
REMARK INTER:                 -14.889
REMARK INTRA:                  -3.320
REMARK UNBOUND:                -2.049
REMARK  Name = 
REMARK  16 active torsions:
REMARK  status: ('A' for Active; 'I' for Inactive)
REMARK    1  A    between atoms: C_1  and  C_2
REMARK    2  A    between atoms: C_2  and  C_3
REMARK    3  A    between atoms: C_7  and  C_8
REMARK    4  A    between atoms: C_9  and  O_10
REMARK    5  A    between atoms: O_10  and  C_11
REMARK    6  A    between atoms: C_11  and  C_13
REMARK    7  A    between atoms: C_15  and  O_16
REMARK    8  A    between atoms: C_17  and  C_18
REMARK    9  A    between atoms: C_18  and  C_20
REMARK   10  A    between atoms: C_21  and  O_22
REMARK   11  A    between atoms: C_26  and  C_27
REMARK   12  A    between atoms: C_27  and  O_29
REMARK   13  A    between atoms: C_30  and  O_31
REMARK   14  A    between atoms: C_33  and  N_34
REMARK   15  A    between atoms: C_35  and  C_37
REMARK   16  A    between atoms: C_40  and  O_41
REMARK                            x       y       z     vdW  Elec       q    Type
REMARK                         _______ _______ _______ _____ _____    ______ ____
ROOT
ATOM      1  C   UNL     1      -9.960  -2.054  22.555  0.00  0.00    +0.000 C 
ATOM      2  C   UNL     1      -9.619  -1.045  21.430  0.00  0.00    +0.000 C 
ATOM      3  C   UNL     1      -8.703  -0.022  22.139  0.00  0.00    +0.000 C 
ATOM      4  C   UNL     1      -7.880  -0.906  23.087  0.00  0.00    +0.000 C 
ATOM      5  C   UNL     1      -8.448  -2.333  22.829  0.00  0.00    +0.000 C 
ATOM      6  C   UNL     1      -7.884  -2.765  21.424  0.00  0.00    +0.000 C 
ATOM      7  C   UNL     1      -8.690  -1.837  20.452  0.00  0.00    +0.000 C 
ATOM      8  H   UNL     1     -10.489  -0.576  20.964  0.00  0.00    +0.000 HD
ATOM      9  H   UNL     1      -9.287   0.716  22.699  0.00  0.00    +0.000 HD
ATOM     10  H   UNL     1      -8.067   0.532  21.442  0.00  0.00    +0.000 HD
ATOM     11  H   UNL     1      -8.017  -0.587  24.126  0.00  0.00    +0.000 HD
ATOM     12  H   UNL     1      -6.809  -0.841  22.870  0.00  0.00    +0.000 HD
ATOM     13  H   UNL     1      -6.814  -2.544  21.325  0.00  0.00    +0.000 HD
ATOM     14  H   UNL     1      -7.998  -1.144  19.953  0.00  0.00    +0.000 HD
ENDROOT
BRANCH   1  15
ATOM     15  C   UNL     1     -10.821  -3.244  22.095  0.00  0.00    +0.000 C 
ATOM     16  H   UNL     1     -11.302  -3.024  21.135  0.00  0.00    +0.000 HD
ATOM     17  H   UNL     1     -11.612  -3.457  22.822  0.00  0.00    +0.000 HD
ATOM     18  H   UNL     1     -10.276  -4.168  21.934  0.00  0.00    +0.000 HD
ENDBRANCH   1  15
BRANCH   5  19
ATOM     19  C   UNL     1      -8.160  -3.266  23.994  0.00  0.00    +0.000 C 
ATOM     20  H   UNL     1      -7.336  -2.889  24.609  0.00  0.00    +0.000 HD
ATOM     21  H   UNL     1      -7.870  -4.260  23.640  0.00  0.00    +0.000 HD
ATOM     22  H   UNL     1      -9.020  -3.371  24.659  0.00  0.00    +0.000 HD
ENDBRANCH   5  19
BRANCH   1  23
ATOM     23  C   UNL     1     -10.733  -1.449  23.746  0.00  0.00    +0.000 C 
ATOM     24  H   UNL     1     -10.045  -1.207  24.564  0.00  0.00    +0.000 HD
ATOM     25  H   UNL     1     -11.506  -2.096  24.163  0.00  0.00    +0.000 HD
ATOM     26  H   UNL     1     -11.228  -0.517  23.448  0.00  0.00    +0.000 HD
ENDBRANCH   1  23
BRANCH   7  27
ATOM     27  N   UNL     1      -9.417  -2.509  19.385  0.00  0.00    +0.000 N 
ATOM     28  C   UNL     1      -9.623  -1.883  18.173  0.00  0.00    +0.000 C 
ATOM     29  O   UNL     1      -9.254  -0.732  17.942  0.00  0.00    +0.000 OA
ATOM     30  H   UNL     1      -9.498  -3.518  19.446  0.00  0.00    +0.000 HD
BRANCH  28  31
ATOM     31  C   UNL     1     -10.280  -2.669  17.097  0.00  0.00    +0.000 A 
ATOM     32  C   UNL     1     -10.823  -3.940  17.324  0.00  0.00    +0.000 A 
ATOM     33  C   UNL     1     -11.423  -4.643  16.275  0.00  0.00    +0.000 A 
ATOM     34  C   UNL     1     -11.482  -4.069  15.006  0.00  0.00    +0.000 A 
ATOM     35  C   UNL     1     -10.965  -2.798  14.776  0.00  0.00    +0.000 A 
ATOM     36  C   UNL     1     -10.374  -2.095  15.820  0.00  0.00    +0.000 A 
ATOM     37  H   UNL     1     -10.810  -4.381  18.317  0.00  0.00    +0.000 HD
ATOM     38  H   UNL     1     -11.836  -5.631  16.465  0.00  0.00    +0.000 HD
ATOM     39  H   UNL     1     -11.026  -2.360  13.782  0.00  0.00    +0.000 HD
ATOM     40  H   UNL     1      -9.983  -1.091  15.641  0.00  0.00    +0.000 HD
BRANCH  34  41
ATOM     41  O   UNL     1     -12.047  -4.720  13.953  0.00  0.00    +0.000 OA
ATOM     42  H   UNL     1     -11.361  -5.232  13.493  0.00  0.00    +0.000 HD
ENDBRANCH  34  41
ENDBRANCH  28  31
ENDBRANCH   7  27
BRANCH   6  43
ATOM     43  O   UNL     1      -8.121  -4.161  21.168  0.00  0.00    +0.000 OA
BRANCH  43  44
ATOM     44  C   UNL     1      -7.137  -4.827  20.516  0.00  0.00    +0.000 C 
ATOM     45  O   UNL     1      -5.941  -4.701  20.685  0.00  0.00    +0.000 OA
BRANCH  44  46
ATOM     46  C   UNL     1      -7.744  -5.919  19.696  0.00  0.00    +0.000 A 
ATOM     47  C   UNL     1      -8.483  -6.920  20.330  0.00  0.00    +0.000 A 
ATOM     48  C   UNL     1      -9.169  -7.866  19.559  0.00  0.00    +0.000 A 
ATOM     49  C   UNL     1      -9.150  -7.810  18.149  0.00  0.00    +0.000 A 
ATOM     50  C   UNL     1      -8.436  -6.778  17.532  0.00  0.00    +0.000 A 
ATOM     51  C   UNL     1      -7.705  -5.877  18.298  0.00  0.00    +0.000 A 
ATOM     52  H   UNL     1      -8.523  -6.954  21.416  0.00  0.00    +0.000 HD
ATOM     53  H   UNL     1      -7.138  -5.117  17.777  0.00  0.00    +0.000 HD
BRANCH  50  54
ATOM     54  O   UNL     1      -8.377  -6.551  16.182  0.00  0.00    +0.000 OA
ATOM     55  H   UNL     1      -8.573  -7.366  15.691  0.00  0.00    +0.000 HD
ENDBRANCH  50  54
BRANCH  49  56
ATOM     56  C   UNL     1      -9.900  -8.811  17.356  0.00  0.00    +0.000 C 
ATOM     57  O   UNL     1     -11.119  -8.661  17.222  0.00  0.00    +0.000 OA
BRANCH  56  58
ATOM     58  C   UNL     1      -9.261  -9.880  16.528  0.00  0.00    +0.000 A 
ATOM     59  C   UNL     1      -9.201  -9.632  15.138  0.00  0.00    +0.000 A 
ATOM     60  C   UNL     1      -8.606 -10.532  14.256  0.00  0.00    +0.000 A 
ATOM     61  C   UNL     1      -8.034 -11.698  14.743  0.00  0.00    +0.000 A 
ATOM     62  C   UNL     1      -8.057 -11.962  16.112  0.00  0.00    +0.000 A 
ATOM     63  C   UNL     1      -8.662 -11.064  17.016  0.00  0.00    +0.000 A 
ATOM     64  H   UNL     1      -8.600 -10.320  13.189  0.00  0.00    +0.000 HD
ATOM     65  H   UNL     1      -7.581 -12.408  14.054  0.00  0.00    +0.000 HD
ATOM     66  H   UNL     1      -7.626 -12.900  16.454  0.00  0.00    +0.000 HD
BRANCH  63  67
ATOM     67  C   UNL     1      -8.680 -11.454  18.450  0.00  0.00    +0.000 C 
ATOM     68  O   UNL     1      -8.174 -10.781  19.328  0.00  0.00    +0.000 OA
BRANCH  67  69
ATOM     69  O   UNL     1      -9.295 -12.633  18.705  0.00  0.00    +0.000 OA
ATOM     70  H   UNL     1      -9.358 -13.270  17.969  0.00  0.00    +0.000 HD
ENDBRANCH  67  69
ENDBRANCH  63  67
BRANCH  59  71
ATOM     71  O   UNL     1      -9.669  -8.482  14.551  0.00  0.00    +0.000 OA
ATOM     72  H   UNL     1      -9.403  -7.715  15.112  0.00  0.00    +0.000 HD
ENDBRANCH  59  71
ENDBRANCH  56  58
ENDBRANCH  49  56
BRANCH  48  73
ATOM     73  O   UNL     1      -9.854  -8.861  20.203  0.00  0.00    +0.000 OA
ATOM     74  H   UNL     1     -10.086  -8.583  21.105  0.00  0.00    +0.000 HD
ENDBRANCH  48  73
ENDBRANCH  44  46
ENDBRANCH  43  44
ENDBRANCH   6  43
TORSDOF 16
ENDMDL
MODEL 5
REMARK VINA RESULT:    -9.443      1.802      5.422
REMARK INTER + INTRA:         -18.117
REMARK INTER:                 -15.231
REMARK INTRA:                  -2.886
REMARK UNBOUND:                -2.049
REMARK  Name = 
REMARK  16 active torsions:
REMARK  status: ('A' for Active; 'I' for Inactive)
REMARK    1  A    between atoms: C_1  and  C_2
REMARK    2  A    between atoms: C_2  and  C_3
REMARK    3  A    between atoms: C_7  and  C_8
REMARK    4  A    between atoms: C_9  and  O_10
REMARK    5  A    between atoms: O_10  and  C_11
REMARK    6  A    between atoms: C_11  and  C_13
REMARK    7  A    between atoms: C_15  and  O_16
REMARK    8  A    between atoms: C_17  and  C_18
REMARK    9  A    between atoms: C_18  and  C_20
REMARK   10  A    between atoms: C_21  and  O_22
REMARK   11  A    between atoms: C_26  and  C_27
REMARK   12  A    between atoms: C_27  and  O_29
REMARK   13  A    between atoms: C_30  and  O_31
REMARK   14  A    between atoms: C_33  and  N_34
REMARK   15  A    between atoms: C_35  and  C_37
REMARK   16  A    between atoms: C_40  and  O_41
REMARK                            x       y       z     vdW  Elec       q    Type
REMARK                         _______ _______ _______ _____ _____    ______ ____
ROOT
ATOM      1  C   UNL     1      -9.917  -2.082  22.567  0.00  0.00    +0.000 C 
ATOM      2  C   UNL     1      -9.559  -1.045  21.473  0.00  0.00    +0.000 C 
ATOM      3  C   UNL     1      -8.632  -0.056  22.214  0.00  0.00    +0.000 C 
ATOM      4  C   UNL     1      -7.823  -0.979  23.138  0.00  0.00    +0.000 C 
ATOM      5  C   UNL     1      -8.410  -2.389  22.836  0.00  0.00    +0.000 C 
ATOM      6  C   UNL     1      -7.847  -2.788  21.421  0.00  0.00    +0.000 C 
ATOM      7  C   UNL     1      -8.639  -1.820  20.475  0.00  0.00    +0.000 C 
ATOM      8  H   UNL     1     -10.421  -0.551  21.019  0.00  0.00    +0.000 HD
ATOM      9  H   UNL     1      -9.206   0.673  22.794  0.00  0.00    +0.000 HD
ATOM     10  H   UNL     1      -7.986   0.509  21.535  0.00  0.00    +0.000 HD
ATOM     11  H   UNL     1      -7.959  -0.689  24.186  0.00  0.00    +0.000 HD
ATOM     12  H   UNL     1      -6.751  -0.923  22.925  0.00  0.00    +0.000 HD
ATOM     13  H   UNL     1      -6.774  -2.579  21.330  0.00  0.00    +0.000 HD
ATOM     14  H   UNL     1      -7.936  -1.122  19.998  0.00  0.00    +0.000 HD
ENDROOT
BRANCH   1  15
ATOM     15  C   UNL     1     -10.792  -3.246  22.070  0.00  0.00    +0.000 C 
ATOM     16  H   UNL     1     -11.836  -3.100  22.370  0.00  0.00    +0.000 HD
ATOM     17  H   UNL     1     -10.455  -4.198  22.496  0.00  0.00    +0.000 HD
ATOM     18  H   UNL     1     -10.822  -3.369  20.992  0.00  0.00    +0.000 HD
ENDBRANCH   1  15
BRANCH   5  19
ATOM     19  C   UNL     1      -8.138  -3.360  23.974  0.00  0.00    +0.000 C 
ATOM     20  H   UNL     1      -7.523  -4.202  23.639  0.00  0.00    +0.000 HD
ATOM     21  H   UNL     1      -9.071  -3.779  24.365  0.00  0.00    +0.000 HD
ATOM     22  H   UNL     1      -7.597  -2.888  24.796  0.00  0.00    +0.000 HD
ENDBRANCH   5  19
BRANCH   1  23
ATOM     23  C   UNL     1     -10.685  -1.502  23.773  0.00  0.00    +0.000 C 
ATOM     24  H   UNL     1     -10.916  -2.294  24.495  0.00  0.00    +0.000 HD
ATOM     25  H   UNL     1     -11.629  -1.017  23.522  0.00  0.00    +0.000 HD
ATOM     26  H   UNL     1     -10.074  -0.753  24.292  0.00  0.00    +0.000 HD
ENDBRANCH   1  23
BRANCH   7  27
ATOM     27  N   UNL     1      -9.371  -2.450  19.386  0.00  0.00    +0.000 N 
ATOM     28  C   UNL     1      -9.600  -1.771  18.207  0.00  0.00    +0.000 C 
ATOM     29  O   UNL     1      -9.247  -0.606  18.025  0.00  0.00    +0.000 OA
ATOM     30  H   UNL     1      -9.440  -3.462  19.401  0.00  0.00    +0.000 HD
BRANCH  28  31
ATOM     31  C   UNL     1     -10.262  -2.514  17.103  0.00  0.00    +0.000 A 
ATOM     32  C   UNL     1     -10.693  -1.881  15.930  0.00  0.00    +0.000 A 
ATOM     33  C   UNL     1     -11.319  -2.622  14.923  0.00  0.00    +0.000 A 
ATOM     34  C   UNL     1     -11.506  -3.993  15.094  0.00  0.00    +0.000 A 
ATOM     35  C   UNL     1     -11.063  -4.634  16.247  0.00  0.00    +0.000 A 
ATOM     36  C   UNL     1     -10.434  -3.898  17.245  0.00  0.00    +0.000 A 
ATOM     37  H   UNL     1     -10.521  -0.819  15.775  0.00  0.00    +0.000 HD
ATOM     38  H   UNL     1     -11.652  -2.117  14.020  0.00  0.00    +0.000 HD
ATOM     39  H   UNL     1     -11.208  -5.706  16.361  0.00  0.00    +0.000 HD
ATOM     40  H   UNL     1     -10.072  -4.406  18.142  0.00  0.00    +0.000 HD
BRANCH  34  41
ATOM     41  O   UNL     1     -12.120  -4.754  14.147  0.00  0.00    +0.000 OA
ATOM     42  H   UNL     1     -11.517  -4.870  13.395  0.00  0.00    +0.000 HD
ENDBRANCH  34  41
ENDBRANCH  28  31
ENDBRANCH   7  27
BRANCH   6  43
ATOM     43  O   UNL     1      -8.103  -4.172  21.123  0.00  0.00    +0.000 OA
BRANCH  43  44
ATOM     44  C   UNL     1      -7.102  -4.848  20.507  0.00  0.00    +0.000 C 
ATOM     45  O   UNL     1      -5.911  -4.709  20.694  0.00  0.00    +0.000 OA
BRANCH  44  46
ATOM     46  C   UNL     1      -7.686  -5.965  19.705  0.00  0.00    +0.000 A 
ATOM     47  C   UNL     1      -8.516  -6.897  20.332  0.00  0.00    +0.000 A 
ATOM     48  C   UNL     1      -9.177  -7.862  19.563  0.00  0.00    +0.000 A 
ATOM     49  C   UNL     1      -9.041  -7.895  18.160  0.00  0.00    +0.000 A 
ATOM     50  C   UNL     1      -8.236  -6.930  17.544  0.00  0.00    +0.000 A 
ATOM     51  C   UNL     1      -7.532  -6.012  18.315  0.00  0.00    +0.000 A 
ATOM     52  H   UNL     1      -8.646  -6.861  21.412  0.00  0.00    +0.000 HD
ATOM     53  H   UNL     1      -6.893  -5.307  17.799  0.00  0.00    +0.000 HD
BRANCH  50  54
ATOM     54  O   UNL     1      -8.058  -6.790  16.193  0.00  0.00    +0.000 OA
ATOM     55  H   UNL     1      -7.434  -6.070  16.005  0.00  0.00    +0.000 HD
ENDBRANCH  50  54
BRANCH  49  56
ATOM     56  C   UNL     1      -9.767  -8.915  17.367  0.00  0.00    +0.000 C 
ATOM     57  O   UNL     1     -10.904  -8.648  16.966  0.00  0.00    +0.000 OA
BRANCH  56  58
ATOM     58  C   UNL     1      -9.145 -10.167  16.835  0.00  0.00    +0.000 A 
ATOM     59  C   UNL     1      -8.767 -11.127  17.799  0.00  0.00    +0.000 A 
ATOM     60  C   UNL     1      -8.203 -12.349  17.437  0.00  0.00    +0.000 A 
ATOM     61  C   UNL     1      -8.021 -12.655  16.097  0.00  0.00    +0.000 A 
ATOM     62  C   UNL     1      -8.404 -11.737  15.119  0.00  0.00    +0.000 A 
ATOM     63  C   UNL     1      -8.969 -10.493  15.470  0.00  0.00    +0.000 A 
ATOM     64  H   UNL     1      -7.902 -13.055  18.209  0.00  0.00    +0.000 HD
ATOM     65  H   UNL     1      -7.569 -13.602  15.814  0.00  0.00    +0.000 HD
ATOM     66  H   UNL     1      -8.219 -11.998  14.080  0.00  0.00    +0.000 HD
BRANCH  63  67
ATOM     67  C   UNL     1      -9.301  -9.562  14.361  0.00  0.00    +0.000 C 
ATOM     68  O   UNL     1      -8.766  -8.479  14.220  0.00  0.00    +0.000 OA
BRANCH  67  69
ATOM     69  O   UNL     1     -10.263 -10.009  13.520  0.00  0.00    +0.000 OA
ATOM     70  H   UNL     1     -11.102  -9.513  13.498  0.00  0.00    +0.000 HD
ENDBRANCH  67  69
ENDBRANCH  63  67
BRANCH  59  71
ATOM     71  O   UNL     1      -8.964 -10.967  19.149  0.00  0.00    +0.000 OA
ATOM     72  H   UNL     1      -9.394 -11.783  19.501  0.00  0.00    +0.000 HD
ENDBRANCH  59  71
ENDBRANCH  56  58
ENDBRANCH  49  56
BRANCH  48  73
ATOM     73  O   UNL     1      -9.954  -8.789  20.206  0.00  0.00    +0.000 OA
ATOM     74  H   UNL     1      -9.501  -9.648  20.236  0.00  0.00    +0.000 HD
ENDBRANCH  48  73
ENDBRANCH  44  46
ENDBRANCH  43  44
ENDBRANCH   6  43
TORSDOF 16
ENDMDL
MODEL 6
REMARK VINA RESULT:    -9.396      1.933      2.917
REMARK INTER + INTRA:         -18.037
REMARK INTER:                 -16.463
REMARK INTRA:                  -1.574
REMARK UNBOUND:                -2.049
REMARK  Name = 
REMARK  16 active torsions:
REMARK  status: ('A' for Active; 'I' for Inactive)
REMARK    1  A    between atoms: C_1  and  C_2
REMARK    2  A    between atoms: C_2  and  C_3
REMARK    3  A    between atoms: C_7  and  C_8
REMARK    4  A    between atoms: C_9  and  O_10
REMARK    5  A    between atoms: O_10  and  C_11
REMARK    6  A    between atoms: C_11  and  C_13
REMARK    7  A    between atoms: C_15  and  O_16
REMARK    8  A    between atoms: C_17  and  C_18
REMARK    9  A    between atoms: C_18  and  C_20
REMARK   10  A    between atoms: C_21  and  O_22
REMARK   11  A    between atoms: C_26  and  C_27
REMARK   12  A    between atoms: C_27  and  O_29
REMARK   13  A    between atoms: C_30  and  O_31
REMARK   14  A    between atoms: C_33  and  N_34
REMARK   15  A    between atoms: C_35  and  C_37
REMARK   16  A    between atoms: C_40  and  O_41
REMARK                            x       y       z     vdW  Elec       q    Type
REMARK                         _______ _______ _______ _____ _____    ______ ____
ROOT
ATOM      1  C   UNL     1     -10.057   0.467  19.148  0.00  0.00    +0.000 C 
ATOM      2  C   UNL     1     -10.084  -0.231  20.532  0.00  0.00    +0.000 C 
ATOM      3  C   UNL     1     -11.460   0.176  21.105  0.00  0.00    +0.000 C 
ATOM      4  C   UNL     1     -12.363   0.155  19.864  0.00  0.00    +0.000 C 
ATOM      5  C   UNL     1     -11.384  -0.234  18.716  0.00  0.00    +0.000 C 
ATOM      6  C   UNL     1     -11.084  -1.766  18.915  0.00  0.00    +0.000 C 
ATOM      7  C   UNL     1     -10.196  -1.756  20.207  0.00  0.00    +0.000 C 
ATOM      8  H   UNL     1      -9.258   0.043  21.192  0.00  0.00    +0.000 HD
ATOM      9  H   UNL     1     -11.428   1.176  21.549  0.00  0.00    +0.000 HD
ATOM     10  H   UNL     1     -11.815  -0.510  21.880  0.00  0.00    +0.000 HD
ATOM     11  H   UNL     1     -12.821   1.137  19.703  0.00  0.00    +0.000 HD
ATOM     12  H   UNL     1     -13.180  -0.566  19.972  0.00  0.00    +0.000 HD
ATOM     13  H   UNL     1     -11.997  -2.342  19.113  0.00  0.00    +0.000 HD
ATOM     14  H   UNL     1     -10.728  -2.271  21.019  0.00  0.00    +0.000 HD
ENDROOT
BRANCH   1  15
ATOM     15  C   UNL     1      -8.800   0.164  18.314  0.00  0.00    +0.000 C 
ATOM     16  H   UNL     1      -8.847  -0.850  17.898  0.00  0.00    +0.000 HD
ATOM     17  H   UNL     1      -7.897   0.226  18.933  0.00  0.00    +0.000 HD
ATOM     18  H   UNL     1      -8.650   0.815  17.460  0.00  0.00    +0.000 HD
ENDBRANCH   1  15
BRANCH   5  19
ATOM     19  C   UNL     1     -11.926   0.183  17.358  0.00  0.00    +0.000 C 
ATOM     20  H   UNL     1     -13.019   0.254  17.372  0.00  0.00    +0.000 HD
ATOM     21  H   UNL     1     -11.661  -0.548  16.588  0.00  0.00    +0.000 HD
ATOM     22  H   UNL     1     -11.555   1.162  17.050  0.00  0.00    +0.000 HD
ENDBRANCH   5  19
BRANCH   1  23
ATOM     23  C   UNL     1     -10.127   2.007  19.206  0.00  0.00    +0.000 C 
ATOM     24  H   UNL     1     -10.531   2.335  20.171  0.00  0.00    +0.000 HD
ATOM     25  H   UNL     1     -10.746   2.465  18.432  0.00  0.00    +0.000 HD
ATOM     26  H   UNL     1      -9.125   2.440  19.105  0.00  0.00    +0.000 HD
ENDBRANCH   1  23
BRANCH   7  27
ATOM     27  N   UNL     1      -8.904  -2.418  20.097  0.00  0.00    +0.000 N 
ATOM     28  C   UNL     1      -8.299  -2.966  21.209  0.00  0.00    +0.000 C 
ATOM     29  O   UNL     1      -8.780  -2.892  22.339  0.00  0.00    +0.000 OA
ATOM     30  H   UNL     1      -8.617  -2.720  19.173  0.00  0.00    +0.000 HD
BRANCH  28  31
ATOM     31  C   UNL     1      -7.033  -3.717  21.003  0.00  0.00    +0.000 A 
ATOM     32  C   UNL     1      -5.827  -3.327  21.600  0.00  0.00    +0.000 A 
ATOM     33  C   UNL     1      -4.661  -4.062  21.368  0.00  0.00    +0.000 A 
ATOM     34  C   UNL     1      -4.707  -5.185  20.543  0.00  0.00    +0.000 A 
ATOM     35  C   UNL     1      -5.905  -5.592  19.962  0.00  0.00    +0.000 A 
ATOM     36  C   UNL     1      -7.067  -4.866  20.199  0.00  0.00    +0.000 A 
ATOM     37  H   UNL     1      -5.789  -2.473  22.270  0.00  0.00    +0.000 HD
ATOM     38  H   UNL     1      -3.731  -3.745  21.835  0.00  0.00    +0.000 HD
ATOM     39  H   UNL     1      -5.927  -6.476  19.329  0.00  0.00    +0.000 HD
ATOM     40  H   UNL     1      -8.009  -5.196  19.755  0.00  0.00    +0.000 HD
BRANCH  34  41
ATOM     41  O   UNL     1      -3.596  -5.925  20.280  0.00  0.00    +0.000 OA
ATOM     42  H   UNL     1      -3.826  -6.627  19.650  0.00  0.00    +0.000 HD
ENDBRANCH  34  41
ENDBRANCH  28  31
ENDBRANCH   7  27
BRANCH   6  43
ATOM     43  O   UNL     1     -10.394  -2.320  17.782  0.00  0.00    +0.000 OA
BRANCH  43  44
ATOM     44  C   UNL     1     -11.033  -3.311  17.114  0.00  0.00    +0.000 C 
ATOM     45  O   UNL     1     -11.773  -3.181  16.161  0.00  0.00    +0.000 OA
BRANCH  44  46
ATOM     46  C   UNL     1     -10.520  -4.632  17.587  0.00  0.00    +0.000 A 
ATOM     47  C   UNL     1     -11.404  -5.540  18.174  0.00  0.00    +0.000 A 
ATOM     48  C   UNL     1     -10.962  -6.829  18.491  0.00  0.00    +0.000 A 
ATOM     49  C   UNL     1      -9.643  -7.239  18.206  0.00  0.00    +0.000 A 
ATOM     50  C   UNL     1      -8.781  -6.329  17.583  0.00  0.00    +0.000 A 
ATOM     51  C   UNL     1      -9.204  -5.030  17.325  0.00  0.00    +0.000 A 
ATOM     52  H   UNL     1     -12.431  -5.238  18.373  0.00  0.00    +0.000 HD
ATOM     53  H   UNL     1      -8.493  -4.349  16.875  0.00  0.00    +0.000 HD
BRANCH  50  54
ATOM     54  O   UNL     1      -7.499  -6.597  17.183  0.00  0.00    +0.000 OA
ATOM     55  H   UNL     1      -7.482  -7.363  16.585  0.00  0.00    +0.000 HD
ENDBRANCH  50  54
BRANCH  49  56
ATOM     56  C   UNL     1      -9.205  -8.615  18.535  0.00  0.00    +0.000 C 
ATOM     57  O   UNL     1      -9.073  -8.921  19.724  0.00  0.00    +0.000 OA
BRANCH  56  58
ATOM     58  C   UNL     1      -9.110  -9.729  17.541  0.00  0.00    +0.000 A 
ATOM     59  C   UNL     1      -8.636 -10.963  18.040  0.00  0.00    +0.000 A 
ATOM     60  C   UNL     1      -8.527 -12.090  17.228  0.00  0.00    +0.000 A 
ATOM     61  C   UNL     1      -8.909 -12.020  15.897  0.00  0.00    +0.000 A 
ATOM     62  C   UNL     1      -9.400 -10.823  15.379  0.00  0.00    +0.000 A 
ATOM     63  C   UNL     1      -9.510  -9.672  16.187  0.00  0.00    +0.000 A 
ATOM     64  H   UNL     1      -8.135 -13.018  17.641  0.00  0.00    +0.000 HD
ATOM     65  H   UNL     1      -8.811 -12.896  15.259  0.00  0.00    +0.000 HD
ATOM     66  H   UNL     1      -9.662 -10.797  14.324  0.00  0.00    +0.000 HD
BRANCH  63  67
ATOM     67  C   UNL     1     -10.000  -8.429  15.534  0.00  0.00    +0.000 C 
ATOM     68  O   UNL     1      -9.269  -7.652  14.952  0.00  0.00    +0.000 OA
BRANCH  67  69
ATOM     69  O   UNL     1     -11.333  -8.222  15.651  0.00  0.00    +0.000 OA
ATOM     70  H   UNL     1     -11.642  -7.743  16.442  0.00  0.00    +0.000 HD
ENDBRANCH  67  69
ENDBRANCH  63  67
BRANCH  59  71
ATOM     71  O   UNL     1      -8.297 -11.171  19.355  0.00  0.00    +0.000 OA
ATOM     72  H   UNL     1      -7.317 -11.090  19.441  0.00  0.00    +0.000 HD
ENDBRANCH  59  71
ENDBRANCH  56  58
ENDBRANCH  49  56
BRANCH  48  73
ATOM     73  O   UNL     1     -11.837  -7.687  19.102  0.00  0.00    +0.000 OA
ATOM     74  H   UNL     1     -12.744  -7.345  19.043  0.00  0.00    +0.000 HD
ENDBRANCH  48  73
ENDBRANCH  44  46
ENDBRANCH  43  44
ENDBRANCH   6  43
TORSDOF 16
ENDMDL
MODEL 7
REMARK VINA RESULT:    -9.306      2.404      3.294
REMARK INTER + INTRA:         -17.884
REMARK INTER:                 -16.112
REMARK INTRA:                  -1.771
REMARK UNBOUND:                -2.049
REMARK  Name = 
REMARK  16 active torsions:
REMARK  status: ('A' for Active; 'I' for Inactive)
REMARK    1  A    between atoms: C_1  and  C_2
REMARK    2  A    between atoms: C_2  and  C_3
REMARK    3  A    between atoms: C_7  and  C_8
REMARK    4  A    between atoms: C_9  and  O_10
REMARK    5  A    between atoms: O_10  and  C_11
REMARK    6  A    between atoms: C_11  and  C_13
REMARK    7  A    between atoms: C_15  and  O_16
REMARK    8  A    between atoms: C_17  and  C_18
REMARK    9  A    between atoms: C_18  and  C_20
REMARK   10  A    between atoms: C_21  and  O_22
REMARK   11  A    between atoms: C_26  and  C_27
REMARK   12  A    between atoms: C_27  and  O_29
REMARK   13  A    between atoms: C_30  and  O_31
REMARK   14  A    between atoms: C_33  and  N_34
REMARK   15  A    between atoms: C_35  and  C_37
REMARK   16  A    between atoms: C_40  and  O_41
REMARK                            x       y       z     vdW  Elec       q    Type
REMARK                         _______ _______ _______ _____ _____    ______ ____
ROOT
ATOM      1  C   UNL     1     -10.064   1.400  18.478  0.00  0.00    +0.000 C 
ATOM      2  C   UNL     1     -10.876   1.505  19.794  0.00  0.00    +0.000 C 
ATOM      3  C   UNL     1     -12.077   2.392  19.397  0.00  0.00    +0.000 C 
ATOM      4  C   UNL     1     -12.387   1.923  17.968  0.00  0.00    +0.000 C 
ATOM      5  C   UNL     1     -11.299   0.839  17.705  0.00  0.00    +0.000 C 
ATOM      6  C   UNL     1     -11.737  -0.414  18.550  0.00  0.00    +0.000 C 
ATOM      7  C   UNL     1     -11.462   0.073  20.015  0.00  0.00    +0.000 C 
ATOM      8  H   UNL     1     -10.316   1.912  20.638  0.00  0.00    +0.000 HD
ATOM      9  H   UNL     1     -11.812   3.455  19.412  0.00  0.00    +0.000 HD
ATOM     10  H   UNL     1     -12.936   2.265  20.063  0.00  0.00    +0.000 HD
ATOM     11  H   UNL     1     -12.317   2.760  17.264  0.00  0.00    +0.000 HD
ATOM     12  H   UNL     1     -13.401   1.519  17.887  0.00  0.00    +0.000 HD
ATOM     13  H   UNL     1     -12.806  -0.632  18.440  0.00  0.00    +0.000 HD
ATOM     14  H   UNL     1     -12.415   0.142  20.560  0.00  0.00    +0.000 HD
ENDROOT
BRANCH   1  15
ATOM     15  C   UNL     1      -8.825   0.493  18.572  0.00  0.00    +0.000 C 
ATOM     16  H   UNL     1      -8.997  -0.452  18.045  0.00  0.00    +0.000 HD
ATOM     17  H   UNL     1      -8.596   0.254  19.617  0.00  0.00    +0.000 HD
ATOM     18  H   UNL     1      -7.922   0.904  18.132  0.00  0.00    +0.000 HD
ENDBRANCH   1  15
BRANCH   5  19
ATOM     19  C   UNL     1     -11.087   0.615  16.216  0.00  0.00    +0.000 C 
ATOM     20  H   UNL     1     -10.950   1.564  15.688  0.00  0.00    +0.000 HD
ATOM     21  H   UNL     1     -11.952   0.118  15.766  0.00  0.00    +0.000 HD
ATOM     22  H   UNL     1     -10.197   0.015  16.013  0.00  0.00    +0.000 HD
ENDBRANCH   5  19
BRANCH   1  23
ATOM     23  C   UNL     1      -9.525   2.746  17.948  0.00  0.00    +0.000 C 
ATOM     24  H   UNL     1      -8.619   3.035  18.493  0.00  0.00    +0.000 HD
ATOM     25  H   UNL     1     -10.223   3.580  18.030  0.00  0.00    +0.000 HD
ATOM     26  H   UNL     1      -9.258   2.661  16.888  0.00  0.00    +0.000 HD
ENDBRANCH   1  23
BRANCH   7  27
ATOM     27  N   UNL     1     -10.604  -0.783  20.822  0.00  0.00    +0.000 N 
ATOM     28  C   UNL     1     -10.713  -0.791  22.197  0.00  0.00    +0.000 C 
ATOM     29  O   UNL     1     -11.491  -0.062  22.812  0.00  0.00    +0.000 OA
ATOM     30  H   UNL     1     -10.156  -1.561  20.352  0.00  0.00    +0.000 HD
BRANCH  28  31
ATOM     31  C   UNL     1      -9.879  -1.765  22.947  0.00  0.00    +0.000 A 
ATOM     32  C   UNL     1      -8.935  -2.585  22.313  0.00  0.00    +0.000 A 
ATOM     33  C   UNL     1      -8.180  -3.492  23.062  0.00  0.00    +0.000 A 
ATOM     34  C   UNL     1      -8.370  -3.572  24.441  0.00  0.00    +0.000 A 
ATOM     35  C   UNL     1      -9.290  -2.747  25.082  0.00  0.00    +0.000 A 
ATOM     36  C   UNL     1     -10.036  -1.840  24.338  0.00  0.00    +0.000 A 
ATOM     37  H   UNL     1      -8.759  -2.506  21.244  0.00  0.00    +0.000 HD
ATOM     38  H   UNL     1      -7.455  -4.125  22.556  0.00  0.00    +0.000 HD
ATOM     39  H   UNL     1      -9.419  -2.816  26.159  0.00  0.00    +0.000 HD
ATOM     40  H   UNL     1     -10.745  -1.182  24.845  0.00  0.00    +0.000 HD
BRANCH  34  41
ATOM     41  O   UNL     1      -7.666  -4.448  25.209  0.00  0.00    +0.000 OA
ATOM     42  H   UNL     1      -7.492  -4.041  26.073  0.00  0.00    +0.000 HD
ENDBRANCH  34  41
ENDBRANCH  28  31
ENDBRANCH   7  27
BRANCH   6  43
ATOM     43  O   UNL     1     -10.963  -1.577  18.208  0.00  0.00    +0.000 OA
BRANCH  43  44
ATOM     44  C   UNL     1     -11.644  -2.612  17.660  0.00  0.00    +0.000 C 
ATOM     45  O   UNL     1     -12.600  -2.537  16.916  0.00  0.00    +0.000 OA
BRANCH  44  46
ATOM     46  C   UNL     1     -10.907  -3.883  17.930  0.00  0.00    +0.000 A 
ATOM     47  C   UNL     1      -9.569  -3.828  18.326  0.00  0.00    +0.000 A 
ATOM     48  C   UNL     1      -8.914  -5.002  18.715  0.00  0.00    +0.000 A 
ATOM     49  C   UNL     1      -9.588  -6.240  18.739  0.00  0.00    +0.000 A 
ATOM     50  C   UNL     1     -10.939  -6.272  18.375  0.00  0.00    +0.000 A 
ATOM     51  C   UNL     1     -11.571  -5.115  17.930  0.00  0.00    +0.000 A 
ATOM     52  H   UNL     1      -9.050  -2.871  18.335  0.00  0.00    +0.000 HD
ATOM     53  H   UNL     1     -12.606  -5.193  17.625  0.00  0.00    +0.000 HD
BRANCH  50  54
ATOM     54  O   UNL     1     -11.745  -7.379  18.410  0.00  0.00    +0.000 OA
ATOM     55  H   UNL     1     -11.843  -7.757  17.520  0.00  0.00    +0.000 HD
ENDBRANCH  50  54
BRANCH  49  56
ATOM     56  C   UNL     1      -8.877  -7.465  19.172  0.00  0.00    +0.000 C 
ATOM     57  O   UNL     1      -8.402  -7.497  20.312  0.00  0.00    +0.000 OA
BRANCH  56  58
ATOM     58  C   UNL     1      -8.870  -8.750  18.407  0.00  0.00    +0.000 A 
ATOM     59  C   UNL     1      -8.766  -9.929  19.179  0.00  0.00    +0.000 A 
ATOM     60  C   UNL     1      -8.777 -11.194  18.594  0.00  0.00    +0.000 A 
ATOM     61  C   UNL     1      -8.915 -11.316  17.220  0.00  0.00    +0.000 A 
ATOM     62  C   UNL     1      -9.042 -10.174  16.431  0.00  0.00    +0.000 A 
ATOM     63  C   UNL     1      -9.025  -8.887  17.008  0.00  0.00    +0.000 A 
ATOM     64  H   UNL     1      -8.670 -12.079  19.218  0.00  0.00    +0.000 HD
ATOM     65  H   UNL     1      -8.910 -12.302  16.761  0.00  0.00    +0.000 HD
ATOM     66  H   UNL     1      -9.118 -10.307  15.355  0.00  0.00    +0.000 HD
BRANCH  63  67
ATOM     67  C   UNL     1      -9.120  -7.727  16.082  0.00  0.00    +0.000 C 
ATOM     68  O   UNL     1      -8.190  -6.975  15.863  0.00  0.00    +0.000 OA
BRANCH  67  69
ATOM     69  O   UNL     1     -10.334  -7.564  15.508  0.00  0.00    +0.000 OA
ATOM     70  H   UNL     1     -11.010  -8.242  15.694  0.00  0.00    +0.000 HD
ENDBRANCH  67  69
ENDBRANCH  63  67
BRANCH  59  71
ATOM     71  O   UNL     1      -8.696  -9.935  20.551  0.00  0.00    +0.000 OA
ATOM     72  H   UNL     1      -8.120  -9.186  20.837  0.00  0.00    +0.000 HD
ENDBRANCH  59  71
ENDBRANCH  56  58
ENDBRANCH  49  56
BRANCH  48  73
ATOM     73  O   UNL     1      -7.591  -4.927  19.061  0.00  0.00    +0.000 OA
ATOM     74  H   UNL     1      -7.348  -4.010  19.274  0.00  0.00    +0.000 HD
ENDBRANCH  48  73
ENDBRANCH  44  46
ENDBRANCH  43  44
ENDBRANCH   6  43
TORSDOF 16
ENDMDL
MODEL 8
REMARK VINA RESULT:    -9.171      1.927      5.220
REMARK INTER + INTRA:         -17.655
REMARK INTER:                 -14.463
REMARK INTRA:                  -3.191
REMARK UNBOUND:                -2.049
REMARK  Name = 
REMARK  16 active torsions:
REMARK  status: ('A' for Active; 'I' for Inactive)
REMARK    1  A    between atoms: C_1  and  C_2
REMARK    2  A    between atoms: C_2  and  C_3
REMARK    3  A    between atoms: C_7  and  C_8
REMARK    4  A    between atoms: C_9  and  O_10
REMARK    5  A    between atoms: O_10  and  C_11
REMARK    6  A    between atoms: C_11  and  C_13
REMARK    7  A    between atoms: C_15  and  O_16
REMARK    8  A    between atoms: C_17  and  C_18
REMARK    9  A    between atoms: C_18  and  C_20
REMARK   10  A    between atoms: C_21  and  O_22
REMARK   11  A    between atoms: C_26  and  C_27
REMARK   12  A    between atoms: C_27  and  O_29
REMARK   13  A    between atoms: C_30  and  O_31
REMARK   14  A    between atoms: C_33  and  N_34
REMARK   15  A    between atoms: C_35  and  C_37
REMARK   16  A    between atoms: C_40  and  O_41
REMARK                            x       y       z     vdW  Elec       q    Type
REMARK                         _______ _______ _______ _____ _____    ______ ____
ROOT
ATOM      1  C   UNL     1     -11.407   1.279  17.820  0.00  0.00    +0.000 C 
ATOM      2  C   UNL     1     -10.072   0.985  17.090  0.00  0.00    +0.000 C 
ATOM      3  C   UNL     1      -9.007   1.511  18.078  0.00  0.00    +0.000 C 
ATOM      4  C   UNL     1      -9.599   1.138  19.444  0.00  0.00    +0.000 C 
ATOM      5  C   UNL     1     -10.955   0.467  19.074  0.00  0.00    +0.000 C 
ATOM      6  C   UNL     1     -10.583  -0.948  18.494  0.00  0.00    +0.000 C 
ATOM      7  C   UNL     1      -9.939  -0.573  17.115  0.00  0.00    +0.000 C 
ATOM      8  H   UNL     1      -9.988   1.441  16.101  0.00  0.00    +0.000 HD
ATOM      9  H   UNL     1      -8.879   2.595  17.989  0.00  0.00    +0.000 HD
ATOM     10  H   UNL     1      -8.023   1.057  17.921  0.00  0.00    +0.000 HD
ATOM     11  H   UNL     1      -9.734   2.032  20.063  0.00  0.00    +0.000 HD
ATOM     12  H   UNL     1      -8.940   0.461  19.998  0.00  0.00    +0.000 HD
ATOM     13  H   UNL     1      -9.835  -1.462  19.110  0.00  0.00    +0.000 HD
ATOM     14  H   UNL     1      -8.877  -0.855  17.121  0.00  0.00    +0.000 HD
ENDROOT
BRANCH   1  15
ATOM     15  C   UNL     1     -12.657   0.780  17.073  0.00  0.00    +0.000 C 
ATOM     16  H   UNL     1     -12.819   1.362  16.159  0.00  0.00    +0.000 HD
ATOM     17  H   UNL     1     -13.552   0.885  17.697  0.00  0.00    +0.000 HD
ATOM     18  H   UNL     1     -12.612  -0.254  16.747  0.00  0.00    +0.000 HD
ENDBRANCH   1  15
BRANCH   5  19
ATOM     19  C   UNL     1     -11.924   0.488  20.246  0.00  0.00    +0.000 C 
ATOM     20  H   UNL     1     -12.387   1.475  20.359  0.00  0.00    +0.000 HD
ATOM     21  H   UNL     1     -11.410   0.264  21.185  0.00  0.00    +0.000 HD
ATOM     22  H   UNL     1     -12.741  -0.225  20.117  0.00  0.00    +0.000 HD
ENDBRANCH   5  19
BRANCH   1  23
ATOM     23  C   UNL     1     -11.678   2.776  18.081  0.00  0.00    +0.000 C 
ATOM     24  H   UNL     1     -11.081   3.396  17.403  0.00  0.00    +0.000 HD
ATOM     25  H   UNL     1     -11.454   3.110  19.095  0.00  0.00    +0.000 HD
ATOM     26  H   UNL     1     -12.734   3.011  17.897  0.00  0.00    +0.000 HD
ENDBRANCH   1  23
BRANCH   7  27
ATOM     27  N   UNL     1     -10.515  -1.219  15.945  0.00  0.00    +0.000 N 
ATOM     28  C   UNL     1      -9.779  -1.361  14.787  0.00  0.00    +0.000 C 
ATOM     29  O   UNL     1      -8.636  -0.921  14.661  0.00  0.00    +0.000 OA
ATOM     30  H   UNL     1     -11.327  -1.807  16.095  0.00  0.00    +0.000 HD
BRANCH  28  31
ATOM     31  C   UNL     1     -10.395  -2.123  13.670  0.00  0.00    +0.000 A 
ATOM     32  C   UNL     1     -10.198  -1.773  12.328  0.00  0.00    +0.000 A 
ATOM     33  C   UNL     1     -10.806  -2.517  11.313  0.00  0.00    +0.000 A 
ATOM     34  C   UNL     1     -11.605  -3.610  11.645  0.00  0.00    +0.000 A 
ATOM     35  C   UNL     1     -11.789  -3.979  12.975  0.00  0.00    +0.000 A 
ATOM     36  C   UNL     1     -11.178  -3.243  13.984  0.00  0.00    +0.000 A 
ATOM     37  H   UNL     1      -9.551  -0.942  12.059  0.00  0.00    +0.000 HD
ATOM     38  H   UNL     1     -10.648  -2.231  10.276  0.00  0.00    +0.000 HD
ATOM     39  H   UNL     1     -12.408  -4.839  13.217  0.00  0.00    +0.000 HD
ATOM     40  H   UNL     1     -11.311  -3.543  15.026  0.00  0.00    +0.000 HD
BRANCH  34  41
ATOM     41  O   UNL     1     -12.227  -4.357  10.692  0.00  0.00    +0.000 OA
ATOM     42  H   UNL     1     -11.601  -5.017  10.350  0.00  0.00    +0.000 HD
ENDBRANCH  34  41
ENDBRANCH  28  31
ENDBRANCH   7  27
BRANCH   6  43
ATOM     43  O   UNL     1     -11.747  -1.779  18.344  0.00  0.00    +0.000 OA
BRANCH  43  44
ATOM     44  C   UNL     1     -11.770  -2.920  19.076  0.00  0.00    +0.000 C 
ATOM     45  O   UNL     1     -12.510  -3.171  20.004  0.00  0.00    +0.000 OA
BRANCH  44  46
ATOM     46  C   UNL     1     -10.884  -3.935  18.429  0.00  0.00    +0.000 A 
ATOM     47  C   UNL     1      -9.635  -4.211  18.990  0.00  0.00    +0.000 A 
ATOM     48  C   UNL     1      -8.861  -5.256  18.473  0.00  0.00    +0.000 A 
ATOM     49  C   UNL     1      -9.330  -6.055  17.410  0.00  0.00    +0.000 A 
ATOM     50  C   UNL     1     -10.600  -5.790  16.885  0.00  0.00    +0.000 A 
ATOM     51  C   UNL     1     -11.341  -4.713  17.359  0.00  0.00    +0.000 A 
ATOM     52  H   UNL     1      -9.278  -3.614  19.827  0.00  0.00    +0.000 HD
ATOM     53  H   UNL     1     -12.302  -4.522  16.899  0.00  0.00    +0.000 HD
BRANCH  50  54
ATOM     54  O   UNL     1     -11.220  -6.515  15.902  0.00  0.00    +0.000 OA
ATOM     55  H   UNL     1     -12.166  -6.297  15.864  0.00  0.00    +0.000 HD
ENDBRANCH  50  54
BRANCH  49  56
ATOM     56  C   UNL     1      -8.499  -7.167  16.894  0.00  0.00    +0.000 C 
ATOM     57  O   UNL     1      -7.331  -6.927  16.570  0.00  0.00    +0.000 OA
BRANCH  56  58
ATOM     58  C   UNL     1      -8.902  -8.607  16.930  0.00  0.00    +0.000 A 
ATOM     59  C   UNL     1      -9.195  -9.199  15.681  0.00  0.00    +0.000 A 
ATOM     60  C   UNL     1      -9.554 -10.541  15.570  0.00  0.00    +0.000 A 
ATOM     61  C   UNL     1      -9.611 -11.335  16.704  0.00  0.00    +0.000 A 
ATOM     62  C   UNL     1      -9.307 -10.788  17.950  0.00  0.00    +0.000 A 
ATOM     63  C   UNL     1      -8.948  -9.430  18.079  0.00  0.00    +0.000 A 
ATOM     64  H   UNL     1      -9.796 -10.956  14.594  0.00  0.00    +0.000 HD
ATOM     65  H   UNL     1      -9.904 -12.379  16.621  0.00  0.00    +0.000 HD
ATOM     66  H   UNL     1      -9.391 -11.433  18.821  0.00  0.00    +0.000 HD
BRANCH  63  67
ATOM     67  C   UNL     1      -8.688  -8.924  19.453  0.00  0.00    +0.000 C 
ATOM     68  O   UNL     1      -7.714  -8.256  19.742  0.00  0.00    +0.000 OA
BRANCH  67  69
ATOM     69  O   UNL     1      -9.619  -9.280  20.369  0.00  0.00    +0.000 OA
ATOM     70  H   UNL     1      -9.791 -10.233  20.482  0.00  0.00    +0.000 HD
ENDBRANCH  67  69
ENDBRANCH  63  67
BRANCH  59  71
ATOM     71  O   UNL     1      -9.103  -8.531  14.484  0.00  0.00    +0.000 OA
ATOM     72  H   UNL     1      -8.191  -8.655  14.127  0.00  0.00    +0.000 HD
ENDBRANCH  59  71
ENDBRANCH  56  58
ENDBRANCH  49  56
BRANCH  48  73
ATOM     73  O   UNL     1      -7.623  -5.480  19.014  0.00  0.00    +0.000 OA
ATOM     74  H   UNL     1      -6.943  -4.993  18.519  0.00  0.00    +0.000 HD
ENDBRANCH  48  73
ENDBRANCH  44  46
ENDBRANCH  43  44
ENDBRANCH   6  43
TORSDOF 16
ENDMDL
MODEL 9
REMARK VINA RESULT:    -9.132      3.788      6.026
REMARK INTER + INTRA:         -17.588
REMARK INTER:                 -13.663
REMARK INTRA:                  -3.925
REMARK UNBOUND:                -2.049
REMARK  Name = 
REMARK  16 active torsions:
REMARK  status: ('A' for Active; 'I' for Inactive)
REMARK    1  A    between atoms: C_1  and  C_2
REMARK    2  A    between atoms: C_2  and  C_3
REMARK    3  A    between atoms: C_7  and  C_8
REMARK    4  A    between atoms: C_9  and  O_10
REMARK    5  A    between atoms: O_10  and  C_11
REMARK    6  A    between atoms: C_11  and  C_13
REMARK    7  A    between atoms: C_15  and  O_16
REMARK    8  A    between atoms: C_17  and  C_18
REMARK    9  A    between atoms: C_18  and  C_20
REMARK   10  A    between atoms: C_21  and  O_22
REMARK   11  A    between atoms: C_26  and  C_27
REMARK   12  A    between atoms: C_27  and  O_29
REMARK   13  A    between atoms: C_30  and  O_31
REMARK   14  A    between atoms: C_33  and  N_34
REMARK   15  A    between atoms: C_35  and  C_37
REMARK   16  A    between atoms: C_40  and  O_41
REMARK                            x       y       z     vdW  Elec       q    Type
REMARK                         _______ _______ _______ _____ _____    ______ ____
ROOT
ATOM      1  C   UNL     1     -11.687   4.190  19.883  0.00  0.00    +0.000 C 
ATOM      2  C   UNL     1     -12.819   3.678  20.810  0.00  0.00    +0.000 C 
ATOM      3  C   UNL     1     -14.102   4.161  20.099  0.00  0.00    +0.000 C 
ATOM      4  C   UNL     1     -13.754   3.981  18.614  0.00  0.00    +0.000 C 
ATOM      5  C   UNL     1     -12.293   3.444  18.653  0.00  0.00    +0.000 C 
ATOM      6  C   UNL     1     -12.403   1.949  19.135  0.00  0.00    +0.000 C 
ATOM      7  C   UNL     1     -12.800   2.124  20.641  0.00  0.00    +0.000 C 
ATOM      8  H   UNL     1     -12.753   4.033  21.841  0.00  0.00    +0.000 HD
ATOM      9  H   UNL     1     -14.316   5.210  20.326  0.00  0.00    +0.000 HD
ATOM     10  H   UNL     1     -14.987   3.583  20.383  0.00  0.00    +0.000 HD
ATOM     11  H   UNL     1     -13.831   4.935  18.082  0.00  0.00    +0.000 HD
ATOM     12  H   UNL     1     -14.439   3.283  18.121  0.00  0.00    +0.000 HD
ATOM     13  H   UNL     1     -13.203   1.407  18.615  0.00  0.00    +0.000 HD
ATOM     14  H   UNL     1     -13.810   1.721  20.801  0.00  0.00    +0.000 HD
ENDROOT
BRANCH   1  15
ATOM     15  C   UNL     1     -10.273   3.777  20.328  0.00  0.00    +0.000 C 
ATOM     16  H   UNL     1     -10.221   2.695  20.494  0.00  0.00    +0.000 HD
ATOM     17  H   UNL     1     -10.000   4.271  21.268  0.00  0.00    +0.000 HD
ATOM     18  H   UNL     1      -9.487   3.992  19.612  0.00  0.00    +0.000 HD
ENDBRANCH   1  15
BRANCH   5  19
ATOM     19  C   UNL     1     -11.578   3.682  17.332  0.00  0.00    +0.000 C 
ATOM     20  H   UNL     1     -11.958   4.578  16.831  0.00  0.00    +0.000 HD
ATOM     21  H   UNL     1     -11.728   2.842  16.647  0.00  0.00    +0.000 HD
ATOM     22  H   UNL     1     -10.505   3.833  17.467  0.00  0.00    +0.000 HD
ENDBRANCH   5  19
BRANCH   1  23
ATOM     23  C   UNL     1     -11.620   5.725  19.741  0.00  0.00    +0.000 C 
ATOM     24  H   UNL     1     -10.583   6.071  19.819  0.00  0.00    +0.000 HD
ATOM     25  H   UNL     1     -12.195   6.278  20.486  0.00  0.00    +0.000 HD
ATOM     26  H   UNL     1     -11.996   6.036  18.758  0.00  0.00    +0.000 HD
ENDBRANCH   1  23
BRANCH   7  27
ATOM     27  N   UNL     1     -11.946   1.450  21.608  0.00  0.00    +0.000 N 
ATOM     28  C   UNL     1     -12.272   0.195  22.079  0.00  0.00    +0.000 C 
ATOM     29  O   UNL     1     -13.301  -0.397  21.752  0.00  0.00    +0.000 OA
ATOM     30  H   UNL     1     -10.992   1.781  21.692  0.00  0.00    +0.000 HD
BRANCH  28  31
ATOM     31  C   UNL     1     -11.301  -0.475  22.982  0.00  0.00    +0.000 A 
ATOM     32  C   UNL     1     -10.238   0.215  23.579  0.00  0.00    +0.000 A 
ATOM     33  C   UNL     1      -9.345  -0.462  24.416  0.00  0.00    +0.000 A 
ATOM     34  C   UNL     1      -9.524  -1.824  24.654  0.00  0.00    +0.000 A 
ATOM     35  C   UNL     1     -10.590  -2.513  24.082  0.00  0.00    +0.000 A 
ATOM     36  C   UNL     1     -11.482  -1.838  23.256  0.00  0.00    +0.000 A 
ATOM     37  H   UNL     1     -10.111   1.283  23.425  0.00  0.00    +0.000 HD
ATOM     38  H   UNL     1      -8.522   0.085  24.868  0.00  0.00    +0.000 HD
ATOM     39  H   UNL     1     -10.720  -3.573  24.285  0.00  0.00    +0.000 HD
ATOM     40  H   UNL     1     -12.327  -2.377  22.821  0.00  0.00    +0.000 HD
BRANCH  34  41
ATOM     41  O   UNL     1      -8.674  -2.527  25.451  0.00  0.00    +0.000 OA
ATOM     42  H   UNL     1      -8.561  -3.419  25.084  0.00  0.00    +0.000 HD
ENDBRANCH  34  41
ENDBRANCH  28  31
ENDBRANCH   7  27
BRANCH   6  43
ATOM     43  O   UNL     1     -11.156   1.251  18.976  0.00  0.00    +0.000 OA
BRANCH  43  44
ATOM     44  C   UNL     1     -11.203   0.088  18.280  0.00  0.00    +0.000 C 
ATOM     45  O   UNL     1     -11.734  -0.090  17.204  0.00  0.00    +0.000 OA
BRANCH  44  46
ATOM     46  C   UNL     1     -10.304  -0.911  18.933  0.00  0.00    +0.000 A 
ATOM     47  C   UNL     1      -9.423  -0.490  19.931  0.00  0.00    +0.000 A 
ATOM     48  C   UNL     1      -8.680  -1.438  20.643  0.00  0.00    +0.000 A 
ATOM     49  C   UNL     1      -8.823  -2.818  20.388  0.00  0.00    +0.000 A 
ATOM     50  C   UNL     1      -9.738  -3.225  19.411  0.00  0.00    +0.000 A 
ATOM     51  C   UNL     1     -10.430  -2.278  18.663  0.00  0.00    +0.000 A 
ATOM     52  H   UNL     1      -9.326   0.572  20.151  0.00  0.00    +0.000 HD
ATOM     53  H   UNL     1     -11.100  -2.637  17.893  0.00  0.00    +0.000 HD
BRANCH  50  54
ATOM     54  O   UNL     1     -10.038  -4.524  19.097  0.00  0.00    +0.000 OA
ATOM     55  H   UNL     1     -10.283  -4.599  18.159  0.00  0.00    +0.000 HD
ENDBRANCH  50  54
BRANCH  49  56
ATOM     56  C   UNL     1      -8.039  -3.803  21.168  0.00  0.00    +0.000 C 
ATOM     57  O   UNL     1      -8.526  -4.248  22.212  0.00  0.00    +0.000 OA
BRANCH  56  58
ATOM     58  C   UNL     1      -6.787  -4.460  20.679  0.00  0.00    +0.000 A 
ATOM     59  C   UNL     1      -5.574  -3.869  21.099  0.00  0.00    +0.000 A 
ATOM     60  C   UNL     1      -4.336  -4.398  20.740  0.00  0.00    +0.000 A 
ATOM     61  C   UNL     1      -4.276  -5.547  19.967  0.00  0.00    +0.000 A 
ATOM     62  C   UNL     1      -5.454  -6.168  19.554  0.00  0.00    +0.000 A 
ATOM     63  C   UNL     1      -6.715  -5.640  19.904  0.00  0.00    +0.000 A 
ATOM     64  H   UNL     1      -3.423  -3.902  21.061  0.00  0.00    +0.000 HD
ATOM     65  H   UNL     1      -3.310  -5.953  19.674  0.00  0.00    +0.000 HD
ATOM     66  H   UNL     1      -5.369  -7.049  18.924  0.00  0.00    +0.000 HD
BRANCH  63  67
ATOM     67  C   UNL     1      -7.915  -6.343  19.378  0.00  0.00    +0.000 C 
ATOM     68  O   UNL     1      -8.140  -6.476  18.190  0.00  0.00    +0.000 OA
BRANCH  67  69
ATOM     69  O   UNL     1      -8.751  -6.818  20.331  0.00  0.00    +0.000 OA
ATOM     70  H   UNL     1      -9.359  -6.179  20.748  0.00  0.00    +0.000 HD
ENDBRANCH  67  69
ENDBRANCH  63  67
BRANCH  59  71
ATOM     71  O   UNL     1      -5.509  -2.773  21.924  0.00  0.00    +0.000 OA
ATOM     72  H   UNL     1      -5.779  -1.977  21.407  0.00  0.00    +0.000 HD
ENDBRANCH  59  71
ENDBRANCH  56  58
ENDBRANCH  49  56
BRANCH  48  73
ATOM     73  O   UNL     1      -7.793  -0.997  21.589  0.00  0.00    +0.000 OA
ATOM     74  H   UNL     1      -7.250  -1.734  21.914  0.00  0.00    +0.000 HD
ENDBRANCH  48  73
ENDBRANCH  44  46
ENDBRANCH  43  44
ENDBRANCH   6  43
TORSDOF 16
ENDMDL
