MODEL 1
REMARK VINA RESULT:    -7.301      0.000      0.000
REMARK INTER + INTRA:          -8.699
REMARK INTER:                  -8.795
REMARK INTRA:                   0.096
REMARK UNBOUND:                 0.096
REMARK  Name = 
REMARK  5 active torsions:
REMARK  status: ('A' for Active; 'I' for Inactive)
REMARK    1  A    between atoms: C_1  and  N_2
REMARK    2  A    between atoms: N_2  and  C_3
REMARK    3  A    between atoms: C_7  and  C_8
REMARK    4  A    between atoms: C_9  and  O_10
REMARK    5  A    between atoms: O_10  and  C_11
REMARK                            x       y       z     vdW  Elec       q    Type
REMARK                         _______ _______ _______ _____ _____    ______ ____
ROOT
ATOM      1  C   UNL     1     -10.113  -6.957  16.737  0.00  0.00    +0.000 C 
ATOM      2  C   UNL     1     -11.550  -6.326  16.838  0.00  0.00    +0.000 C 
ATOM      3  C   UNL     1     -11.517  -5.090  17.791  0.00  0.00    +0.000 C 
ATOM      4  O   UNL     1     -10.588  -5.623  18.817  0.00  0.00    +0.000 OA
ATOM      5  C   UNL     1      -9.224  -5.340  18.400  0.00  0.00    +0.000 C 
ATOM      6  C   UNL     1      -9.148  -5.726  16.769  0.00  0.00    +0.000 C 
ATOM      7  N   UNL     1      -9.015  -4.085  19.107  0.00  0.00    +0.000 N 
ATOM      8  C   UNL     1      -8.232  -3.800  20.290  0.00  0.00    +0.000 A 
ATOM      9  C   UNL     1      -7.535  -4.582  21.220  0.00  0.00    +0.000 A 
ATOM     10  C   UNL     1      -6.786  -3.969  22.239  0.00  0.00    +0.000 A 
ATOM     11  C   UNL     1      -6.718  -2.588  22.357  0.00  0.00    +0.000 A 
ATOM     12  C   UNL     1      -7.575  -1.805  21.610  0.00  0.00    +0.000 A 
ATOM     13  C   UNL     1      -8.424  -2.444  20.719  0.00  0.00    +0.000 A 
ATOM     14  C   UNL     1      -9.674  -2.102  20.229  0.00  0.00    +0.000 A 
ATOM     15  C   UNL     1     -10.623  -1.524  21.058  0.00  0.00    +0.000 A 
ATOM     16  C   UNL     1     -11.525  -0.783  20.256  0.00  0.00    +0.000 A 
ATOM     17  C   UNL     1     -11.885  -1.685  19.112  0.00  0.00    +0.000 A 
ATOM     18  C   UNL     1     -11.363  -1.212  17.821  0.00  0.00    +0.000 A 
ATOM     19  C   UNL     1     -10.760   0.057  17.568  0.00  0.00    +0.000 A 
ATOM     20  C   UNL     1      -9.610   0.101  16.801  0.00  0.00    +0.000 A 
ATOM     21  C   UNL     1      -9.306  -0.962  15.981  0.00  0.00    +0.000 A 
ATOM     22  C   UNL     1     -10.112  -2.117  15.915  0.00  0.00    +0.000 A 
ATOM     23  C   UNL     1     -11.025  -2.406  16.958  0.00  0.00    +0.000 A 
ATOM     24  N   UNL     1     -11.393  -3.615  17.658  0.00  0.00    +0.000 N 
ATOM     25  C   UNL     1     -11.304  -2.996  18.862  0.00  0.00    +0.000 A 
ATOM     26  C   UNL     1      -9.965  -3.130  19.375  0.00  0.00    +0.000 A 
ATOM     27  C   UNL     1     -12.332  -0.129  21.269  0.00  0.00    +0.000 C 
ATOM     28  O   UNL     1     -12.642   1.045  21.430  0.00  0.00    +0.000 OA
ATOM     29  N   UNL     1     -12.321  -1.041  22.353  0.00  0.00    +0.000 N 
ATOM     30  C   UNL     1     -11.484  -2.180  22.073  0.00  0.00    +0.000 C 
ATOM     31  H   UNL     1      -9.969  -7.542  17.651  0.00  0.00    +0.000 HD
ATOM     32  H   UNL     1     -12.069  -6.147  15.899  0.00  0.00    +0.000 HD
ATOM     33  H   UNL     1     -12.135  -7.104  17.362  0.00  0.00    +0.000 HD
ATOM     34  H   UNL     1     -12.506  -5.144  18.274  0.00  0.00    +0.000 HD
ATOM     35  H   UNL     1      -8.112  -5.937  16.488  0.00  0.00    +0.000 HD
ATOM     36  H   UNL     1      -7.622  -5.658  21.243  0.00  0.00    +0.000 HD
ATOM     37  H   UNL     1      -6.277  -4.586  22.968  0.00  0.00    +0.000 HD
ATOM     38  H   UNL     1      -6.087  -2.121  23.109  0.00  0.00    +0.000 HD
ATOM     39  H   UNL     1      -7.651  -0.731  21.778  0.00  0.00    +0.000 HD
ATOM     40  H   UNL     1     -10.963   0.896  18.234  0.00  0.00    +0.000 HD
ATOM     41  H   UNL     1      -8.929   0.945  16.895  0.00  0.00    +0.000 HD
ATOM     42  H   UNL     1      -8.382  -0.928  15.403  0.00  0.00    +0.000 HD
ATOM     43  H   UNL     1      -9.773  -2.840  15.202  0.00  0.00    +0.000 HD
ATOM     44  H   UNL     1     -12.220  -0.591  23.254  0.00  0.00    +0.000 HD
ATOM     45  H   UNL     1     -12.146  -2.917  21.582  0.00  0.00    +0.000 HD
ATOM     46  H   UNL     1     -11.004  -2.645  22.922  0.00  0.00    +0.000 HD
ENDROOT
BRANCH   5  47
ATOM     47  C   UNL     1      -8.211  -6.395  18.952  0.00  0.00    +0.000 C 
ATOM     48  H   UNL     1      -8.183  -7.325  18.374  0.00  0.00    +0.000 HD
ATOM     49  H   UNL     1      -8.431  -6.685  19.980  0.00  0.00    +0.000 HD
ATOM     50  H   UNL     1      -7.174  -6.060  18.825  0.00  0.00    +0.000 HD
ENDBRANCH   5  47
BRANCH   1  51
ATOM     51  N   UNL     1      -9.971  -8.016  15.727  0.00  0.00    +0.000 NA
ATOM     52  H   UNL     1      -9.027  -8.207  15.449  0.00  0.00    +0.000 HD
BRANCH  51  53
ATOM     53  C   UNL     1     -10.698  -9.241  16.043  0.00  0.00    +0.000 C 
ATOM     54  H   UNL     1     -10.742  -9.403  17.123  0.00  0.00    +0.000 HD
ATOM     55  H   UNL     1     -10.189 -10.100  15.596  0.00  0.00    +0.000 HD
ATOM     56  H   UNL     1     -11.719  -9.237  15.645  0.00  0.00    +0.000 HD
ENDBRANCH  51  53
ENDBRANCH   1  51
BRANCH   6  57
ATOM     57  O   UNL     1      -9.640  -4.793  15.814  0.00  0.00    +0.000 OA
BRANCH  57  58
ATOM     58  C   UNL     1      -9.371  -5.021  14.426  0.00  0.00    +0.000 C 
ATOM     59  H   UNL     1      -9.825  -5.939  14.052  0.00  0.00    +0.000 HD
ATOM     60  H   UNL     1      -8.302  -5.000  14.221  0.00  0.00    +0.000 HD
ATOM     61  H   UNL     1      -9.860  -4.238  13.834  0.00  0.00    +0.000 HD
ENDBRANCH  57  58
ENDBRANCH   6  57
TORSDOF 5
ENDMDL
MODEL 2
REMARK VINA RESULT:    -6.988      4.276      6.795
REMARK INTER + INTRA:          -8.323
REMARK INTER:                  -8.236
REMARK INTRA:                  -0.086
REMARK UNBOUND:                 0.096
REMARK  Name = 
REMARK  5 active torsions:
REMARK  status: ('A' for Active; 'I' for Inactive)
REMARK    1  A    between atoms: C_1  and  N_2
REMARK    2  A    between atoms: N_2  and  C_3
REMARK    3  A    between atoms: C_7  and  C_8
REMARK    4  A    between atoms: C_9  and  O_10
REMARK    5  A    between atoms: O_10  and  C_11
REMARK                            x       y       z     vdW  Elec       q    Type
REMARK                         _______ _______ _______ _____ _____    ______ ____
ROOT
ATOM      1  C   UNL     1      -9.805  -1.908  21.897  0.00  0.00    +0.000 C 
ATOM      2  C   UNL     1     -11.359  -1.739  21.720  0.00  0.00    +0.000 C 
ATOM      3  C   UNL     1     -11.784  -0.295  22.140  0.00  0.00    +0.000 C 
ATOM      4  O   UNL     1     -10.889  -0.132  23.311  0.00  0.00    +0.000 OA
ATOM      5  C   UNL     1      -9.607   0.378  22.850  0.00  0.00    +0.000 C 
ATOM      6  C   UNL     1      -9.217  -0.517  21.486  0.00  0.00    +0.000 C 
ATOM      7  N   UNL     1      -9.837   1.803  23.039  0.00  0.00    +0.000 N 
ATOM      8  C   UNL     1      -9.321   2.706  24.045  0.00  0.00    +0.000 A 
ATOM      9  C   UNL     1      -8.570   2.546  25.216  0.00  0.00    +0.000 A 
ATOM     10  C   UNL     1      -8.152   3.672  25.947  0.00  0.00    +0.000 A 
ATOM     11  C   UNL     1      -8.471   4.960  25.539  0.00  0.00    +0.000 A 
ATOM     12  C   UNL     1      -9.400   5.136  24.533  0.00  0.00    +0.000 A 
ATOM     13  C   UNL     1      -9.923   4.003  23.929  0.00  0.00    +0.000 A 
ATOM     14  C   UNL     1     -11.142   3.763  23.318  0.00  0.00    +0.000 A 
ATOM     15  C   UNL     1     -12.312   4.286  23.847  0.00  0.00    +0.000 A 
ATOM     16  C   UNL     1     -13.266   4.393  22.805  0.00  0.00    +0.000 A 
ATOM     17  C   UNL     1     -13.217   3.082  22.076  0.00  0.00    +0.000 A 
ATOM     18  C   UNL     1     -12.675   3.202  20.714  0.00  0.00    +0.000 A 
ATOM     19  C   UNL     1     -12.406   4.418  20.017  0.00  0.00    +0.000 A 
ATOM     20  C   UNL     1     -11.218   4.528  19.315  0.00  0.00    +0.000 A 
ATOM     21  C   UNL     1     -10.536   3.386  18.962  0.00  0.00    +0.000 A 
ATOM     22  C   UNL     1     -10.989   2.098  19.317  0.00  0.00    +0.000 A 
ATOM     23  C   UNL     1     -11.921   1.939  20.370  0.00  0.00    +0.000 A 
ATOM     24  N   UNL     1     -12.041   1.003  21.465  0.00  0.00    +0.000 N 
ATOM     25  C   UNL     1     -12.280   2.003  22.350  0.00  0.00    +0.000 A 
ATOM     26  C   UNL     1     -11.034   2.463  22.907  0.00  0.00    +0.000 A 
ATOM     27  C   UNL     1     -14.344   5.091  23.479  0.00  0.00    +0.000 C 
ATOM     28  O   UNL     1     -14.975   6.098  23.180  0.00  0.00    +0.000 OA
ATOM     29  N   UNL     1     -14.234   4.668  24.826  0.00  0.00    +0.000 N 
ATOM     30  C   UNL     1     -13.093   3.806  25.014  0.00  0.00    +0.000 C 
ATOM     31  H   UNL     1      -9.632  -2.061  22.967  0.00  0.00    +0.000 HD
ATOM     32  H   UNL     1     -11.779  -2.065  20.771  0.00  0.00    +0.000 HD
ATOM     33  H   UNL     1     -11.779  -2.418  22.485  0.00  0.00    +0.000 HD
ATOM     34  H   UNL     1     -12.777  -0.467  22.585  0.00  0.00    +0.000 HD
ATOM     35  H   UNL     1      -8.135  -0.496  21.329  0.00  0.00    +0.000 HD
ATOM     36  H   UNL     1      -8.368   1.574  25.640  0.00  0.00    +0.000 HD
ATOM     37  H   UNL     1      -7.598   3.533  26.866  0.00  0.00    +0.000 HD
ATOM     38  H   UNL     1      -8.093   5.827  26.075  0.00  0.00    +0.000 HD
ATOM     39  H   UNL     1      -9.782   6.127  24.283  0.00  0.00    +0.000 HD
ATOM     40  H   UNL     1     -12.911   5.337  20.314  0.00  0.00    +0.000 HD
ATOM     41  H   UNL     1     -10.806   5.513  19.101  0.00  0.00    +0.000 HD
ATOM     42  H   UNL     1      -9.586   3.487  18.435  0.00  0.00    +0.000 HD
ATOM     43  H   UNL     1     -10.378   1.306  18.935  0.00  0.00    +0.000 HD
ATOM     44  H   UNL     1     -14.376   5.414  25.494  0.00  0.00    +0.000 HD
ATOM     45  H   UNL     1     -13.463   2.783  24.821  0.00  0.00    +0.000 HD
ATOM     46  H   UNL     1     -12.622   3.836  25.987  0.00  0.00    +0.000 HD
ENDROOT
BRANCH   5  47
ATOM     47  C   UNL     1      -8.431  -0.063  23.781  0.00  0.00    +0.000 C 
ATOM     48  H   UNL     1      -8.058  -1.071  23.573  0.00  0.00    +0.000 HD
ATOM     49  H   UNL     1      -8.710  -0.056  24.836  0.00  0.00    +0.000 HD
ATOM     50  H   UNL     1      -7.524   0.522  23.585  0.00  0.00    +0.000 HD
ENDBRANCH   5  47
BRANCH   1  51
ATOM     51  N   UNL     1      -9.254  -3.161  21.363  0.00  0.00    +0.000 NA
ATOM     52  H   UNL     1      -9.594  -3.416  20.454  0.00  0.00    +0.000 HD
BRANCH  51  53
ATOM     53  C   UNL     1      -7.800  -3.252  21.439  0.00  0.00    +0.000 C 
ATOM     54  H   UNL     1      -7.429  -2.820  22.371  0.00  0.00    +0.000 HD
ATOM     55  H   UNL     1      -7.349  -2.698  20.611  0.00  0.00    +0.000 HD
ATOM     56  H   UNL     1      -7.441  -4.285  21.360  0.00  0.00    +0.000 HD
ENDBRANCH  51  53
ENDBRANCH   1  51
BRANCH   6  57
ATOM     57  O   UNL     1      -9.810  -0.172  20.240  0.00  0.00    +0.000 OA
BRANCH  57  58
ATOM     58  C   UNL     1      -9.190  -0.627  19.032  0.00  0.00    +0.000 C 
ATOM     59  H   UNL     1      -9.139   0.145  18.264  0.00  0.00    +0.000 HD
ATOM     60  H   UNL     1      -9.673  -1.527  18.653  0.00  0.00    +0.000 HD
ATOM     61  H   UNL     1      -8.136  -0.852  19.234  0.00  0.00    +0.000 HD
ENDBRANCH  57  58
ENDBRANCH   6  57
TORSDOF 5
ENDMDL
MODEL 3
REMARK VINA RESULT:    -6.934      1.944      2.957
REMARK INTER + INTRA:          -8.257
REMARK INTER:                  -8.190
REMARK INTRA:                  -0.067
REMARK UNBOUND:                 0.096
REMARK  Name = 
REMARK  5 active torsions:
REMARK  status: ('A' for Active; 'I' for Inactive)
REMARK    1  A    between atoms: C_1  and  N_2
REMARK    2  A    between atoms: N_2  and  C_3
REMARK    3  A    between atoms: C_7  and  C_8
REMARK    4  A    between atoms: C_9  and  O_10
REMARK    5  A    between atoms: O_10  and  C_11
REMARK                            x       y       z     vdW  Elec       q    Type
REMARK                         _______ _______ _______ _____ _____    ______ ____
ROOT
ATOM      1  C   UNL     1     -11.227  -4.051  13.571  0.00  0.00    +0.000 C 
ATOM      2  C   UNL     1     -12.283  -2.967  13.999  0.00  0.00    +0.000 C 
ATOM      3  C   UNL     1     -12.020  -2.528  15.475  0.00  0.00    +0.000 C 
ATOM      4  O   UNL     1     -11.664  -3.852  16.041  0.00  0.00    +0.000 OA
ATOM      5  C   UNL     1     -10.238  -4.070  15.850  0.00  0.00    +0.000 C 
ATOM      6  C   UNL     1      -9.904  -3.600  14.275  0.00  0.00    +0.000 C 
ATOM      7  N   UNL     1      -9.750  -3.579  17.130  0.00  0.00    +0.000 N 
ATOM      8  C   UNL     1      -9.246  -4.304  18.277  0.00  0.00    +0.000 A 
ATOM      9  C   UNL     1      -9.168  -5.658  18.627  0.00  0.00    +0.000 A 
ATOM     10  C   UNL     1      -8.527  -6.045  19.817  0.00  0.00    +0.000 A 
ATOM     11  C   UNL     1      -7.963  -5.109  20.673  0.00  0.00    +0.000 A 
ATOM     12  C   UNL     1      -8.231  -3.769  20.476  0.00  0.00    +0.000 A 
ATOM     13  C   UNL     1      -9.003  -3.418  19.380  0.00  0.00    +0.000 A 
ATOM     14  C   UNL     1      -9.854  -2.348  19.155  0.00  0.00    +0.000 A 
ATOM     15  C   UNL     1     -10.684  -1.883  20.163  0.00  0.00    +0.000 A 
ATOM     16  C   UNL     1     -10.994  -0.527  19.897  0.00  0.00    +0.000 A 
ATOM     17  C   UNL     1     -11.369  -0.474  18.446  0.00  0.00    +0.000 A 
ATOM     18  C   UNL     1     -10.394   0.262  17.626  0.00  0.00    +0.000 A 
ATOM     19  C   UNL     1      -9.306   1.048  18.112  0.00  0.00    +0.000 A 
ATOM     20  C   UNL     1      -8.073   0.921  17.496  0.00  0.00    +0.000 A 
ATOM     21  C   UNL     1      -8.005   0.390  16.228  0.00  0.00    +0.000 A 
ATOM     22  C   UNL     1      -9.149  -0.062  15.539  0.00  0.00    +0.000 A 
ATOM     23  C   UNL     1     -10.336  -0.360  16.250  0.00  0.00    +0.000 A 
ATOM     24  N   UNL     1     -11.307  -1.427  16.172  0.00  0.00    +0.000 N 
ATOM     25  C   UNL     1     -11.296  -1.594  17.518  0.00  0.00    +0.000 A 
ATOM     26  C   UNL     1     -10.292  -2.562  17.876  0.00  0.00    +0.000 A 
ATOM     27  C   UNL     1     -11.715  -0.160  21.102  0.00  0.00    +0.000 C 
ATOM     28  O   UNL     1     -11.577   0.776  21.880  0.00  0.00    +0.000 OA
ATOM     29  N   UNL     1     -12.334  -1.368  21.508  0.00  0.00    +0.000 N 
ATOM     30  C   UNL     1     -11.959  -2.464  20.650  0.00  0.00    +0.000 C 
ATOM     31  H   UNL     1     -11.557  -4.996  14.015  0.00  0.00    +0.000 HD
ATOM     32  H   UNL     1     -12.435  -2.139  13.311  0.00  0.00    +0.000 HD
ATOM     33  H   UNL     1     -13.236  -3.529  14.010  0.00  0.00    +0.000 HD
ATOM     34  H   UNL     1     -13.041  -2.345  15.847  0.00  0.00    +0.000 HD
ATOM     35  H   UNL     1      -8.996  -4.099  13.926  0.00  0.00    +0.000 HD
ATOM     36  H   UNL     1      -9.666  -6.427  18.057  0.00  0.00    +0.000 HD
ATOM     37  H   UNL     1      -8.499  -7.091  20.089  0.00  0.00    +0.000 HD
ATOM     38  H   UNL     1      -7.415  -5.420  21.559  0.00  0.00    +0.000 HD
ATOM     39  H   UNL     1      -7.926  -3.018  21.205  0.00  0.00    +0.000 HD
ATOM     40  H   UNL     1      -9.332   1.441  19.128  0.00  0.00    +0.000 HD
ATOM     41  H   UNL     1      -7.168   1.187  18.040  0.00  0.00    +0.000 HD
ATOM     42  H   UNL     1      -7.025   0.269  15.765  0.00  0.00    +0.000 HD
ATOM     43  H   UNL     1      -8.945  -0.408  14.546  0.00  0.00    +0.000 HD
ATOM     44  H   UNL     1     -12.300  -1.518  22.508  0.00  0.00    +0.000 HD
ATOM     45  H   UNL     1     -12.705  -2.467  19.835  0.00  0.00    +0.000 HD
ATOM     46  H   UNL     1     -11.930  -3.444  21.107  0.00  0.00    +0.000 HD
ENDROOT
BRANCH   5  47
ATOM     47  C   UNL     1      -9.888  -5.589  15.735  0.00  0.00    +0.000 C 
ATOM     48  H   UNL     1      -9.730  -6.080  16.701  0.00  0.00    +0.000 HD
ATOM     49  H   UNL     1      -8.980  -5.765  15.155  0.00  0.00    +0.000 HD
ATOM     50  H   UNL     1     -10.740  -6.170  15.362  0.00  0.00    +0.000 HD
ENDBRANCH   5  47
BRANCH   1  51
ATOM     51  N   UNL     1     -11.252  -4.412  12.147  0.00  0.00    +0.000 NA
ATOM     52  H   UNL     1     -11.511  -5.363  11.958  0.00  0.00    +0.000 HD
BRANCH  51  53
ATOM     53  C   UNL     1     -11.994  -3.476  11.309  0.00  0.00    +0.000 C 
ATOM     54  H   UNL     1     -13.026  -3.805  11.173  0.00  0.00    +0.000 HD
ATOM     55  H   UNL     1     -11.529  -3.414  10.320  0.00  0.00    +0.000 HD
ATOM     56  H   UNL     1     -11.998  -2.459  11.719  0.00  0.00    +0.000 HD
ENDBRANCH  51  53
ENDBRANCH   1  51
BRANCH   6  57
ATOM     57  O   UNL     1      -9.737  -2.216  13.988  0.00  0.00    +0.000 OA
BRANCH  57  58
ATOM     58  C   UNL     1      -8.942  -1.839  12.858  0.00  0.00    +0.000 C 
ATOM     59  H   UNL     1      -8.007  -2.397  12.792  0.00  0.00    +0.000 HD
ATOM     60  H   UNL     1      -8.760  -0.765  12.842  0.00  0.00    +0.000 HD
ATOM     61  H   UNL     1      -9.470  -2.121  11.939  0.00  0.00    +0.000 HD
ENDBRANCH  57  58
ENDBRANCH   6  57
TORSDOF 5
ENDMDL
MODEL 4
REMARK VINA RESULT:    -6.819      4.217      6.585
REMARK INTER + INTRA:          -8.119
REMARK INTER:                  -8.113
REMARK INTRA:                  -0.006
REMARK UNBOUND:                 0.096
REMARK  Name = 
REMARK  5 active torsions:
REMARK  status: ('A' for Active; 'I' for Inactive)
REMARK    1  A    between atoms: C_1  and  N_2
REMARK    2  A    between atoms: N_2  and  C_3
REMARK    3  A    between atoms: C_7  and  C_8
REMARK    4  A    between atoms: C_9  and  O_10
REMARK    5  A    between atoms: O_10  and  C_11
REMARK                            x       y       z     vdW  Elec       q    Type
REMARK                         _______ _______ _______ _____ _____    ______ ____
ROOT
ATOM      1  C   UNL     1      -9.562  -2.554  23.777  0.00  0.00    +0.000 C 
ATOM      2  C   UNL     1     -11.027  -2.487  23.209  0.00  0.00    +0.000 C 
ATOM      3  C   UNL     1     -11.408  -1.002  22.908  0.00  0.00    +0.000 C 
ATOM      4  O   UNL     1     -10.762  -0.364  24.081  0.00  0.00    +0.000 OA
ATOM      5  C   UNL     1      -9.375  -0.078  23.748  0.00  0.00    +0.000 C 
ATOM      6  C   UNL     1      -8.789  -1.450  22.982  0.00  0.00    +0.000 C 
ATOM      7  N   UNL     1      -9.520   1.297  23.293  0.00  0.00    +0.000 N 
ATOM      8  C   UNL     1      -9.148   2.538  23.938  0.00  0.00    +0.000 A 
ATOM      9  C   UNL     1      -8.669   2.880  25.208  0.00  0.00    +0.000 A 
ATOM     10  C   UNL     1      -8.318   4.210  25.498  0.00  0.00    +0.000 A 
ATOM     11  C   UNL     1      -8.440   5.214  24.547  0.00  0.00    +0.000 A 
ATOM     12  C   UNL     1      -9.125   4.954  23.377  0.00  0.00    +0.000 A 
ATOM     13  C   UNL     1      -9.605   3.668  23.180  0.00  0.00    +0.000 A 
ATOM     14  C   UNL     1     -10.689   3.187  22.465  0.00  0.00    +0.000 A 
ATOM     15  C   UNL     1     -11.895   3.871  22.467  0.00  0.00    +0.000 A 
ATOM     16  C   UNL     1     -12.603   3.533  21.288  0.00  0.00    +0.000 A 
ATOM     17  C   UNL     1     -12.515   2.039  21.177  0.00  0.00    +0.000 A 
ATOM     18  C   UNL     1     -11.697   1.594  20.038  0.00  0.00    +0.000 A 
ATOM     19  C   UNL     1     -11.191   2.419  18.989  0.00  0.00    +0.000 A 
ATOM     20  C   UNL     1      -9.880   2.242  18.584  0.00  0.00    +0.000 A 
ATOM     21  C   UNL     1      -9.237   1.062  18.879  0.00  0.00    +0.000 A 
ATOM     22  C   UNL     1      -9.857   0.029  19.612  0.00  0.00    +0.000 A 
ATOM     23  C   UNL     1     -10.995   0.308  20.407  0.00  0.00    +0.000 A 
ATOM     24  N   UNL     1     -11.414  -0.098  21.729  0.00  0.00    +0.000 N 
ATOM     25  C   UNL     1     -11.745   1.176  22.062  0.00  0.00    +0.000 A 
ATOM     26  C   UNL     1     -10.606   1.834  22.646  0.00  0.00    +0.000 A 
ATOM     27  C   UNL     1     -13.735   4.436  21.369  0.00  0.00    +0.000 C 
ATOM     28  O   UNL     1     -14.206   5.226  20.559  0.00  0.00    +0.000 OA
ATOM     29  N   UNL     1     -13.938   4.604  22.760  0.00  0.00    +0.000 N 
ATOM     30  C   UNL     1     -12.935   3.905  23.525  0.00  0.00    +0.000 C 
ATOM     31  H   UNL     1      -9.624  -2.254  24.827  0.00  0.00    +0.000 HD
ATOM     32  H   UNL     1     -11.269  -3.177  22.404  0.00  0.00    +0.000 HD
ATOM     33  H   UNL     1     -11.650  -2.796  24.069  0.00  0.00    +0.000 HD
ATOM     34  H   UNL     1     -12.482  -0.985  23.153  0.00  0.00    +0.000 HD
ATOM     35  H   UNL     1      -7.700  -1.486  23.073  0.00  0.00    +0.000 HD
ATOM     36  H   UNL     1      -8.639   2.169  26.021  0.00  0.00    +0.000 HD
ATOM     37  H   UNL     1      -7.977   4.465  26.492  0.00  0.00    +0.000 HD
ATOM     38  H   UNL     1      -8.109   6.228  24.758  0.00  0.00    +0.000 HD
ATOM     39  H   UNL     1      -9.365   5.751  22.673  0.00  0.00    +0.000 HD
ATOM     40  H   UNL     1     -11.669   3.374  18.772  0.00  0.00    +0.000 HD
ATOM     41  H   UNL     1      -9.353   3.056  18.088  0.00  0.00    +0.000 HD
ATOM     42  H   UNL     1      -8.195   0.946  18.580  0.00  0.00    +0.000 HD
ATOM     43  H   UNL     1      -9.249  -0.844  19.726  0.00  0.00    +0.000 HD
ATOM     44  H   UNL     1     -14.152   5.557  23.022  0.00  0.00    +0.000 HD
ATOM     45  H   UNL     1     -13.341   2.889  23.683  0.00  0.00    +0.000 HD
ATOM     46  H   UNL     1     -12.673   4.336  24.481  0.00  0.00    +0.000 HD
ENDROOT
BRANCH   5  47
ATOM     47  C   UNL     1      -8.455  -0.087  25.012  0.00  0.00    +0.000 C 
ATOM     48  H   UNL     1      -8.163  -1.091  25.338  0.00  0.00    +0.000 HD
ATOM     49  H   UNL     1      -8.928   0.385  25.875  0.00  0.00    +0.000 HD
ATOM     50  H   UNL     1      -7.468   0.338  24.793  0.00  0.00    +0.000 HD
ENDBRANCH   5  47
BRANCH   1  51
ATOM     51  N   UNL     1      -9.018  -3.912  23.927  0.00  0.00    +0.000 NA
ATOM     52  H   UNL     1      -8.870  -4.403  23.065  0.00  0.00    +0.000 HD
BRANCH  51  53
ATOM     53  C   UNL     1      -7.852  -3.993  24.800  0.00  0.00    +0.000 C 
ATOM     54  H   UNL     1      -7.083  -3.280  24.493  0.00  0.00    +0.000 HD
ATOM     55  H   UNL     1      -7.419  -4.995  24.749  0.00  0.00    +0.000 HD
ATOM     56  H   UNL     1      -8.103  -3.811  25.851  0.00  0.00    +0.000 HD
ENDBRANCH  51  53
ENDBRANCH   1  51
BRANCH   6  57
ATOM     57  O   UNL     1      -9.084  -1.652  21.605  0.00  0.00    +0.000 OA
BRANCH  57  58
ATOM     58  C   UNL     1      -8.356  -2.652  20.884  0.00  0.00    +0.000 C 
ATOM     59  H   UNL     1      -7.607  -3.155  21.497  0.00  0.00    +0.000 HD
ATOM     60  H   UNL     1      -7.911  -2.243  19.978  0.00  0.00    +0.000 HD
ATOM     61  H   UNL     1      -9.041  -3.462  20.606  0.00  0.00    +0.000 HD
ENDBRANCH  57  58
ENDBRANCH   6  57
TORSDOF 5
ENDMDL
MODEL 5
REMARK VINA RESULT:    -6.546      2.535      4.444
REMARK INTER + INTRA:          -7.790
REMARK INTER:                  -7.832
REMARK INTRA:                   0.042
REMARK UNBOUND:                 0.096
REMARK  Name = 
REMARK  5 active torsions:
REMARK  status: ('A' for Active; 'I' for Inactive)
REMARK    1  A    between atoms: C_1  and  N_2
REMARK    2  A    between atoms: N_2  and  C_3
REMARK    3  A    between atoms: C_7  and  C_8
REMARK    4  A    between atoms: C_9  and  O_10
REMARK    5  A    between atoms: O_10  and  C_11
REMARK                            x       y       z     vdW  Elec       q    Type
REMARK                         _______ _______ _______ _____ _____    ______ ____
ROOT
ATOM      1  C   UNL     1     -10.237  -6.368  18.453  0.00  0.00    +0.000 C 
ATOM      2  C   UNL     1     -11.519  -6.410  17.544  0.00  0.00    +0.000 C 
ATOM      3  C   UNL     1     -11.782  -4.995  16.937  0.00  0.00    +0.000 C 
ATOM      4  O   UNL     1     -11.425  -4.176  18.120  0.00  0.00    +0.000 OA
ATOM      5  C   UNL     1      -9.992  -3.922  18.094  0.00  0.00    +0.000 C 
ATOM      6  C   UNL     1      -9.270  -5.387  17.711  0.00  0.00    +0.000 C 
ATOM      7  N   UNL     1      -9.991  -2.636  17.413  0.00  0.00    +0.000 N 
ATOM      8  C   UNL     1      -9.758  -1.305  17.933  0.00  0.00    +0.000 A 
ATOM      9  C   UNL     1      -9.592  -0.766  19.214  0.00  0.00    +0.000 A 
ATOM     10  C   UNL     1      -9.292   0.598  19.374  0.00  0.00    +0.000 A 
ATOM     11  C   UNL     1      -9.157   1.443  18.280  0.00  0.00    +0.000 A 
ATOM     12  C   UNL     1      -9.545   0.996  17.033  0.00  0.00    +0.000 A 
ATOM     13  C   UNL     1      -9.992  -0.312  16.924  0.00  0.00    +0.000 A 
ATOM     14  C   UNL     1     -10.882  -0.913  16.049  0.00  0.00    +0.000 A 
ATOM     15  C   UNL     1     -12.036  -0.255  15.654  0.00  0.00    +0.000 A 
ATOM     16  C   UNL     1     -12.446  -0.780  14.404  0.00  0.00    +0.000 A 
ATOM     17  C   UNL     1     -12.368  -2.272  14.548  0.00  0.00    +0.000 A 
ATOM     18  C   UNL     1     -11.309  -2.874  13.722  0.00  0.00    +0.000 A 
ATOM     19  C   UNL     1     -10.546  -2.212  12.714  0.00  0.00    +0.000 A 
ATOM     20  C   UNL     1      -9.180  -2.429  12.670  0.00  0.00    +0.000 A 
ATOM     21  C   UNL     1      -8.655  -3.541  13.289  0.00  0.00    +0.000 A 
ATOM     22  C   UNL     1      -9.458  -4.458  13.998  0.00  0.00    +0.000 A 
ATOM     23  C   UNL     1     -10.747  -4.078  14.442  0.00  0.00    +0.000 A 
ATOM     24  N   UNL     1     -11.482  -4.282  15.669  0.00  0.00    +0.000 N 
ATOM     25  C   UNL     1     -11.855  -2.978  15.713  0.00  0.00    +0.000 A 
ATOM     26  C   UNL     1     -10.876  -2.221  16.449  0.00  0.00    +0.000 A 
ATOM     27  C   UNL     1     -13.543   0.108  14.070  0.00  0.00    +0.000 C 
ATOM     28  O   UNL     1     -13.786   0.757  13.059  0.00  0.00    +0.000 OA
ATOM     29  N   UNL     1     -14.072   0.484  15.329  0.00  0.00    +0.000 N 
ATOM     30  C   UNL     1     -13.300  -0.074  16.411  0.00  0.00    +0.000 C 
ATOM     31  H   UNL     1     -10.545  -5.911  19.399  0.00  0.00    +0.000 HD
ATOM     32  H   UNL     1     -11.575  -7.219  16.819  0.00  0.00    +0.000 HD
ATOM     33  H   UNL     1     -12.338  -6.593  18.264  0.00  0.00    +0.000 HD
ATOM     34  H   UNL     1     -12.883  -4.956  16.909  0.00  0.00    +0.000 HD
ATOM     35  H   UNL     1      -8.236  -5.392  18.067  0.00  0.00    +0.000 HD
ATOM     36  H   UNL     1      -9.776  -1.343  20.108  0.00  0.00    +0.000 HD
ATOM     37  H   UNL     1      -9.195   1.007  20.370  0.00  0.00    +0.000 HD
ATOM     38  H   UNL     1      -8.864   2.482  18.409  0.00  0.00    +0.000 HD
ATOM     39  H   UNL     1      -9.588   1.672  16.179  0.00  0.00    +0.000 HD
ATOM     40  H   UNL     1     -10.936  -1.308  12.245  0.00  0.00    +0.000 HD
ATOM     41  H   UNL     1      -8.531  -1.693  12.199  0.00  0.00    +0.000 HD
ATOM     42  H   UNL     1      -7.574  -3.685  13.272  0.00  0.00    +0.000 HD
ATOM     43  H   UNL     1      -8.915  -5.295  14.388  0.00  0.00    +0.000 HD
ATOM     44  H   UNL     1     -14.321   1.463  15.383  0.00  0.00    +0.000 HD
ATOM     45  H   UNL     1     -13.756  -1.060  16.619  0.00  0.00    +0.000 HD
ATOM     46  H   UNL     1     -13.267   0.501  17.325  0.00  0.00    +0.000 HD
ENDROOT
BRANCH   5  47
ATOM     47  C   UNL     1      -9.406  -3.724  19.530  0.00  0.00    +0.000 C 
ATOM     48  H   UNL     1      -8.311  -3.751  19.566  0.00  0.00    +0.000 HD
ATOM     49  H   UNL     1      -9.751  -4.487  20.229  0.00  0.00    +0.000 HD
ATOM     50  H   UNL     1      -9.585  -2.707  19.899  0.00  0.00    +0.000 HD
ENDBRANCH   5  47
BRANCH   1  51
ATOM     51  N   UNL     1      -9.777  -7.678  18.936  0.00  0.00    +0.000 NA
ATOM     52  H   UNL     1      -9.559  -8.339  18.213  0.00  0.00    +0.000 HD
BRANCH  51  53
ATOM     53  C   UNL     1      -8.718  -7.606  19.937  0.00  0.00    +0.000 C 
ATOM     54  H   UNL     1      -7.966  -6.864  19.658  0.00  0.00    +0.000 HD
ATOM     55  H   UNL     1      -8.218  -8.575  20.019  0.00  0.00    +0.000 HD
ATOM     56  H   UNL     1      -9.101  -7.363  20.935  0.00  0.00    +0.000 HD
ENDBRANCH  51  53
ENDBRANCH   1  51
BRANCH   6  57
ATOM     57  O   UNL     1      -9.228  -5.802  16.351  0.00  0.00    +0.000 OA
BRANCH  57  58
ATOM     58  C   UNL     1      -8.465  -6.965  16.009  0.00  0.00    +0.000 C 
ATOM     59  H   UNL     1      -8.568  -7.246  14.960  0.00  0.00    +0.000 HD
ATOM     60  H   UNL     1      -8.702  -7.802  16.664  0.00  0.00    +0.000 HD
ATOM     61  H   UNL     1      -7.398  -6.733  16.104  0.00  0.00    +0.000 HD
ENDBRANCH  57  58
ENDBRANCH   6  57
TORSDOF 5
ENDMDL
MODEL 6
REMARK VINA RESULT:    -6.324      4.203      7.436
REMARK INTER + INTRA:          -7.523
REMARK INTER:                  -7.462
REMARK INTRA:                  -0.061
REMARK UNBOUND:                 0.096
REMARK  Name = 
REMARK  5 active torsions:
REMARK  status: ('A' for Active; 'I' for Inactive)
REMARK    1  A    between atoms: C_1  and  N_2
REMARK    2  A    between atoms: N_2  and  C_3
REMARK    3  A    between atoms: C_7  and  C_8
REMARK    4  A    between atoms: C_9  and  O_10
REMARK    5  A    between atoms: O_10  and  C_11
REMARK                            x       y       z     vdW  Elec       q    Type
REMARK                         _______ _______ _______ _____ _____    ______ ____
ROOT
ATOM      1  C   UNL     1     -12.446   2.104  20.096  0.00  0.00    +0.000 C 
ATOM      2  C   UNL     1     -12.987   2.192  21.570  0.00  0.00    +0.000 C 
ATOM      3  C   UNL     1     -12.044   1.395  22.526  0.00  0.00    +0.000 C 
ATOM      4  O   UNL     1     -11.749   0.243  21.640  0.00  0.00    +0.000 OA
ATOM      5  C   UNL     1     -10.612   0.584  20.798  0.00  0.00    +0.000 C 
ATOM      6  C   UNL     1     -10.890   2.145  20.252  0.00  0.00    +0.000 C 
ATOM      7  N   UNL     1      -9.542   0.019  21.607  0.00  0.00    +0.000 N 
ATOM      8  C   UNL     1      -8.753  -1.179  21.407  0.00  0.00    +0.000 A 
ATOM      9  C   UNL     1      -8.802  -2.248  20.504  0.00  0.00    +0.000 A 
ATOM     10  C   UNL     1      -7.808  -3.241  20.529  0.00  0.00    +0.000 A 
ATOM     11  C   UNL     1      -6.763  -3.197  21.442  0.00  0.00    +0.000 A 
ATOM     12  C   UNL     1      -6.820  -2.296  22.487  0.00  0.00    +0.000 A 
ATOM     13  C   UNL     1      -7.898  -1.425  22.533  0.00  0.00    +0.000 A 
ATOM     14  C   UNL     1      -8.536  -0.801  23.592  0.00  0.00    +0.000 A 
ATOM     15  C   UNL     1      -8.752  -1.478  24.783  0.00  0.00    +0.000 A 
ATOM     16  C   UNL     1      -8.872  -0.525  25.824  0.00  0.00    +0.000 A 
ATOM     17  C   UNL     1      -9.808   0.527  25.304  0.00  0.00    +0.000 A 
ATOM     18  C   UNL     1      -9.147   1.821  25.073  0.00  0.00    +0.000 A 
ATOM     19  C   UNL     1      -7.825   2.177  25.476  0.00  0.00    +0.000 A 
ATOM     20  C   UNL     1      -7.020   2.852  24.576  0.00  0.00    +0.000 A 
ATOM     21  C   UNL     1      -7.600   3.512  23.516  0.00  0.00    +0.000 A 
ATOM     22  C   UNL     1      -8.993   3.500  23.293  0.00  0.00    +0.000 A 
ATOM     23  C   UNL     1      -9.800   2.505  23.895  0.00  0.00    +0.000 A 
ATOM     24  N   UNL     1     -10.901   1.695  23.428  0.00  0.00    +0.000 N 
ATOM     25  C   UNL     1     -10.355   0.571  23.956  0.00  0.00    +0.000 A 
ATOM     26  C   UNL     1      -9.506  -0.058  22.978  0.00  0.00    +0.000 A 
ATOM     27  C   UNL     1      -8.928  -1.385  26.990  0.00  0.00    +0.000 C 
ATOM     28  O   UNL     1      -8.294  -1.379  28.038  0.00  0.00    +0.000 OA
ATOM     29  N   UNL     1      -9.541  -2.569  26.511  0.00  0.00    +0.000 N 
ATOM     30  C   UNL     1      -9.788  -2.494  25.092  0.00  0.00    +0.000 C 
ATOM     31  H   UNL     1     -12.737   1.117  19.720  0.00  0.00    +0.000 HD
ATOM     32  H   UNL     1     -13.249   3.183  21.933  0.00  0.00    +0.000 HD
ATOM     33  H   UNL     1     -13.935   1.625  21.530  0.00  0.00    +0.000 HD
ATOM     34  H   UNL     1     -12.753   0.988  23.264  0.00  0.00    +0.000 HD
ATOM     35  H   UNL     1     -10.332   2.317  19.327  0.00  0.00    +0.000 HD
ATOM     36  H   UNL     1      -9.635  -2.394  19.833  0.00  0.00    +0.000 HD
ATOM     37  H   UNL     1      -7.874  -4.076  19.845  0.00  0.00    +0.000 HD
ATOM     38  H   UNL     1      -5.965  -3.934  21.416  0.00  0.00    +0.000 HD
ATOM     39  H   UNL     1      -6.095  -2.326  23.300  0.00  0.00    +0.000 HD
ATOM     40  H   UNL     1      -7.341   1.635  26.288  0.00  0.00    +0.000 HD
ATOM     41  H   UNL     1      -5.937   2.807  24.680  0.00  0.00    +0.000 HD
ATOM     42  H   UNL     1      -6.953   4.015  22.797  0.00  0.00    +0.000 HD
ATOM     43  H   UNL     1      -9.300   4.093  22.456  0.00  0.00    +0.000 HD
ATOM     44  H   UNL     1      -9.118  -3.414  26.872  0.00  0.00    +0.000 HD
ATOM     45  H   UNL     1     -10.794  -2.046  24.993  0.00  0.00    +0.000 HD
ATOM     46  H   UNL     1      -9.761  -3.428  24.549  0.00  0.00    +0.000 HD
ENDROOT
BRANCH   5  47
ATOM     47  C   UNL     1     -10.649  -0.169  19.429  0.00  0.00    +0.000 C 
ATOM     48  H   UNL     1      -9.660  -0.465  19.062  0.00  0.00    +0.000 HD
ATOM     49  H   UNL     1     -11.099   0.431  18.636  0.00  0.00    +0.000 HD
ATOM     50  H   UNL     1     -11.121  -1.154  19.526  0.00  0.00    +0.000 HD
ENDBRANCH   5  47
BRANCH   1  51
ATOM     51  N   UNL     1     -13.142   2.964  19.129  0.00  0.00    +0.000 NA
ATOM     52  H   UNL     1     -13.530   2.481  18.339  0.00  0.00    +0.000 HD
BRANCH  51  53
ATOM     53  C   UNL     1     -14.109   3.876  19.731  0.00  0.00    +0.000 C 
ATOM     54  H   UNL     1     -13.612   4.756  20.144  0.00  0.00    +0.000 HD
ATOM     55  H   UNL     1     -14.634   3.373  20.548  0.00  0.00    +0.000 HD
ATOM     56  H   UNL     1     -14.875   4.204  19.018  0.00  0.00    +0.000 HD
ENDBRANCH  51  53
ENDBRANCH   1  51
BRANCH   6  57
ATOM     57  O   UNL     1     -10.592   3.241  21.110  0.00  0.00    +0.000 OA
BRANCH  57  58
ATOM     58  C   UNL     1     -10.341   4.524  20.525  0.00  0.00    +0.000 C 
ATOM     59  H   UNL     1     -10.655   4.583  19.482  0.00  0.00    +0.000 HD
ATOM     60  H   UNL     1      -9.297   4.814  20.639  0.00  0.00    +0.000 HD
ATOM     61  H   UNL     1     -10.971   5.272  21.021  0.00  0.00    +0.000 HD
ENDBRANCH  57  58
ENDBRANCH   6  57
TORSDOF 5
ENDMDL
MODEL 7
REMARK VINA RESULT:    -6.214      2.617      7.815
REMARK INTER + INTRA:          -7.390
REMARK INTER:                  -7.320
REMARK INTRA:                  -0.069
REMARK UNBOUND:                 0.096
REMARK  Name = 
REMARK  5 active torsions:
REMARK  status: ('A' for Active; 'I' for Inactive)
REMARK    1  A    between atoms: C_1  and  N_2
REMARK    2  A    between atoms: N_2  and  C_3
REMARK    3  A    between atoms: C_7  and  C_8
REMARK    4  A    between atoms: C_9  and  O_10
REMARK    5  A    between atoms: O_10  and  C_11
REMARK                            x       y       z     vdW  Elec       q    Type
REMARK                         _______ _______ _______ _____ _____    ______ ____
ROOT
ATOM      1  C   UNL     1     -11.986   3.380  22.780  0.00  0.00    +0.000 C 
ATOM      2  C   UNL     1     -12.772   2.029  22.955  0.00  0.00    +0.000 C 
ATOM      3  C   UNL     1     -12.251   0.978  21.923  0.00  0.00    +0.000 C 
ATOM      4  O   UNL     1     -12.065   1.880  20.761  0.00  0.00    +0.000 OA
ATOM      5  C   UNL     1     -10.735   2.467  20.837  0.00  0.00    +0.000 C 
ATOM      6  C   UNL     1     -10.526   2.934  22.434  0.00  0.00    +0.000 C 
ATOM      7  N   UNL     1     -10.010   1.519  20.004  0.00  0.00    +0.000 N 
ATOM      8  C   UNL     1      -9.501   1.660  18.656  0.00  0.00    +0.000 A 
ATOM      9  C   UNL     1      -9.618   2.636  17.659  0.00  0.00    +0.000 A 
ATOM     10  C   UNL     1      -8.909   2.502  16.452  0.00  0.00    +0.000 A 
ATOM     11  C   UNL     1      -8.086   1.410  16.213  0.00  0.00    +0.000 A 
ATOM     12  C   UNL     1      -8.137   0.329  17.069  0.00  0.00    +0.000 A 
ATOM     13  C   UNL     1      -8.968   0.417  18.175  0.00  0.00    +0.000 A 
ATOM     14  C   UNL     1      -9.639  -0.550  18.905  0.00  0.00    +0.000 A 
ATOM     15  C   UNL     1     -10.239  -1.624  18.268  0.00  0.00    +0.000 A 
ATOM     16  C   UNL     1     -10.337  -2.695  19.191  0.00  0.00    +0.000 A 
ATOM     17  C   UNL     1     -10.878  -2.092  20.454  0.00  0.00    +0.000 A 
ATOM     18  C   UNL     1      -9.901  -2.087  21.553  0.00  0.00    +0.000 A 
ATOM     19  C   UNL     1      -8.639  -2.754  21.563  0.00  0.00    +0.000 A 
ATOM     20  C   UNL     1      -7.535  -2.073  22.046  0.00  0.00    +0.000 A 
ATOM     21  C   UNL     1      -7.723  -0.978  22.859  0.00  0.00    +0.000 A 
ATOM     22  C   UNL     1      -9.006  -0.500  23.195  0.00  0.00    +0.000 A 
ATOM     23  C   UNL     1     -10.127  -0.864  22.410  0.00  0.00    +0.000 A 
ATOM     24  N   UNL     1     -11.273  -0.140  21.909  0.00  0.00    +0.000 N 
ATOM     25  C   UNL     1     -11.121  -0.673  20.670  0.00  0.00    +0.000 A 
ATOM     26  C   UNL     1     -10.266   0.175  19.881  0.00  0.00    +0.000 A 
ATOM     27  C   UNL     1     -10.824  -3.761  18.336  0.00  0.00    +0.000 C 
ATOM     28  O   UNL     1     -10.426  -4.906  18.157  0.00  0.00    +0.000 OA
ATOM     29  N   UNL     1     -11.589  -3.087  17.353  0.00  0.00    +0.000 N 
ATOM     30  C   UNL     1     -11.525  -1.657  17.527  0.00  0.00    +0.000 C 
ATOM     31  H   UNL     1     -12.419   3.877  21.905  0.00  0.00    +0.000 HD
ATOM     32  H   UNL     1     -12.862   1.646  23.969  0.00  0.00    +0.000 HD
ATOM     33  H   UNL     1     -13.800   2.288  22.638  0.00  0.00    +0.000 HD
ATOM     34  H   UNL     1     -13.168   0.417  21.681  0.00  0.00    +0.000 HD
ATOM     35  H   UNL     1      -9.772   3.724  22.491  0.00  0.00    +0.000 HD
ATOM     36  H   UNL     1     -10.312   3.459  17.741  0.00  0.00    +0.000 HD
ATOM     37  H   UNL     1      -9.032   3.249  15.679  0.00  0.00    +0.000 HD
ATOM     38  H   UNL     1      -7.494   1.345  15.304  0.00  0.00    +0.000 HD
ATOM     39  H   UNL     1      -7.615  -0.600  16.839  0.00  0.00    +0.000 HD
ATOM     40  H   UNL     1      -8.466  -3.598  20.895  0.00  0.00    +0.000 HD
ATOM     41  H   UNL     1      -6.536  -2.373  21.735  0.00  0.00    +0.000 HD
ATOM     42  H   UNL     1      -6.846  -0.432  23.210  0.00  0.00    +0.000 HD
ATOM     43  H   UNL     1      -8.994   0.332  23.869  0.00  0.00    +0.000 HD
ATOM     44  H   UNL     1     -11.456  -3.455  16.420  0.00  0.00    +0.000 HD
ATOM     45  H   UNL     1     -12.357  -1.408  18.211  0.00  0.00    +0.000 HD
ATOM     46  H   UNL     1     -11.610  -1.059  16.631  0.00  0.00    +0.000 HD
ENDROOT
BRANCH   5  47
ATOM     47  C   UNL     1     -10.675   3.873  20.157  0.00  0.00    +0.000 C 
ATOM     48  H   UNL     1      -9.690   4.123  19.748  0.00  0.00    +0.000 HD
ATOM     49  H   UNL     1     -10.931   4.680  20.845  0.00  0.00    +0.000 HD
ATOM     50  H   UNL     1     -11.276   3.900  19.240  0.00  0.00    +0.000 HD
ENDBRANCH   5  47
BRANCH   1  51
ATOM     51  N   UNL     1     -12.255   4.391  23.812  0.00  0.00    +0.000 NA
ATOM     52  H   UNL     1     -12.658   5.243  23.470  0.00  0.00    +0.000 HD
BRANCH  51  53
ATOM     53  C   UNL     1     -12.978   3.880  24.972  0.00  0.00    +0.000 C 
ATOM     54  H   UNL     1     -12.419   3.077  25.459  0.00  0.00    +0.000 HD
ATOM     55  H   UNL     1     -13.943   3.473  24.657  0.00  0.00    +0.000 HD
ATOM     56  H   UNL     1     -13.190   4.661  25.710  0.00  0.00    +0.000 HD
ENDBRANCH  51  53
ENDBRANCH   1  51
BRANCH   6  57
ATOM     57  O   UNL     1     -10.156   1.955  23.398  0.00  0.00    +0.000 OA
BRANCH  57  58
ATOM     58  C   UNL     1      -9.503   2.383  24.599  0.00  0.00    +0.000 C 
ATOM     59  H   UNL     1      -8.417   2.301  24.543  0.00  0.00    +0.000 HD
ATOM     60  H   UNL     1      -9.892   1.859  25.471  0.00  0.00    +0.000 HD
ATOM     61  H   UNL     1      -9.669   3.459  24.732  0.00  0.00    +0.000 HD
ENDBRANCH  57  58
ENDBRANCH   6  57
TORSDOF 5
ENDMDL
MODEL 8
REMARK VINA RESULT:    -6.013      2.780      6.570
REMARK INTER + INTRA:          -7.148
REMARK INTER:                  -7.094
REMARK INTRA:                  -0.054
REMARK UNBOUND:                 0.096
REMARK  Name = 
REMARK  5 active torsions:
REMARK  status: ('A' for Active; 'I' for Inactive)
REMARK    1  A    between atoms: C_1  and  N_2
REMARK    2  A    between atoms: N_2  and  C_3
REMARK    3  A    between atoms: C_7  and  C_8
REMARK    4  A    between atoms: C_9  and  O_10
REMARK    5  A    between atoms: O_10  and  C_11
REMARK                            x       y       z     vdW  Elec       q    Type
REMARK                         _______ _______ _______ _____ _____    ______ ____
ROOT
ATOM      1  C   UNL     1     -10.355  -2.104  21.509  0.00  0.00    +0.000 C 
ATOM      2  C   UNL     1      -9.349  -0.912  21.309  0.00  0.00    +0.000 C 
ATOM      3  C   UNL     1      -9.327  -0.487  19.807  0.00  0.00    +0.000 C 
ATOM      4  O   UNL     1      -9.411  -1.835  19.193  0.00  0.00    +0.000 OA
ATOM      5  C   UNL     1     -10.814  -2.202  19.070  0.00  0.00    +0.000 C 
ATOM      6  C   UNL     1     -11.531  -1.785  20.528  0.00  0.00    +0.000 C 
ATOM      7  N   UNL     1     -11.058  -1.751  17.708  0.00  0.00    +0.000 N 
ATOM      8  C   UNL     1     -11.221  -2.513  16.488  0.00  0.00    +0.000 A 
ATOM      9  C   UNL     1     -11.080  -3.864  16.147  0.00  0.00    +0.000 A 
ATOM     10  C   UNL     1     -11.402  -4.303  14.851  0.00  0.00    +0.000 A 
ATOM     11  C   UNL     1     -11.858  -3.422  13.880  0.00  0.00    +0.000 A 
ATOM     12  C   UNL     1     -11.780  -2.063  14.114  0.00  0.00    +0.000 A 
ATOM     13  C   UNL     1     -11.307  -1.645  15.348  0.00  0.00    +0.000 A 
ATOM     14  C   UNL     1     -10.642  -0.495  15.740  0.00  0.00    +0.000 A 
ATOM     15  C   UNL     1      -9.664   0.064  14.932  0.00  0.00    +0.000 A 
ATOM     16  C   UNL     1      -9.562   1.442  15.241  0.00  0.00    +0.000 A 
ATOM     17  C   UNL     1      -9.521   1.518  16.739  0.00  0.00    +0.000 A 
ATOM     18  C   UNL     1     -10.722   2.141  17.316  0.00  0.00    +0.000 A 
ATOM     19  C   UNL     1     -11.753   2.815  16.594  0.00  0.00    +0.000 A 
ATOM     20  C   UNL     1     -13.071   2.554  16.927  0.00  0.00    +0.000 A 
ATOM     21  C   UNL     1     -13.360   2.006  18.156  0.00  0.00    +0.000 A 
ATOM     22  C   UNL     1     -12.354   1.668  19.085  0.00  0.00    +0.000 A 
ATOM     23  C   UNL     1     -11.016   1.502  18.653  0.00  0.00    +0.000 A 
ATOM     24  N   UNL     1      -9.981   0.541  18.956  0.00  0.00    +0.000 N 
ATOM     25  C   UNL     1      -9.679   0.387  17.642  0.00  0.00    +0.000 A 
ATOM     26  C   UNL     1     -10.475  -0.675  17.085  0.00  0.00    +0.000 A 
ATOM     27  C   UNL     1      -8.637   1.894  14.219  0.00  0.00    +0.000 C 
ATOM     28  O   UNL     1      -8.697   2.819  13.418  0.00  0.00    +0.000 OA
ATOM     29  N   UNL     1      -7.822   0.762  13.973  0.00  0.00    +0.000 N 
ATOM     30  C   UNL     1      -8.260  -0.377  14.742  0.00  0.00    +0.000 C 
ATOM     31  H   UNL     1      -9.839  -3.004  21.161  0.00  0.00    +0.000 HD
ATOM     32  H   UNL     1      -9.438  -0.079  22.003  0.00  0.00    +0.000 HD
ATOM     33  H   UNL     1      -8.364  -1.371  21.514  0.00  0.00    +0.000 HD
ATOM     34  H   UNL     1      -8.274  -0.196  19.664  0.00  0.00    +0.000 HD
ATOM     35  H   UNL     1     -12.437  -2.380  20.676  0.00  0.00    +0.000 HD
ATOM     36  H   UNL     1     -10.642  -4.583  16.822  0.00  0.00    +0.000 HD
ATOM     37  H   UNL     1     -11.261  -5.344  14.592  0.00  0.00    +0.000 HD
ATOM     38  H   UNL     1     -12.163  -3.778  12.899  0.00  0.00    +0.000 HD
ATOM     39  H   UNL     1     -11.994  -1.341  13.326  0.00  0.00    +0.000 HD
ATOM     40  H   UNL     1     -11.546   3.219  15.603  0.00  0.00    +0.000 HD
ATOM     41  H   UNL     1     -13.858   2.730  16.195  0.00  0.00    +0.000 HD
ATOM     42  H   UNL     1     -14.399   1.779  18.395  0.00  0.00    +0.000 HD
ATOM     43  H   UNL     1     -12.733   1.292  20.013  0.00  0.00    +0.000 HD
ATOM     44  H   UNL     1      -7.620   0.619  12.992  0.00  0.00    +0.000 HD
ATOM     45  H   UNL     1      -7.714  -0.310  15.701  0.00  0.00    +0.000 HD
ATOM     46  H   UNL     1      -8.087  -1.349  14.303  0.00  0.00    +0.000 HD
ENDROOT
BRANCH   5  47
ATOM     47  C   UNL     1     -11.022  -3.751  19.125  0.00  0.00    +0.000 C 
ATOM     48  H   UNL     1     -12.060  -4.050  19.304  0.00  0.00    +0.000 HD
ATOM     49  H   UNL     1     -10.431  -4.222  19.912  0.00  0.00    +0.000 HD
ATOM     50  H   UNL     1     -10.855  -4.212  18.144  0.00  0.00    +0.000 HD
ENDBRANCH   5  47
BRANCH   1  51
ATOM     51  N   UNL     1     -10.605  -2.475  22.909  0.00  0.00    +0.000 NA
ATOM     52  H   UNL     1     -10.382  -3.426  23.139  0.00  0.00    +0.000 HD
BRANCH  51  53
ATOM     53  C   UNL     1     -10.046  -1.541  23.882  0.00  0.00    +0.000 C 
ATOM     54  H   UNL     1     -10.508  -1.674  24.862  0.00  0.00    +0.000 HD
ATOM     55  H   UNL     1     -10.233  -0.513  23.559  0.00  0.00    +0.000 HD
ATOM     56  H   UNL     1      -8.960  -1.646  23.986  0.00  0.00    +0.000 HD
ENDBRANCH  51  53
ENDBRANCH   1  51
BRANCH   6  57
ATOM     57  O   UNL     1     -11.899  -0.429  20.754  0.00  0.00    +0.000 OA
BRANCH  57  58
ATOM     58  C   UNL     1     -12.844  -0.136  21.790  0.00  0.00    +0.000 C 
ATOM     59  H   UNL     1     -12.756   0.883  22.168  0.00  0.00    +0.000 HD
ATOM     60  H   UNL     1     -12.782  -0.862  22.600  0.00  0.00    +0.000 HD
ATOM     61  H   UNL     1     -13.856  -0.162  21.369  0.00  0.00    +0.000 HD
ENDBRANCH  57  58
ENDBRANCH   6  57
TORSDOF 5
ENDMDL
MODEL 9
REMARK VINA RESULT:    -5.998      3.866      5.775
REMARK INTER + INTRA:          -7.129
REMARK INTER:                  -7.064
REMARK INTRA:                  -0.065
REMARK UNBOUND:                 0.096
REMARK  Name = 
REMARK  5 active torsions:
REMARK  status: ('A' for Active; 'I' for Inactive)
REMARK    1  A    between atoms: C_1  and  N_2
REMARK    2  A    between atoms: N_2  and  C_3
REMARK    3  A    between atoms: C_7  and  C_8
REMARK    4  A    between atoms: C_9  and  O_10
REMARK    5  A    between atoms: O_10  and  C_11
REMARK                            x       y       z     vdW  Elec       q    Type
REMARK                         _______ _______ _______ _____ _____    ______ ____
ROOT
ATOM      1  C   UNL     1     -10.355  -1.247  18.114  0.00  0.00    +0.000 C 
ATOM      2  C   UNL     1     -11.543  -0.248  17.861  0.00  0.00    +0.000 C 
ATOM      3  C   UNL     1     -11.666   0.740  19.065  0.00  0.00    +0.000 C 
ATOM      4  O   UNL     1     -11.381  -0.213  20.165  0.00  0.00    +0.000 OA
ATOM      5  C   UNL     1      -9.941  -0.277  20.363  0.00  0.00    +0.000 C 
ATOM      6  C   UNL     1      -9.267  -0.380  18.831  0.00  0.00    +0.000 C 
ATOM      7  N   UNL     1      -9.802   0.719  21.415  0.00  0.00    +0.000 N 
ATOM      8  C   UNL     1      -9.548   0.551  22.830  0.00  0.00    +0.000 A 
ATOM      9  C   UNL     1      -9.479  -0.550  23.693  0.00  0.00    +0.000 A 
ATOM     10  C   UNL     1      -9.120  -0.371  25.040  0.00  0.00    +0.000 A 
ATOM     11  C   UNL     1      -8.833   0.887  25.553  0.00  0.00    +0.000 A 
ATOM     12  C   UNL     1      -9.121   2.004  24.795  0.00  0.00    +0.000 A 
ATOM     13  C   UNL     1      -9.627   1.808  23.519  0.00  0.00    +0.000 A 
ATOM     14  C   UNL     1     -10.458   2.583  22.727  0.00  0.00    +0.000 A 
ATOM     15  C   UNL     1     -11.531   3.262  23.284  0.00  0.00    +0.000 A 
ATOM     16  C   UNL     1     -11.845   4.363  22.450  0.00  0.00    +0.000 A 
ATOM     17  C   UNL     1     -11.863   3.819  21.052  0.00  0.00    +0.000 A 
ATOM     18  C   UNL     1     -10.764   4.333  20.220  0.00  0.00    +0.000 A 
ATOM     19  C   UNL     1      -9.870   5.392  20.563  0.00  0.00    +0.000 A 
ATOM     20  C   UNL     1      -8.521   5.227  20.305  0.00  0.00    +0.000 A 
ATOM     21  C   UNL     1      -8.121   4.280  19.390  0.00  0.00    +0.000 A 
ATOM     22  C   UNL     1      -9.039   3.444  18.721  0.00  0.00    +0.000 A 
ATOM     23  C   UNL     1     -10.343   3.261  19.242  0.00  0.00    +0.000 A 
ATOM     24  N   UNL     1     -11.204   2.112  19.398  0.00  0.00    +0.000 N 
ATOM     25  C   UNL     1     -11.507   2.459  20.675  0.00  0.00    +0.000 A 
ATOM     26  C   UNL     1     -10.564   1.850  21.577  0.00  0.00    +0.000 A 
ATOM     27  C   UNL     1     -12.853   5.041  23.243  0.00  0.00    +0.000 C 
ATOM     28  O   UNL     1     -12.959   6.208  23.600  0.00  0.00    +0.000 OA
ATOM     29  N   UNL     1     -13.481   3.994  23.960  0.00  0.00    +0.000 N 
ATOM     30  C   UNL     1     -12.850   2.724  23.697  0.00  0.00    +0.000 C 
ATOM     31  H   UNL     1     -10.728  -1.997  18.819  0.00  0.00    +0.000 HD
ATOM     32  H   UNL     1     -11.572   0.236  16.887  0.00  0.00    +0.000 HD
ATOM     33  H   UNL     1     -12.437  -0.897  17.903  0.00  0.00    +0.000 HD
ATOM     34  H   UNL     1     -12.755   0.897  19.124  0.00  0.00    +0.000 HD
ATOM     35  H   UNL     1      -8.275  -0.836  18.894  0.00  0.00    +0.000 HD
ATOM     36  H   UNL     1      -9.781  -1.539  23.385  0.00  0.00    +0.000 HD
ATOM     37  H   UNL     1      -9.099  -1.226  25.702  0.00  0.00    +0.000 HD
ATOM     38  H   UNL     1      -8.496   1.010  26.579  0.00  0.00    +0.000 HD
ATOM     39  H   UNL     1      -9.043   3.008  25.214  0.00  0.00    +0.000 HD
ATOM     40  H   UNL     1     -10.162   6.125  21.315  0.00  0.00    +0.000 HD
ATOM     41  H   UNL     1      -7.789   5.803  20.868  0.00  0.00    +0.000 HD
ATOM     42  H   UNL     1      -7.053   4.139  19.217  0.00  0.00    +0.000 HD
ATOM     43  H   UNL     1      -8.584   2.788  18.008  0.00  0.00    +0.000 HD
ATOM     44  H   UNL     1     -13.680   4.231  24.924  0.00  0.00    +0.000 HD
ATOM     45  H   UNL     1     -13.378   2.312  22.817  0.00  0.00    +0.000 HD
ATOM     46  H   UNL     1     -12.875   1.999  24.498  0.00  0.00    +0.000 HD
ENDROOT
BRANCH   5  47
ATOM     47  C   UNL     1      -9.488  -1.662  20.927  0.00  0.00    +0.000 C 
ATOM     48  H   UNL     1      -9.221  -2.389  20.152  0.00  0.00    +0.000 HD
ATOM     49  H   UNL     1     -10.260  -2.138  21.534  0.00  0.00    +0.000 HD
ATOM     50  H   UNL     1      -8.530  -1.586  21.456  0.00  0.00    +0.000 HD
ENDBRANCH   5  47
BRANCH   1  51
ATOM     51  N   UNL     1     -10.018  -2.109  16.972  0.00  0.00    +0.000 NA
ATOM     52  H   UNL     1     -10.071  -3.094  17.159  0.00  0.00    +0.000 HD
BRANCH  51  53
ATOM     53  C   UNL     1     -10.708  -1.757  15.736  0.00  0.00    +0.000 C 
ATOM     54  H   UNL     1     -11.373  -0.904  15.889  0.00  0.00    +0.000 HD
ATOM     55  H   UNL     1     -11.317  -2.601  15.398  0.00  0.00    +0.000 HD
ATOM     56  H   UNL     1     -10.014  -1.523  14.921  0.00  0.00    +0.000 HD
ENDBRANCH  51  53
ENDBRANCH   1  51
BRANCH   6  57
ATOM     57  O   UNL     1      -9.115   0.807  18.061  0.00  0.00    +0.000 OA
BRANCH  57  58
ATOM     58  C   UNL     1      -8.141   0.827  17.011  0.00  0.00    +0.000 C 
ATOM     59  H   UNL     1      -7.518  -0.068  16.994  0.00  0.00    +0.000 HD
ATOM     60  H   UNL     1      -7.531   1.729  17.054  0.00  0.00    +0.000 HD
ATOM     61  H   UNL     1      -8.656   0.795  16.044  0.00  0.00    +0.000 HD
ENDBRANCH  57  58
ENDBRANCH   6  57
TORSDOF 5
ENDMDL
