REMARK  Name = 
REMARK  1 active torsions:
REMARK  status: ('A' for Active; 'I' for Inactive)
REMARK    1  A    between atoms: C_6  and  C_7
REMARK                            x       y       z     vdW  Elec       q    Type
REMARK                         _______ _______ _______ _____ _____    ______ ____
ROOT
ATOM      1  C   UNL     1      -0.183   0.452   0.742  0.00  0.00    +0.000 A 
ATOM      2  C   UNL     1      -0.260   1.459   1.690  0.00  0.00    +0.000 A 
ATOM      3  N   UNL     1       0.537   2.497   1.284  0.00  0.00    +0.000 N 
ATOM      4  C   UNL     1       1.134   2.200   0.083  0.00  0.00    +0.000 A 
ATOM      5  C   UNL     1       2.031   2.952  -0.687  0.00  0.00    +0.000 A 
ATOM      6  C   UNL     1       2.481   2.396  -1.887  0.00  0.00    +0.000 A 
ATOM      7  C   UNL     1       2.051   1.139  -2.300  0.00  0.00    +0.000 A 
ATOM      8  C   UNL     1       1.160   0.399  -1.514  0.00  0.00    +0.000 A 
ATOM      9  C   UNL     1       0.688   0.932  -0.295  0.00  0.00    +0.000 A 
ATOM     10  H   UNL     1      -0.810   1.534   2.619  0.00  0.00    +0.000 HD
ATOM     11  H   UNL     1       0.676   3.360   1.792  0.00  0.00    +0.000 HD
ATOM     12  H   UNL     1       2.371   3.932  -0.368  0.00  0.00    +0.000 HD
ATOM     13  H   UNL     1       3.179   2.953  -2.507  0.00  0.00    +0.000 HD
ATOM     14  H   UNL     1       2.409   0.721  -3.237  0.00  0.00    +0.000 HD
ATOM     15  H   UNL     1       0.836  -0.584  -1.843  0.00  0.00    +0.000 HD
ENDROOT
BRANCH   1  21
ATOM     16  N   UNL     1      -1.904  -3.357  -1.413  0.00  0.00    +0.000 N 
ATOM     17  C   UNL     1      -1.666  -2.685  -0.232  0.00  0.00    +0.000 A 
ATOM     18  N   UNL     1      -2.042  -3.281   0.900  0.00  0.00    +0.000 NA
ATOM     19  C   UNL     1      -1.791  -2.613   2.038  0.00  0.00    +0.000 A 
ATOM     20  C   UNL     1      -1.198  -1.374   2.075  0.00  0.00    +0.000 A 
ATOM     21  C   UNL     1      -0.865  -0.835   0.851  0.00  0.00    +0.000 A 
ATOM     22  N   UNL     1      -1.107  -1.478  -0.311  0.00  0.00    +0.000 NA
ATOM     23  H   UNL     1      -2.651  -4.023  -1.279  0.00  0.00    +0.000 HD
ATOM     24  H   UNL     1      -1.999  -2.693  -2.169  0.00  0.00    +0.000 HD
ATOM     25  H   UNL     1      -2.083  -3.122   2.951  0.00  0.00    +0.000 HD
ATOM     26  H   UNL     1      -0.992  -0.882   3.014  0.00  0.00    +0.000 HD
ENDBRANCH   1  21
TORSDOF 1
