MODEL 1
REMARK VINA RESULT:   -10.315      0.000      0.000
REMARK INTER + INTRA:         -13.178
REMARK INTER:                 -12.727
REMARK INTRA:                  -0.450
REMARK UNBOUND:                -0.450
REMARK  Name = 
REMARK  6 active torsions:
REMARK  status: ('A' for Active; 'I' for Inactive)
REMARK    1  A    between atoms: C_5  and  O_6
REMARK    2  A    between atoms: C_7  and  O_8
REMARK    3  A    between atoms: C_13  and  O_14
REMARK    4  A    between atoms: C_15  and  O_16
REMARK    5  A    between atoms: N_19  and  C_20
REMARK    6  A    between atoms: C_20  and  C_21
REMARK                            x       y       z     vdW  Elec       q    Type
REMARK                         _______ _______ _______ _____ _____    ______ ____
ROOT
ATOM      1  O   UNL     1      -9.153  -9.314  20.335  0.00  0.00    +0.000 OA
ATOM      2  C   UNL     1      -9.069  -9.097  19.127  0.00  0.00    +0.000 A 
ATOM      3  C   UNL     1      -8.889 -10.259  18.224  0.00  0.00    +0.000 A 
ATOM      4  C   UNL     1      -8.765 -11.535  18.810  0.00  0.00    +0.000 A 
ATOM      5  C   UNL     1      -8.559 -12.639  18.005  0.00  0.00    +0.000 A 
ATOM      6  C   UNL     1      -8.484 -12.481  16.630  0.00  0.00    +0.000 A 
ATOM      7  C   UNL     1      -8.612 -11.224  16.046  0.00  0.00    +0.000 A 
ATOM      8  C   UNL     1      -8.823 -10.073  16.832  0.00  0.00    +0.000 A 
ATOM      9  C   UNL     1      -8.950  -8.711  16.274  0.00  0.00    +0.000 A 
ATOM     10  C   UNL     1      -8.943  -8.472  14.877  0.00  0.00    +0.000 A 
ATOM     11  C   UNL     1      -9.044  -7.183  14.370  0.00  0.00    +0.000 A 
ATOM     12  C   UNL     1      -9.152  -6.111  15.234  0.00  0.00    +0.000 A 
ATOM     13  C   UNL     1      -9.162  -6.307  16.607  0.00  0.00    +0.000 A 
ATOM     14  C   UNL     1      -9.078  -7.601  17.151  0.00  0.00    +0.000 A 
ATOM     15  N   UNL     1      -9.121  -7.816  18.570  0.00  0.00    +0.000 N 
ATOM     16  H   UNL     1      -8.823 -11.641  19.891  0.00  0.00    +0.000 HD
ATOM     17  H   UNL     1      -8.532 -11.182  14.964  0.00  0.00    +0.000 HD
ATOM     18  H   UNL     1      -8.857  -9.293  14.173  0.00  0.00    +0.000 HD
ATOM     19  H   UNL     1      -9.237  -5.418  17.216  0.00  0.00    +0.000 HD
ENDROOT
BRANCH  15  20
ATOM     20  C   UNL     1      -9.270  -6.696  19.512  0.00  0.00    +0.000 C 
ATOM     21  H   UNL     1      -9.764  -7.041  20.427  0.00  0.00    +0.000 HD
ATOM     22  H   UNL     1      -9.965  -5.954  19.097  0.00  0.00    +0.000 HD
BRANCH  20  23
ATOM     23  C   UNL     1      -7.960  -5.990  19.808  0.00  0.00    +0.000 A 
ATOM     24  C   UNL     1      -6.752  -6.490  19.302  0.00  0.00    +0.000 A 
ATOM     25  C   UNL     1      -5.533  -5.907  19.654  0.00  0.00    +0.000 A 
ATOM     26  C   UNL     1      -5.503  -4.805  20.510  0.00  0.00    +0.000 A 
ATOM     27 CL   UNL     1      -3.957  -4.178  20.960  0.00  0.00    +0.000 Cl
ATOM     28  C   UNL     1      -6.701  -4.259  20.976  0.00  0.00    +0.000 A 
ATOM     29 CL   UNL     1      -6.749  -2.879  22.016  0.00  0.00    +0.000 Cl
ATOM     30  C   UNL     1      -7.922  -4.842  20.615  0.00  0.00    +0.000 A 
ATOM     31  H   UNL     1      -6.749  -7.352  18.636  0.00  0.00    +0.000 HD
ATOM     32  H   UNL     1      -4.609  -6.330  19.266  0.00  0.00    +0.000 HD
ATOM     33  H   UNL     1      -8.845  -4.402  20.986  0.00  0.00    +0.000 HD
ENDBRANCH  20  23
ENDBRANCH  15  20
BRANCH   5  34
ATOM     34  O   UNL     1      -8.416 -13.898  18.515  0.00  0.00    +0.000 OA
ATOM     35  H   UNL     1      -7.576 -13.935  19.007  0.00  0.00    +0.000 HD
ENDBRANCH   5  34
BRANCH   6  36
ATOM     36  O   UNL     1      -8.274 -13.567  15.828  0.00  0.00    +0.000 OA
ATOM     37  H   UNL     1      -9.161 -13.801  15.489  0.00  0.00    +0.000 HD
ENDBRANCH   6  36
BRANCH  11  38
ATOM     38  O   UNL     1      -9.036  -6.923  13.029  0.00  0.00    +0.000 OA
ATOM     39  H   UNL     1      -8.979  -5.961  12.897  0.00  0.00    +0.000 HD
ENDBRANCH  11  38
BRANCH  12  40
ATOM     40  O   UNL     1      -9.250  -4.841  14.744  0.00  0.00    +0.000 OA
ATOM     41  H   UNL     1      -9.195  -4.942  13.772  0.00  0.00    +0.000 HD
ENDBRANCH  12  40
TORSDOF 6
ENDMDL
MODEL 2
REMARK VINA RESULT:    -9.756      2.641      4.741
REMARK INTER + INTRA:         -12.488
REMARK INTER:                 -14.104
REMARK INTRA:                   1.616
REMARK UNBOUND:                -0.450
REMARK  Name = 
REMARK  6 active torsions:
REMARK  status: ('A' for Active; 'I' for Inactive)
REMARK    1  A    between atoms: C_5  and  O_6
REMARK    2  A    between atoms: C_7  and  O_8
REMARK    3  A    between atoms: C_13  and  O_14
REMARK    4  A    between atoms: C_15  and  O_16
REMARK    5  A    between atoms: N_19  and  C_20
REMARK    6  A    between atoms: C_20  and  C_21
REMARK                            x       y       z     vdW  Elec       q    Type
REMARK                         _______ _______ _______ _____ _____    ______ ____
ROOT
ATOM      1  O   UNL     1      -8.743  -9.916  14.058  0.00  0.00    +0.000 OA
ATOM      2  C   UNL     1      -8.788 -10.079  15.276  0.00  0.00    +0.000 A 
ATOM      3  C   UNL     1      -8.817 -11.470  15.789  0.00  0.00    +0.000 A 
ATOM      4  C   UNL     1      -8.852 -12.518  14.847  0.00  0.00    +0.000 A 
ATOM      5  C   UNL     1      -8.917 -13.827  15.284  0.00  0.00    +0.000 A 
ATOM      6  C   UNL     1      -8.939 -14.096  16.644  0.00  0.00    +0.000 A 
ATOM      7  C   UNL     1      -8.897 -13.065  17.578  0.00  0.00    +0.000 A 
ATOM      8  C   UNL     1      -8.831 -11.716  17.173  0.00  0.00    +0.000 A 
ATOM      9  C   UNL     1      -8.802 -10.577  18.114  0.00  0.00    +0.000 A 
ATOM     10  C   UNL     1      -8.763 -10.769  19.518  0.00  0.00    +0.000 A 
ATOM     11  C   UNL     1      -8.756  -9.687  20.388  0.00  0.00    +0.000 A 
ATOM     12  C   UNL     1      -8.789  -8.401  19.887  0.00  0.00    +0.000 A 
ATOM     13  C   UNL     1      -8.828  -8.176  18.519  0.00  0.00    +0.000 A 
ATOM     14  C   UNL     1      -8.819  -9.249  17.611  0.00  0.00    +0.000 A 
ATOM     15  N   UNL     1      -8.826  -9.024  16.193  0.00  0.00    +0.000 N 
ATOM     16  H   UNL     1      -8.837 -12.289  13.783  0.00  0.00    +0.000 HD
ATOM     17  H   UNL     1      -8.928 -13.356  18.624  0.00  0.00    +0.000 HD
ATOM     18  H   UNL     1      -8.740 -11.767  19.943  0.00  0.00    +0.000 HD
ATOM     19  H   UNL     1      -8.864  -7.142  18.207  0.00  0.00    +0.000 HD
ENDROOT
BRANCH  15  20
ATOM     20  C   UNL     1      -8.826  -7.666  15.632  0.00  0.00    +0.000 C 
ATOM     21  H   UNL     1      -9.163  -7.693  14.589  0.00  0.00    +0.000 HD
ATOM     22  H   UNL     1      -7.795  -7.291  15.568  0.00  0.00    +0.000 HD
BRANCH  20  23
ATOM     23  C   UNL     1      -9.629  -6.680  16.460  0.00  0.00    +0.000 A 
ATOM     24  C   UNL     1     -11.017  -6.577  16.295  0.00  0.00    +0.000 A 
ATOM     25  C   UNL     1     -11.748  -5.603  16.978  0.00  0.00    +0.000 A 
ATOM     26  C   UNL     1     -11.104  -4.722  17.848  0.00  0.00    +0.000 A 
ATOM     27 CL   UNL     1     -12.057  -3.497  18.605  0.00  0.00    +0.000 Cl
ATOM     28  C   UNL     1      -9.730  -4.849  18.067  0.00  0.00    +0.000 A 
ATOM     29 CL   UNL     1      -8.864  -3.816  19.149  0.00  0.00    +0.000 Cl
ATOM     30  C   UNL     1      -9.001  -5.832  17.386  0.00  0.00    +0.000 A 
ATOM     31  H   UNL     1     -11.542  -7.249  15.619  0.00  0.00    +0.000 HD
ATOM     32  H   UNL     1     -12.821  -5.529  16.812  0.00  0.00    +0.000 HD
ATOM     33  H   UNL     1      -7.933  -5.918  17.572  0.00  0.00    +0.000 HD
ENDBRANCH  20  23
ENDBRANCH  15  20
BRANCH   5  34
ATOM     34  O   UNL     1      -8.969 -14.884  14.421  0.00  0.00    +0.000 OA
ATOM     35  H   UNL     1      -9.391 -15.633  14.879  0.00  0.00    +0.000 HD
ENDBRANCH   5  34
BRANCH   6  36
ATOM     36  O   UNL     1      -9.009 -15.387  17.084  0.00  0.00    +0.000 OA
ATOM     37  H   UNL     1      -8.277 -15.470  17.729  0.00  0.00    +0.000 HD
ENDBRANCH   6  36
BRANCH  11  38
ATOM     38  O   UNL     1      -8.722  -9.843  21.745  0.00  0.00    +0.000 OA
ATOM     39  H   UNL     1      -9.603 -10.120  22.051  0.00  0.00    +0.000 HD
ENDBRANCH  11  38
BRANCH  12  40
ATOM     40  O   UNL     1      -8.783  -7.332  20.736  0.00  0.00    +0.000 OA
ATOM     41  H   UNL     1      -9.240  -6.620  20.246  0.00  0.00    +0.000 HD
ENDBRANCH  12  40
TORSDOF 6
ENDMDL
MODEL 3
REMARK VINA RESULT:    -9.072      3.503      5.702
REMARK INTER + INTRA:         -11.644
REMARK INTER:                 -11.389
REMARK INTRA:                  -0.255
REMARK UNBOUND:                -0.450
REMARK  Name = 
REMARK  6 active torsions:
REMARK  status: ('A' for Active; 'I' for Inactive)
REMARK    1  A    between atoms: C_5  and  O_6
REMARK    2  A    between atoms: C_7  and  O_8
REMARK    3  A    between atoms: C_13  and  O_14
REMARK    4  A    between atoms: C_15  and  O_16
REMARK    5  A    between atoms: N_19  and  C_20
REMARK    6  A    between atoms: C_20  and  C_21
REMARK                            x       y       z     vdW  Elec       q    Type
REMARK                         _______ _______ _______ _____ _____    ______ ____
ROOT
ATOM      1  O   UNL     1     -10.999  -3.669  18.786  0.00  0.00    +0.000 OA
ATOM      2  C   UNL     1      -9.925  -4.235  18.982  0.00  0.00    +0.000 A 
ATOM      3  C   UNL     1      -9.788  -5.640  18.526  0.00  0.00    +0.000 A 
ATOM      4  C   UNL     1     -10.918  -6.258  17.952  0.00  0.00    +0.000 A 
ATOM      5  C   UNL     1     -10.844  -7.577  17.548  0.00  0.00    +0.000 A 
ATOM      6  C   UNL     1      -9.657  -8.276  17.706  0.00  0.00    +0.000 A 
ATOM      7  C   UNL     1      -8.536  -7.669  18.265  0.00  0.00    +0.000 A 
ATOM      8  C   UNL     1      -8.572  -6.325  18.690  0.00  0.00    +0.000 A 
ATOM      9  C   UNL     1      -7.423  -5.629  19.306  0.00  0.00    +0.000 A 
ATOM     10  C   UNL     1      -6.160  -6.255  19.449  0.00  0.00    +0.000 A 
ATOM     11  C   UNL     1      -5.096  -5.592  20.048  0.00  0.00    +0.000 A 
ATOM     12  C   UNL     1      -5.265  -4.305  20.518  0.00  0.00    +0.000 A 
ATOM     13  C   UNL     1      -6.488  -3.662  20.396  0.00  0.00    +0.000 A 
ATOM     14  C   UNL     1      -7.579  -4.299  19.779  0.00  0.00    +0.000 A 
ATOM     15  N   UNL     1      -8.838  -3.628  19.618  0.00  0.00    +0.000 N 
ATOM     16  H   UNL     1     -11.843  -5.696  17.839  0.00  0.00    +0.000 HD
ATOM     17  H   UNL     1      -7.648  -8.285  18.363  0.00  0.00    +0.000 HD
ATOM     18  H   UNL     1      -5.996  -7.266  19.093  0.00  0.00    +0.000 HD
ATOM     19  H   UNL     1      -6.543  -2.661  20.798  0.00  0.00    +0.000 HD
ENDROOT
BRANCH  15  20
ATOM     20  C   UNL     1      -9.035  -2.245  20.078  0.00  0.00    +0.000 C 
ATOM     21  H   UNL     1      -9.918  -1.813  19.592  0.00  0.00    +0.000 HD
ATOM     22  H   UNL     1      -8.205  -1.617  19.728  0.00  0.00    +0.000 HD
BRANCH  20  23
ATOM     23  C   UNL     1      -9.105  -2.125  21.588  0.00  0.00    +0.000 A 
ATOM     24  C   UNL     1      -8.002  -1.659  22.317  0.00  0.00    +0.000 A 
ATOM     25  C   UNL     1      -8.021  -1.642  23.713  0.00  0.00    +0.000 A 
ATOM     26  C   UNL     1      -9.152  -2.079  24.405  0.00  0.00    +0.000 A 
ATOM     27 CL   UNL     1      -9.082  -2.098  26.131  0.00  0.00    +0.000 Cl
ATOM     28  C   UNL     1     -10.281  -2.491  23.693  0.00  0.00    +0.000 A 
ATOM     29 CL   UNL     1     -11.729  -3.020  24.476  0.00  0.00    +0.000 Cl
ATOM     30  C   UNL     1     -10.260  -2.500  22.293  0.00  0.00    +0.000 A 
ATOM     31  H   UNL     1      -7.106  -1.317  21.800  0.00  0.00    +0.000 HD
ATOM     32  H   UNL     1      -7.141  -1.299  24.253  0.00  0.00    +0.000 HD
ATOM     33  H   UNL     1     -11.149  -2.821  21.756  0.00  0.00    +0.000 HD
ENDBRANCH  20  23
ENDBRANCH  15  20
BRANCH   5  34
ATOM     34  O   UNL     1     -11.907  -8.235  17.000  0.00  0.00    +0.000 OA
ATOM     35  H   UNL     1     -11.685  -8.463  16.080  0.00  0.00    +0.000 HD
ENDBRANCH   5  34
BRANCH   6  36
ATOM     36  O   UNL     1      -9.577  -9.583  17.315  0.00  0.00    +0.000 OA
ATOM     37  H   UNL     1     -10.399  -9.742  16.808  0.00  0.00    +0.000 HD
ENDBRANCH   6  36
BRANCH  11  38
ATOM     38  O   UNL     1      -3.869  -6.172  20.201  0.00  0.00    +0.000 OA
ATOM     39  H   UNL     1      -3.975  -7.139  20.189  0.00  0.00    +0.000 HD
ENDBRANCH  11  38
BRANCH  12  40
ATOM     40  O   UNL     1      -4.225  -3.647  21.109  0.00  0.00    +0.000 OA
ATOM     41  H   UNL     1      -3.867  -4.282  21.763  0.00  0.00    +0.000 HD
ENDBRANCH  12  40
TORSDOF 6
ENDMDL
MODEL 4
REMARK VINA RESULT:    -8.568      3.480      5.007
REMARK INTER + INTRA:         -11.022
REMARK INTER:                 -10.616
REMARK INTRA:                  -0.406
REMARK UNBOUND:                -0.450
REMARK  Name = 
REMARK  6 active torsions:
REMARK  status: ('A' for Active; 'I' for Inactive)
REMARK    1  A    between atoms: C_5  and  O_6
REMARK    2  A    between atoms: C_7  and  O_8
REMARK    3  A    between atoms: C_13  and  O_14
REMARK    4  A    between atoms: C_15  and  O_16
REMARK    5  A    between atoms: N_19  and  C_20
REMARK    6  A    between atoms: C_20  and  C_21
REMARK                            x       y       z     vdW  Elec       q    Type
REMARK                         _______ _______ _______ _____ _____    ______ ____
ROOT
ATOM      1  O   UNL     1      -7.673  -5.950  19.900  0.00  0.00    +0.000 OA
ATOM      2  C   UNL     1      -8.544  -5.428  19.206  0.00  0.00    +0.000 A 
ATOM      3  C   UNL     1      -9.358  -6.310  18.335  0.00  0.00    +0.000 A 
ATOM      4  C   UNL     1      -9.042  -7.684  18.312  0.00  0.00    +0.000 A 
ATOM      5  C   UNL     1      -9.752  -8.533  17.484  0.00  0.00    +0.000 A 
ATOM      6  C   UNL     1     -10.772  -8.026  16.694  0.00  0.00    +0.000 A 
ATOM      7  C   UNL     1     -11.092  -6.672  16.719  0.00  0.00    +0.000 A 
ATOM      8  C   UNL     1     -10.391  -5.773  17.548  0.00  0.00    +0.000 A 
ATOM      9  C   UNL     1     -10.671  -4.323  17.607  0.00  0.00    +0.000 A 
ATOM     10  C   UNL     1     -11.733  -3.737  16.875  0.00  0.00    +0.000 A 
ATOM     11  C   UNL     1     -11.970  -2.370  16.927  0.00  0.00    +0.000 A 
ATOM     12  C   UNL     1     -11.161  -1.561  17.700  0.00  0.00    +0.000 A 
ATOM     13  C   UNL     1     -10.112  -2.100  18.429  0.00  0.00    +0.000 A 
ATOM     14  C   UNL     1      -9.857  -3.482  18.411  0.00  0.00    +0.000 A 
ATOM     15  N   UNL     1      -8.793  -4.053  19.190  0.00  0.00    +0.000 N 
ATOM     16  H   UNL     1      -8.236  -8.064  18.936  0.00  0.00    +0.000 HD
ATOM     17  H   UNL     1     -11.896  -6.351  16.064  0.00  0.00    +0.000 HD
ATOM     18  H   UNL     1     -12.385  -4.345  16.256  0.00  0.00    +0.000 HD
ATOM     19  H   UNL     1      -9.518  -1.400  19.000  0.00  0.00    +0.000 HD
ENDROOT
BRANCH  15  20
ATOM     20  C   UNL     1      -7.938  -3.220  20.048  0.00  0.00    +0.000 C 
ATOM     21  H   UNL     1      -7.743  -2.258  19.560  0.00  0.00    +0.000 HD
ATOM     22  H   UNL     1      -6.945  -3.679  20.139  0.00  0.00    +0.000 HD
BRANCH  20  23
ATOM     23  C   UNL     1      -8.496  -3.040  21.447  0.00  0.00    +0.000 A 
ATOM     24  C   UNL     1      -9.549  -2.145  21.684  0.00  0.00    +0.000 A 
ATOM     25  C   UNL     1      -9.999  -1.897  22.982  0.00  0.00    +0.000 A 
ATOM     26  C   UNL     1      -9.411  -2.551  24.066  0.00  0.00    +0.000 A 
ATOM     27 CL   UNL     1      -9.968  -2.144  25.650  0.00  0.00    +0.000 Cl
ATOM     28  C   UNL     1      -8.401  -3.488  23.842  0.00  0.00    +0.000 A 
ATOM     29 CL   UNL     1      -7.642  -4.359  25.129  0.00  0.00    +0.000 Cl
ATOM     30  C   UNL     1      -7.956  -3.740  22.538  0.00  0.00    +0.000 A 
ATOM     31  H   UNL     1     -10.021  -1.619  20.856  0.00  0.00    +0.000 HD
ATOM     32  H   UNL     1     -10.801  -1.179  23.139  0.00  0.00    +0.000 HD
ATOM     33  H   UNL     1      -7.171  -4.475  22.382  0.00  0.00    +0.000 HD
ENDBRANCH  20  23
ENDBRANCH  15  20
BRANCH   5  34
ATOM     34  O   UNL     1      -9.484  -9.870  17.406  0.00  0.00    +0.000 OA
ATOM     35  H   UNL     1     -10.275 -10.321  17.061  0.00  0.00    +0.000 HD
ENDBRANCH   5  34
BRANCH   6  36
ATOM     36  O   UNL     1     -11.475  -8.859  15.869  0.00  0.00    +0.000 OA
ATOM     37  H   UNL     1     -10.989  -9.707  15.900  0.00  0.00    +0.000 HD
ENDBRANCH   6  36
BRANCH  11  38
ATOM     38  O   UNL     1     -12.985  -1.778  16.229  0.00  0.00    +0.000 OA
ATOM     39  H   UNL     1     -13.834  -2.073  16.600  0.00  0.00    +0.000 HD
ENDBRANCH  11  38
BRANCH  12  40
ATOM     40  O   UNL     1     -11.387  -0.215  17.755  0.00  0.00    +0.000 OA
ATOM     41  H   UNL     1     -12.353  -0.129  17.884  0.00  0.00    +0.000 HD
ENDBRANCH  12  40
TORSDOF 6
ENDMDL
MODEL 5
REMARK VINA RESULT:    -8.462      4.413      6.759
REMARK INTER + INTRA:         -10.891
REMARK INTER:                 -10.404
REMARK INTRA:                  -0.487
REMARK UNBOUND:                -0.450
REMARK  Name = 
REMARK  6 active torsions:
REMARK  status: ('A' for Active; 'I' for Inactive)
REMARK    1  A    between atoms: C_5  and  O_6
REMARK    2  A    between atoms: C_7  and  O_8
REMARK    3  A    between atoms: C_13  and  O_14
REMARK    4  A    between atoms: C_15  and  O_16
REMARK    5  A    between atoms: N_19  and  C_20
REMARK    6  A    between atoms: C_20  and  C_21
REMARK                            x       y       z     vdW  Elec       q    Type
REMARK                         _______ _______ _______ _____ _____    ______ ____
ROOT
ATOM      1  O   UNL     1      -9.408  -2.887  19.943  0.00  0.00    +0.000 OA
ATOM      2  C   UNL     1      -9.177  -3.957  19.382  0.00  0.00    +0.000 A 
ATOM      3  C   UNL     1      -7.831  -4.555  19.554  0.00  0.00    +0.000 A 
ATOM      4  C   UNL     1      -6.880  -3.829  20.300  0.00  0.00    +0.000 A 
ATOM      5  C   UNL     1      -5.602  -4.333  20.453  0.00  0.00    +0.000 A 
ATOM      6  C   UNL     1      -5.273  -5.550  19.877  0.00  0.00    +0.000 A 
ATOM      7  C   UNL     1      -6.210  -6.274  19.145  0.00  0.00    +0.000 A 
ATOM      8  C   UNL     1      -7.523  -5.794  18.966  0.00  0.00    +0.000 A 
ATOM      9  C   UNL     1      -8.558  -6.506  18.187  0.00  0.00    +0.000 A 
ATOM     10  C   UNL     1      -8.318  -7.780  17.617  0.00  0.00    +0.000 A 
ATOM     11  C   UNL     1      -9.295  -8.426  16.871  0.00  0.00    +0.000 A 
ATOM     12  C   UNL     1     -10.522  -7.823  16.676  0.00  0.00    +0.000 A 
ATOM     13  C   UNL     1     -10.791  -6.576  17.218  0.00  0.00    +0.000 A 
ATOM     14  C   UNL     1      -9.829  -5.903  17.992  0.00  0.00    +0.000 A 
ATOM     15  N   UNL     1     -10.112  -4.626  18.586  0.00  0.00    +0.000 N 
ATOM     16  H   UNL     1      -7.155  -2.874  20.742  0.00  0.00    +0.000 HD
ATOM     17  H   UNL     1      -5.872  -7.213  18.718  0.00  0.00    +0.000 HD
ATOM     18  H   UNL     1      -7.364  -8.279  17.750  0.00  0.00    +0.000 HD
ATOM     19  H   UNL     1     -11.769  -6.166  17.011  0.00  0.00    +0.000 HD
ENDROOT
BRANCH  15  20
ATOM     20  C   UNL     1     -11.420  -3.977  18.423  0.00  0.00    +0.000 C 
ATOM     21  H   UNL     1     -11.694  -3.451  19.344  0.00  0.00    +0.000 HD
ATOM     22  H   UNL     1     -12.202  -4.741  18.311  0.00  0.00    +0.000 HD
BRANCH  20  23
ATOM     23  C   UNL     1     -11.486  -3.066  17.212  0.00  0.00    +0.000 A 
ATOM     24  C   UNL     1     -11.486  -1.673  17.368  0.00  0.00    +0.000 A 
ATOM     25  C   UNL     1     -11.648  -0.828  16.268  0.00  0.00    +0.000 A 
ATOM     26  C   UNL     1     -11.802  -1.365  14.989  0.00  0.00    +0.000 A 
ATOM     27 CL   UNL     1     -12.070  -0.266  13.682  0.00  0.00    +0.000 Cl
ATOM     28  C   UNL     1     -11.745  -2.748  14.808  0.00  0.00    +0.000 A 
ATOM     29 CL   UNL     1     -11.899  -3.488  13.253  0.00  0.00    +0.000 Cl
ATOM     30  C   UNL     1     -11.575  -3.592  15.913  0.00  0.00    +0.000 A 
ATOM     31  H   UNL     1     -11.373  -1.230  18.357  0.00  0.00    +0.000 HD
ATOM     32  H   UNL     1     -11.670   0.248  16.422  0.00  0.00    +0.000 HD
ATOM     33  H   UNL     1     -11.530  -4.666  15.753  0.00  0.00    +0.000 HD
ENDBRANCH  20  23
ENDBRANCH  15  20
BRANCH   5  34
ATOM     34  O   UNL     1      -4.634  -3.670  21.150  0.00  0.00    +0.000 OA
ATOM     35  H   UNL     1      -5.029  -3.327  21.971  0.00  0.00    +0.000 HD
ENDBRANCH   5  34
BRANCH   6  36
ATOM     36  O   UNL     1      -4.010  -6.053  20.018  0.00  0.00    +0.000 OA
ATOM     37  H   UNL     1      -3.961  -6.344  20.951  0.00  0.00    +0.000 HD
ENDBRANCH   6  36
BRANCH  11  38
ATOM     38  O   UNL     1      -9.091  -9.654  16.307  0.00  0.00    +0.000 OA
ATOM     39  H   UNL     1      -9.873  -9.891  15.780  0.00  0.00    +0.000 HD
ENDBRANCH  11  38
BRANCH  12  40
ATOM     40  O   UNL     1     -11.487  -8.451  15.943  0.00  0.00    +0.000 OA
ATOM     41  H   UNL     1     -11.572  -7.916  15.128  0.00  0.00    +0.000 HD
ENDBRANCH  12  40
TORSDOF 6
ENDMDL
MODEL 6
REMARK VINA RESULT:    -8.196      4.143      7.123
REMARK INTER + INTRA:         -10.564
REMARK INTER:                 -10.527
REMARK INTRA:                  -0.037
REMARK UNBOUND:                -0.450
REMARK  Name = 
REMARK  6 active torsions:
REMARK  status: ('A' for Active; 'I' for Inactive)
REMARK    1  A    between atoms: C_5  and  O_6
REMARK    2  A    between atoms: C_7  and  O_8
REMARK    3  A    between atoms: C_13  and  O_14
REMARK    4  A    between atoms: C_15  and  O_16
REMARK    5  A    between atoms: N_19  and  C_20
REMARK    6  A    between atoms: C_20  and  C_21
REMARK                            x       y       z     vdW  Elec       q    Type
REMARK                         _______ _______ _______ _____ _____    ______ ____
ROOT
ATOM      1  O   UNL     1      -6.633  -7.092  17.195  0.00  0.00    +0.000 OA
ATOM      2  C   UNL     1      -7.343  -6.280  17.787  0.00  0.00    +0.000 A 
ATOM      3  C   UNL     1      -6.727  -5.486  18.877  0.00  0.00    +0.000 A 
ATOM      4  C   UNL     1      -5.382  -5.754  19.208  0.00  0.00    +0.000 A 
ATOM      5  C   UNL     1      -4.783  -5.062  20.243  0.00  0.00    +0.000 A 
ATOM      6  C   UNL     1      -5.507  -4.107  20.939  0.00  0.00    +0.000 A 
ATOM      7  C   UNL     1      -6.832  -3.833  20.612  0.00  0.00    +0.000 A 
ATOM      8  C   UNL     1      -7.480  -4.518  19.564  0.00  0.00    +0.000 A 
ATOM      9  C   UNL     1      -8.888  -4.285  19.179  0.00  0.00    +0.000 A 
ATOM     10  C   UNL     1      -9.677  -3.287  19.802  0.00  0.00    +0.000 A 
ATOM     11  C   UNL     1     -11.005  -3.096  19.442  0.00  0.00    +0.000 A 
ATOM     12  C   UNL     1     -11.573  -3.888  18.464  0.00  0.00    +0.000 A 
ATOM     13  C   UNL     1     -10.830  -4.875  17.834  0.00  0.00    +0.000 A 
ATOM     14  C   UNL     1      -9.480  -5.082  18.163  0.00  0.00    +0.000 A 
ATOM     15  N   UNL     1      -8.694  -6.080  17.492  0.00  0.00    +0.000 N 
ATOM     16  H   UNL     1      -4.830  -6.509  18.654  0.00  0.00    +0.000 HD
ATOM     17  H   UNL     1      -7.334  -3.079  21.210  0.00  0.00    +0.000 HD
ATOM     18  H   UNL     1      -9.261  -2.651  20.576  0.00  0.00    +0.000 HD
ATOM     19  H   UNL     1     -11.349  -5.460  17.088  0.00  0.00    +0.000 HD
ENDROOT
BRANCH  15  20
ATOM     20  C   UNL     1      -9.264  -6.914  16.423  0.00  0.00    +0.000 C 
ATOM     21  H   UNL     1      -8.776  -6.683  15.470  0.00  0.00    +0.000 HD
ATOM     22  H   UNL     1     -10.314  -6.638  16.258  0.00  0.00    +0.000 HD
BRANCH  20  23
ATOM     23  C   UNL     1      -9.217  -8.397  16.737  0.00  0.00    +0.000 A 
ATOM     24  C   UNL     1      -9.252  -8.845  18.065  0.00  0.00    +0.000 A 
ATOM     25  C   UNL     1      -9.107 -10.200  18.368  0.00  0.00    +0.000 A 
ATOM     26  C   UNL     1      -8.937 -11.133  17.345  0.00  0.00    +0.000 A 
ATOM     27 CL   UNL     1      -8.692 -12.784  17.793  0.00  0.00    +0.000 Cl
ATOM     28  C   UNL     1      -8.959 -10.711  16.013  0.00  0.00    +0.000 A 
ATOM     29 CL   UNL     1      -8.783 -11.808  14.689  0.00  0.00    +0.000 Cl
ATOM     30  C   UNL     1      -9.112  -9.352  15.713  0.00  0.00    +0.000 A 
ATOM     31  H   UNL     1      -9.378  -8.135  18.882  0.00  0.00    +0.000 HD
ATOM     32  H   UNL     1      -9.112 -10.516  19.409  0.00  0.00    +0.000 HD
ATOM     33  H   UNL     1      -9.129  -9.041  14.671  0.00  0.00    +0.000 HD
ENDBRANCH  20  23
ENDBRANCH  15  20
BRANCH   5  34
ATOM     34  O   UNL     1      -3.490  -5.288  20.620  0.00  0.00    +0.000 OA
ATOM     35  H   UNL     1      -3.276  -6.220  20.437  0.00  0.00    +0.000 HD
ENDBRANCH   5  34
BRANCH   6  36
ATOM     36  O   UNL     1      -4.924  -3.423  21.968  0.00  0.00    +0.000 OA
ATOM     37  H   UNL     1      -4.007  -3.258  21.668  0.00  0.00    +0.000 HD
ENDBRANCH   6  36
BRANCH  11  38
ATOM     38  O   UNL     1     -11.790  -2.143  20.028  0.00  0.00    +0.000 OA
ATOM     39  H   UNL     1     -11.741  -2.248  20.994  0.00  0.00    +0.000 HD
ENDBRANCH  11  38
BRANCH  12  40
ATOM     40  O   UNL     1     -12.878  -3.707  18.105  0.00  0.00    +0.000 OA
ATOM     41  H   UNL     1     -13.124  -4.528  17.633  0.00  0.00    +0.000 HD
ENDBRANCH  12  40
TORSDOF 6
ENDMDL
MODEL 7
REMARK VINA RESULT:    -8.191      3.486      5.291
REMARK INTER + INTRA:         -10.556
REMARK INTER:                  -9.992
REMARK INTRA:                  -0.564
REMARK UNBOUND:                -0.450
REMARK  Name = 
REMARK  6 active torsions:
REMARK  status: ('A' for Active; 'I' for Inactive)
REMARK    1  A    between atoms: C_5  and  O_6
REMARK    2  A    between atoms: C_7  and  O_8
REMARK    3  A    between atoms: C_13  and  O_14
REMARK    4  A    between atoms: C_15  and  O_16
REMARK    5  A    between atoms: N_19  and  C_20
REMARK    6  A    between atoms: C_20  and  C_21
REMARK                            x       y       z     vdW  Elec       q    Type
REMARK                         _______ _______ _______ _____ _____    ______ ____
ROOT
ATOM      1  O   UNL     1     -11.534  -8.182  15.772  0.00  0.00    +0.000 OA
ATOM      2  C   UNL     1     -10.800  -7.790  16.678  0.00  0.00    +0.000 A 
ATOM      3  C   UNL     1      -9.928  -8.787  17.345  0.00  0.00    +0.000 A 
ATOM      4  C   UNL     1     -10.039 -10.133  16.940  0.00  0.00    +0.000 A 
ATOM      5  C   UNL     1      -9.271 -11.099  17.563  0.00  0.00    +0.000 A 
ATOM      6  C   UNL     1      -8.395 -10.732  18.572  0.00  0.00    +0.000 A 
ATOM      7  C   UNL     1      -8.277  -9.403  18.971  0.00  0.00    +0.000 A 
ATOM      8  C   UNL     1      -9.043  -8.389  18.362  0.00  0.00    +0.000 A 
ATOM      9  C   UNL     1      -8.976  -6.965  18.751  0.00  0.00    +0.000 A 
ATOM     10  C   UNL     1      -8.066  -6.501  19.732  0.00  0.00    +0.000 A 
ATOM     11  C   UNL     1      -8.030  -5.162  20.100  0.00  0.00    +0.000 A 
ATOM     12  C   UNL     1      -8.893  -4.263  19.505  0.00  0.00    +0.000 A 
ATOM     13  C   UNL     1      -9.797  -4.682  18.542  0.00  0.00    +0.000 A 
ATOM     14  C   UNL     1      -9.847  -6.026  18.136  0.00  0.00    +0.000 A 
ATOM     15  N   UNL     1     -10.758  -6.462  17.114  0.00  0.00    +0.000 N 
ATOM     16  H   UNL     1     -10.734 -10.404  16.148  0.00  0.00    +0.000 HD
ATOM     17  H   UNL     1      -7.577  -9.198  19.775  0.00  0.00    +0.000 HD
ATOM     18  H   UNL     1      -7.377  -7.183  20.219  0.00  0.00    +0.000 HD
ATOM     19  H   UNL     1     -10.446  -3.920  18.133  0.00  0.00    +0.000 HD
ENDROOT
BRANCH  15  20
ATOM     20  C   UNL     1     -11.664  -5.520  16.441  0.00  0.00    +0.000 C 
ATOM     21  H   UNL     1     -12.222  -4.942  17.186  0.00  0.00    +0.000 HD
ATOM     22  H   UNL     1     -12.441  -6.077  15.899  0.00  0.00    +0.000 HD
BRANCH  20  23
ATOM     23  C   UNL     1     -10.955  -4.623  15.444  0.00  0.00    +0.000 A 
ATOM     24  C   UNL     1      -9.968  -5.143  14.594  0.00  0.00    +0.000 A 
ATOM     25  C   UNL     1      -9.240  -4.307  13.746  0.00  0.00    +0.000 A 
ATOM     26  C   UNL     1      -9.495  -2.934  13.725  0.00  0.00    +0.000 A 
ATOM     27 CL   UNL     1      -8.509  -1.948  12.706  0.00  0.00    +0.000 Cl
ATOM     28  C   UNL     1     -10.514  -2.408  14.523  0.00  0.00    +0.000 A 
ATOM     29 CL   UNL     1     -10.909  -0.726  14.533  0.00  0.00    +0.000 Cl
ATOM     30  C   UNL     1     -11.248  -3.252  15.367  0.00  0.00    +0.000 A 
ATOM     31  H   UNL     1      -9.747  -6.210  14.595  0.00  0.00    +0.000 HD
ATOM     32  H   UNL     1      -8.463  -4.733  13.116  0.00  0.00    +0.000 HD
ATOM     33  H   UNL     1     -12.039  -2.826  15.978  0.00  0.00    +0.000 HD
ENDBRANCH  20  23
ENDBRANCH  15  20
BRANCH   5  34
ATOM     34  O   UNL     1      -9.345 -12.420  17.226  0.00  0.00    +0.000 OA
ATOM     35  H   UNL     1      -8.468 -12.704  16.910  0.00  0.00    +0.000 HD
ENDBRANCH   5  34
BRANCH   6  36
ATOM     36  O   UNL     1      -7.637 -11.681  19.197  0.00  0.00    +0.000 OA
ATOM     37  H   UNL     1      -7.063 -11.178  19.809  0.00  0.00    +0.000 HD
ENDBRANCH   6  36
BRANCH  11  38
ATOM     38  O   UNL     1      -7.165  -4.688  21.045  0.00  0.00    +0.000 OA
ATOM     39  H   UNL     1      -7.661  -4.137  21.675  0.00  0.00    +0.000 HD
ENDBRANCH  11  38
BRANCH  12  40
ATOM     40  O   UNL     1      -8.865  -2.945  19.862  0.00  0.00    +0.000 OA
ATOM     41  H   UNL     1      -9.411  -2.492  19.189  0.00  0.00    +0.000 HD
ENDBRANCH  12  40
TORSDOF 6
ENDMDL
MODEL 8
REMARK VINA RESULT:    -8.143      4.624      7.539
REMARK INTER + INTRA:         -10.497
REMARK INTER:                  -9.867
REMARK INTRA:                  -0.631
REMARK UNBOUND:                -0.450
REMARK  Name = 
REMARK  6 active torsions:
REMARK  status: ('A' for Active; 'I' for Inactive)
REMARK    1  A    between atoms: C_5  and  O_6
REMARK    2  A    between atoms: C_7  and  O_8
REMARK    3  A    between atoms: C_13  and  O_14
REMARK    4  A    between atoms: C_15  and  O_16
REMARK    5  A    between atoms: N_19  and  C_20
REMARK    6  A    between atoms: C_20  and  C_21
REMARK                            x       y       z     vdW  Elec       q    Type
REMARK                         _______ _______ _______ _____ _____    ______ ____
ROOT
ATOM      1  O   UNL     1     -10.997  -1.944  19.202  0.00  0.00    +0.000 OA
ATOM      2  C   UNL     1     -10.516  -3.053  18.976  0.00  0.00    +0.000 A 
ATOM      3  C   UNL     1      -9.296  -3.445  19.722  0.00  0.00    +0.000 A 
ATOM      4  C   UNL     1      -8.729  -2.498  20.599  0.00  0.00    +0.000 A 
ATOM      5  C   UNL     1      -7.570  -2.810  21.285  0.00  0.00    +0.000 A 
ATOM      6  C   UNL     1      -6.984  -4.054  21.109  0.00  0.00    +0.000 A 
ATOM      7  C   UNL     1      -7.544  -4.995  20.250  0.00  0.00    +0.000 A 
ATOM      8  C   UNL     1      -8.724  -4.715  19.532  0.00  0.00    +0.000 A 
ATOM      9  C   UNL     1      -9.358  -5.664  18.593  0.00  0.00    +0.000 A 
ATOM     10  C   UNL     1      -8.853  -6.974  18.402  0.00  0.00    +0.000 A 
ATOM     11  C   UNL     1      -9.450  -7.847  17.501  0.00  0.00    +0.000 A 
ATOM     12  C   UNL     1     -10.551  -7.438  16.774  0.00  0.00    +0.000 A 
ATOM     13  C   UNL     1     -11.071  -6.163  16.935  0.00  0.00    +0.000 A 
ATOM     14  C   UNL     1     -10.500  -5.262  17.852  0.00  0.00    +0.000 A 
ATOM     15  N   UNL     1     -11.053  -3.951  18.049  0.00  0.00    +0.000 N 
ATOM     16  H   UNL     1      -9.200  -1.525  20.722  0.00  0.00    +0.000 HD
ATOM     17  H   UNL     1      -7.020  -5.942  20.159  0.00  0.00    +0.000 HD
ATOM     18  H   UNL     1      -7.988  -7.324  18.955  0.00  0.00    +0.000 HD
ATOM     19  H   UNL     1     -11.925  -5.915  16.323  0.00  0.00    +0.000 HD
ENDROOT
BRANCH  15  20
ATOM     20  C   UNL     1     -12.245  -3.502  17.314  0.00  0.00    +0.000 C 
ATOM     21  H   UNL     1     -12.945  -3.014  18.001  0.00  0.00    +0.000 HD
ATOM     22  H   UNL     1     -12.801  -4.374  16.943  0.00  0.00    +0.000 HD
BRANCH  20  23
ATOM     23  C   UNL     1     -11.913  -2.621  16.124  0.00  0.00    +0.000 A 
ATOM     24  C   UNL     1     -12.730  -1.530  15.797  0.00  0.00    +0.000 A 
ATOM     25  C   UNL     1     -12.492  -0.777  14.646  0.00  0.00    +0.000 A 
ATOM     26  C   UNL     1     -11.422  -1.095  13.808  0.00  0.00    +0.000 A 
ATOM     27 CL   UNL     1     -11.227  -0.167  12.364  0.00  0.00    +0.000 Cl
ATOM     28  C   UNL     1     -10.564  -2.143  14.150  0.00  0.00    +0.000 A 
ATOM     29 CL   UNL     1      -9.202  -2.581  13.180  0.00  0.00    +0.000 Cl
ATOM     30  C   UNL     1     -10.802  -2.892  15.310  0.00  0.00    +0.000 A 
ATOM     31  H   UNL     1     -13.574  -1.265  16.432  0.00  0.00    +0.000 HD
ATOM     32  H   UNL     1     -13.157   0.049  14.403  0.00  0.00    +0.000 HD
ATOM     33  H   UNL     1     -10.122  -3.702  15.562  0.00  0.00    +0.000 HD
ENDBRANCH  20  23
ENDBRANCH  15  20
BRANCH   5  34
ATOM     34  O   UNL     1      -6.965  -1.930  22.136  0.00  0.00    +0.000 OA
ATOM     35  H   UNL     1      -6.556  -2.437  22.860  0.00  0.00    +0.000 HD
ENDBRANCH   5  34
BRANCH   6  36
ATOM     36  O   UNL     1      -5.835  -4.368  21.778  0.00  0.00    +0.000 OA
ATOM     37  H   UNL     1      -5.119  -3.966  21.246  0.00  0.00    +0.000 HD
ENDBRANCH   6  36
BRANCH  11  38
ATOM     38  O   UNL     1      -8.983  -9.114  17.294  0.00  0.00    +0.000 OA
ATOM     39  H   UNL     1      -9.047  -9.611  18.128  0.00  0.00    +0.000 HD
ENDBRANCH  11  38
BRANCH  12  40
ATOM     40  O   UNL     1     -11.142  -8.289  15.886  0.00  0.00    +0.000 OA
ATOM     41  H   UNL     1     -11.576  -7.706  15.231  0.00  0.00    +0.000 HD
ENDBRANCH  12  40
TORSDOF 6
ENDMDL
MODEL 9
REMARK VINA RESULT:    -8.053      4.685      7.714
REMARK INTER + INTRA:         -10.387
REMARK INTER:                  -9.826
REMARK INTRA:                  -0.561
REMARK UNBOUND:                -0.450
REMARK  Name = 
REMARK  6 active torsions:
REMARK  status: ('A' for Active; 'I' for Inactive)
REMARK    1  A    between atoms: C_5  and  O_6
REMARK    2  A    between atoms: C_7  and  O_8
REMARK    3  A    between atoms: C_13  and  O_14
REMARK    4  A    between atoms: C_15  and  O_16
REMARK    5  A    between atoms: N_19  and  C_20
REMARK    6  A    between atoms: C_20  and  C_21
REMARK                            x       y       z     vdW  Elec       q    Type
REMARK                         _______ _______ _______ _____ _____    ______ ____
ROOT
ATOM      1  O   UNL     1     -11.031  -1.955  18.098  0.00  0.00    +0.000 OA
ATOM      2  C   UNL     1     -10.541  -3.083  18.099  0.00  0.00    +0.000 A 
ATOM      3  C   UNL     1      -9.521  -3.396  19.129  0.00  0.00    +0.000 A 
ATOM      4  C   UNL     1      -9.132  -2.361  20.005  0.00  0.00    +0.000 A 
ATOM      5  C   UNL     1      -8.156  -2.601  20.954  0.00  0.00    +0.000 A 
ATOM      6  C   UNL     1      -7.578  -3.857  21.040  0.00  0.00    +0.000 A 
ATOM      7  C   UNL     1      -7.963  -4.884  20.183  0.00  0.00    +0.000 A 
ATOM      8  C   UNL     1      -8.953  -4.679  19.200  0.00  0.00    +0.000 A 
ATOM      9  C   UNL     1      -9.393  -5.723  18.251  0.00  0.00    +0.000 A 
ATOM     10  C   UNL     1      -8.893  -7.047  18.311  0.00  0.00    +0.000 A 
ATOM     11  C   UNL     1      -9.303  -8.009  17.398  0.00  0.00    +0.000 A 
ATOM     12  C   UNL     1     -10.211  -7.679  16.411  0.00  0.00    +0.000 A 
ATOM     13  C   UNL     1     -10.721  -6.392  16.322  0.00  0.00    +0.000 A 
ATOM     14  C   UNL     1     -10.339  -5.400  17.241  0.00  0.00    +0.000 A 
ATOM     15  N   UNL     1     -10.887  -4.074  17.176  0.00  0.00    +0.000 N 
ATOM     16  H   UNL     1      -9.594  -1.380  19.921  0.00  0.00    +0.000 HD
ATOM     17  H   UNL     1      -7.456  -5.836  20.307  0.00  0.00    +0.000 HD
ATOM     18  H   UNL     1      -8.177  -7.337  19.072  0.00  0.00    +0.000 HD
ATOM     19  H   UNL     1     -11.417  -6.210  15.515  0.00  0.00    +0.000 HD
ENDROOT
BRANCH  15  20
ATOM     20  C   UNL     1     -11.881  -3.704  16.157  0.00  0.00    +0.000 C 
ATOM     21  H   UNL     1     -12.544  -2.924  16.549  0.00  0.00    +0.000 HD
ATOM     22  H   UNL     1     -12.552  -4.553  15.969  0.00  0.00    +0.000 HD
BRANCH  20  23
ATOM     23  C   UNL     1     -11.256  -3.304  14.834  0.00  0.00    +0.000 A 
ATOM     24  C   UNL     1     -10.093  -2.522  14.804  0.00  0.00    +0.000 A 
ATOM     25  C   UNL     1      -9.569  -2.063  13.594  0.00  0.00    +0.000 A 
ATOM     26  C   UNL     1     -10.195  -2.391  12.389  0.00  0.00    +0.000 A 
ATOM     27 CL   UNL     1      -9.535  -1.732  10.935  0.00  0.00    +0.000 Cl
ATOM     28  C   UNL     1     -11.320  -3.218  12.398  0.00  0.00    +0.000 A 
ATOM     29 CL   UNL     1     -12.135  -3.691  10.948  0.00  0.00    +0.000 Cl
ATOM     30  C   UNL     1     -11.839  -3.681  13.614  0.00  0.00    +0.000 A 
ATOM     31  H   UNL     1      -9.589  -2.249  15.730  0.00  0.00    +0.000 HD
ATOM     32  H   UNL     1      -8.680  -1.437  13.601  0.00  0.00    +0.000 HD
ATOM     33  H   UNL     1     -12.714  -4.326  13.601  0.00  0.00    +0.000 HD
ENDBRANCH  20  23
ENDBRANCH  15  20
BRANCH   5  34
ATOM     34  O   UNL     1      -7.727  -1.636  21.819  0.00  0.00    +0.000 OA
ATOM     35  H   UNL     1      -7.729  -0.782  21.351  0.00  0.00    +0.000 HD
ENDBRANCH   5  34
BRANCH   6  36
ATOM     36  O   UNL     1      -6.608  -4.100  21.972  0.00  0.00    +0.000 OA
ATOM     37  H   UNL     1      -7.082  -4.516  22.721  0.00  0.00    +0.000 HD
ENDBRANCH   6  36
BRANCH  11  38
ATOM     38  O   UNL     1      -8.835  -9.293  17.430  0.00  0.00    +0.000 OA
ATOM     39  H   UNL     1      -9.353  -9.831  16.807  0.00  0.00    +0.000 HD
ENDBRANCH  11  38
BRANCH  12  40
ATOM     40  O   UNL     1     -10.618  -8.619  15.509  0.00  0.00    +0.000 OA
ATOM     41  H   UNL     1      -9.832  -8.788  14.951  0.00  0.00    +0.000 HD
ENDBRANCH  12  40
TORSDOF 6
ENDMDL
