MODEL 1
REMARK VINA RESULT:    -9.637      0.000      0.000
REMARK INTER + INTRA:         -15.883
REMARK INTER:                 -14.426
REMARK INTRA:                  -1.457
REMARK UNBOUND:                -1.457
REMARK  Name = 
REMARK  9 active torsions:
REMARK  status: ('A' for Active; 'I' for Inactive)
REMARK    1  A    between atoms: N_1  and  C_2
REMARK    2  A    between atoms: C_2  and  C_3
REMARK    3  A    between atoms: C_3  and  C_4
REMARK    4  A    between atoms: C_4  and  C_5
REMARK    5  A    between atoms: C_5  and  C_6
REMARK    6  A    between atoms: C_6  and  C_7
REMARK    7  A    between atoms: C_7  and  N_8
REMARK    8  A    between atoms: N_8  and  C_9
REMARK    9  A    between atoms: C_10  and  C_11
REMARK                            x       y       z     vdW  Elec       q    Type
REMARK                         _______ _______ _______ _____ _____    ______ ____
ROOT
ATOM      1  N   UNL     1      -8.830  -8.767  17.732  0.00  0.00    +0.000 N 
ATOM      2  H   UNL     1      -8.920  -9.262  16.839  0.00  0.00    +0.000 HD
ENDROOT
BRANCH   1   3
ATOM      3  C   UNL     1      -9.682  -7.669  17.729  0.00  0.00    +0.000 C 
ATOM      4  C   UNL     1      -9.561  -6.429  18.226  0.00  0.00    +0.000 C 
ATOM      5  C   UNL     1     -10.834  -5.711  18.000  0.00  0.00    +0.000 C 
ATOM      6  O   UNL     1     -11.126  -4.595  18.383  0.00  0.00    +0.000 OA
ATOM      7  N   UNL     1     -11.631  -6.540  17.290  0.00  0.00    +0.000 N 
ATOM      8  C   UNL     1     -11.028  -7.732  17.093  0.00  0.00    +0.000 C 
ATOM      9  O   UNL     1     -11.478  -8.709  16.521  0.00  0.00    +0.000 OA
ATOM     10  H   UNL     1     -12.561  -6.312  16.987  0.00  0.00    +0.000 HD
BRANCH   4  11
ATOM     11  C   UNL     1      -8.412  -5.884  18.825  0.00  0.00    +0.000 A 
ATOM     12  C   UNL     1      -7.061  -6.049  18.616  0.00  0.00    +0.000 A 
ATOM     13  C   UNL     1      -6.367  -5.314  19.613  0.00  0.00    +0.000 A 
ATOM     14  C   UNL     1      -5.004  -5.128  19.909  0.00  0.00    +0.000 A 
ATOM     15  C   UNL     1      -4.647  -4.335  21.002  0.00  0.00    +0.000 A 
ATOM     16  C   UNL     1      -5.623  -3.738  21.799  0.00  0.00    +0.000 A 
ATOM     17  C   UNL     1      -6.984  -3.913  21.526  0.00  0.00    +0.000 A 
ATOM     18  C   UNL     1      -7.324  -4.701  20.419  0.00  0.00    +0.000 A 
ATOM     19  N   UNL     1      -8.556  -5.040  19.908  0.00  0.00    +0.000 N 
ATOM     20  H   UNL     1      -6.615  -6.661  17.842  0.00  0.00    +0.000 HD
ATOM     21  H   UNL     1      -4.243  -5.604  19.299  0.00  0.00    +0.000 HD
ATOM     22  H   UNL     1      -3.595  -4.188  21.232  0.00  0.00    +0.000 HD
ATOM     23  H   UNL     1      -5.321  -3.129  22.647  0.00  0.00    +0.000 HD
ATOM     24  H   UNL     1      -7.741  -3.455  22.155  0.00  0.00    +0.000 HD
ATOM     25  H   UNL     1      -9.443  -4.734  20.286  0.00  0.00    +0.000 HD
ENDBRANCH   4  11
ENDBRANCH   1   3
BRANCH   1  26
ATOM     26  C   UNL     1      -8.852  -9.696  18.869  0.00  0.00    +0.000 C 
ATOM     27  H   UNL     1      -8.135  -9.353  19.621  0.00  0.00    +0.000 HD
ATOM     28  H   UNL     1      -9.842  -9.712  19.344  0.00  0.00    +0.000 HD
BRANCH  26  29
ATOM     29  C   UNL     1      -8.499 -11.112  18.417  0.00  0.00    +0.000 C 
ATOM     30  H   UNL     1      -7.431 -11.173  18.169  0.00  0.00    +0.000 HD
ATOM     31  H   UNL     1      -8.674 -11.821  19.237  0.00  0.00    +0.000 HD
BRANCH  29  32
ATOM     32  C   UNL     1      -9.339 -11.502  17.202  0.00  0.00    +0.000 C 
ATOM     33  H   UNL     1     -10.191 -12.109  17.527  0.00  0.00    +0.000 HD
ATOM     34  H   UNL     1      -9.748 -10.597  16.734  0.00  0.00    +0.000 HD
BRANCH  32  35
ATOM     35  C   UNL     1      -8.522 -12.280  16.173  0.00  0.00    +0.000 C 
ATOM     36  H   UNL     1      -7.571 -12.594  16.618  0.00  0.00    +0.000 HD
ATOM     37  H   UNL     1      -9.063 -13.188  15.884  0.00  0.00    +0.000 HD
BRANCH  35  38
ATOM     38  C   UNL     1      -8.253 -11.425  14.933  0.00  0.00    +0.000 C 
ATOM     39  H   UNL     1      -7.347 -10.824  15.091  0.00  0.00    +0.000 HD
ATOM     40  H   UNL     1      -8.057 -12.079  14.073  0.00  0.00    +0.000 HD
BRANCH  38  41
ATOM     41  C   UNL     1      -9.437 -10.510  14.635  0.00  0.00    +0.000 C 
ATOM     42  H   UNL     1      -9.977 -10.869  13.752  0.00  0.00    +0.000 HD
ATOM     43  H   UNL     1     -10.135 -10.514  15.478  0.00  0.00    +0.000 HD
BRANCH  41  44
ATOM     44  N   UNL     1      -8.977  -9.148  14.402  0.00  0.00    +0.000 NA
ATOM     45  H   UNL     1      -8.146  -8.971  14.965  0.00  0.00    +0.000 HD
ATOM     46  H   UNL     1      -9.684  -8.486  14.722  0.00  0.00    +0.000 HD
ENDBRANCH  41  44
ENDBRANCH  38  41
ENDBRANCH  35  38
ENDBRANCH  32  35
ENDBRANCH  29  32
ENDBRANCH  26  29
ENDBRANCH   1  26
TORSDOF 9
ENDMDL
MODEL 2
REMARK VINA RESULT:    -9.575      1.424      1.579
REMARK INTER + INTRA:         -15.790
REMARK INTER:                 -14.910
REMARK INTRA:                  -0.880
REMARK UNBOUND:                -1.457
REMARK  Name = 
REMARK  9 active torsions:
REMARK  status: ('A' for Active; 'I' for Inactive)
REMARK    1  A    between atoms: N_1  and  C_2
REMARK    2  A    between atoms: C_2  and  C_3
REMARK    3  A    between atoms: C_3  and  C_4
REMARK    4  A    between atoms: C_4  and  C_5
REMARK    5  A    between atoms: C_5  and  C_6
REMARK    6  A    between atoms: C_6  and  C_7
REMARK    7  A    between atoms: C_7  and  N_8
REMARK    8  A    between atoms: N_8  and  C_9
REMARK    9  A    between atoms: C_10  and  C_11
REMARK                            x       y       z     vdW  Elec       q    Type
REMARK                         _______ _______ _______ _____ _____    ______ ____
ROOT
ATOM      1  N   UNL     1      -8.839  -8.836  17.807  0.00  0.00    +0.000 N 
ATOM      2  H   UNL     1      -9.029  -9.445  17.005  0.00  0.00    +0.000 HD
ENDROOT
BRANCH   1   3
ATOM      3  C   UNL     1      -9.684  -7.734  17.751  0.00  0.00    +0.000 C 
ATOM      4  C   UNL     1      -9.562  -6.478  18.202  0.00  0.00    +0.000 C 
ATOM      5  C   UNL     1     -10.828  -5.762  17.932  0.00  0.00    +0.000 C 
ATOM      6  O   UNL     1     -11.118  -4.630  18.268  0.00  0.00    +0.000 OA
ATOM      7  N   UNL     1     -11.620  -6.613  17.243  0.00  0.00    +0.000 N 
ATOM      8  C   UNL     1     -11.022  -7.814  17.100  0.00  0.00    +0.000 C 
ATOM      9  O   UNL     1     -11.471  -8.809  16.560  0.00  0.00    +0.000 OA
ATOM     10  H   UNL     1     -12.545  -6.390  16.919  0.00  0.00    +0.000 HD
BRANCH   4  11
ATOM     11  C   UNL     1      -8.418  -5.916  18.796  0.00  0.00    +0.000 A 
ATOM     12  C   UNL     1      -7.066  -6.068  18.585  0.00  0.00    +0.000 A 
ATOM     13  C   UNL     1      -6.378  -5.320  19.576  0.00  0.00    +0.000 A 
ATOM     14  C   UNL     1      -5.016  -5.118  19.869  0.00  0.00    +0.000 A 
ATOM     15  C   UNL     1      -4.666  -4.314  20.956  0.00  0.00    +0.000 A 
ATOM     16  C   UNL     1      -5.647  -3.724  21.752  0.00  0.00    +0.000 A 
ATOM     17  C   UNL     1      -7.007  -3.915  21.483  0.00  0.00    +0.000 A 
ATOM     18  C   UNL     1      -7.340  -4.713  20.382  0.00  0.00    +0.000 A 
ATOM     19  N   UNL     1      -8.569  -5.068  19.875  0.00  0.00    +0.000 N 
ATOM     20  H   UNL     1      -6.615  -6.679  17.813  0.00  0.00    +0.000 HD
ATOM     21  H   UNL     1      -4.252  -5.588  19.260  0.00  0.00    +0.000 HD
ATOM     22  H   UNL     1      -3.615  -4.155  21.184  0.00  0.00    +0.000 HD
ATOM     23  H   UNL     1      -5.350  -3.107  22.596  0.00  0.00    +0.000 HD
ATOM     24  H   UNL     1      -7.767  -3.462  22.111  0.00  0.00    +0.000 HD
ATOM     25  H   UNL     1      -9.459  -4.770  20.253  0.00  0.00    +0.000 HD
ENDBRANCH   4  11
ENDBRANCH   1   3
BRANCH   1  26
ATOM     26  C   UNL     1      -8.736  -9.606  19.054  0.00  0.00    +0.000 C 
ATOM     27  H   UNL     1      -7.932  -9.183  19.666  0.00  0.00    +0.000 HD
ATOM     28  H   UNL     1      -9.663  -9.534  19.638  0.00  0.00    +0.000 HD
BRANCH  26  29
ATOM     29  C   UNL     1      -8.450 -11.077  18.761  0.00  0.00    +0.000 C 
ATOM     30  H   UNL     1      -7.374 -11.276  18.848  0.00  0.00    +0.000 HD
ATOM     31  H   UNL     1      -8.951 -11.711  19.503  0.00  0.00    +0.000 HD
BRANCH  29  32
ATOM     32  C   UNL     1      -8.934 -11.437  17.357  0.00  0.00    +0.000 C 
ATOM     33  H   UNL     1     -10.030 -11.399  17.328  0.00  0.00    +0.000 HD
ATOM     34  H   UNL     1      -8.568 -10.691  16.641  0.00  0.00    +0.000 HD
BRANCH  32  35
ATOM     35  C   UNL     1      -8.461 -12.824  16.931  0.00  0.00    +0.000 C 
ATOM     36  H   UNL     1      -7.447 -13.000  17.309  0.00  0.00    +0.000 HD
ATOM     37  H   UNL     1      -9.111 -13.587  17.375  0.00  0.00    +0.000 HD
BRANCH  35  38
ATOM     38  C   UNL     1      -8.474 -12.961  15.408  0.00  0.00    +0.000 C 
ATOM     39  H   UNL     1      -9.198 -12.253  14.983  0.00  0.00    +0.000 HD
ATOM     40  H   UNL     1      -7.488 -12.690  15.007  0.00  0.00    +0.000 HD
BRANCH  38  41
ATOM     41  C   UNL     1      -8.834 -14.384  14.991  0.00  0.00    +0.000 C 
ATOM     42  H   UNL     1      -9.802 -14.393  14.478  0.00  0.00    +0.000 HD
ATOM     43  H   UNL     1      -8.083 -14.772  14.296  0.00  0.00    +0.000 HD
BRANCH  41  44
ATOM     44  N   UNL     1      -8.896 -15.252  16.159  0.00  0.00    +0.000 NA
ATOM     45  H   UNL     1      -9.467 -16.068  15.943  0.00  0.00    +0.000 HD
ATOM     46  H   UNL     1      -9.369 -14.769  16.923  0.00  0.00    +0.000 HD
ENDBRANCH  41  44
ENDBRANCH  38  41
ENDBRANCH  35  38
ENDBRANCH  32  35
ENDBRANCH  29  32
ENDBRANCH  26  29
ENDBRANCH   1  26
TORSDOF 9
ENDMDL
MODEL 3
REMARK VINA RESULT:    -9.117      1.403      6.832
REMARK INTER + INTRA:         -15.104
REMARK INTER:                 -13.728
REMARK INTRA:                  -1.376
REMARK UNBOUND:                -1.457
REMARK  Name = 
REMARK  9 active torsions:
REMARK  status: ('A' for Active; 'I' for Inactive)
REMARK    1  A    between atoms: N_1  and  C_2
REMARK    2  A    between atoms: C_2  and  C_3
REMARK    3  A    between atoms: C_3  and  C_4
REMARK    4  A    between atoms: C_4  and  C_5
REMARK    5  A    between atoms: C_5  and  C_6
REMARK    6  A    between atoms: C_6  and  C_7
REMARK    7  A    between atoms: C_7  and  N_8
REMARK    8  A    between atoms: N_8  and  C_9
REMARK    9  A    between atoms: C_10  and  C_11
REMARK                            x       y       z     vdW  Elec       q    Type
REMARK                         _______ _______ _______ _____ _____    ______ ____
ROOT
ATOM      1  N   UNL     1      -8.444  -6.290  19.921  0.00  0.00    +0.000 N 
ATOM      2  H   UNL     1      -8.635  -5.566  20.621  0.00  0.00    +0.000 HD
ENDROOT
BRANCH   1   3
ATOM      3  C   UNL     1      -9.096  -5.962  18.739  0.00  0.00    +0.000 C 
ATOM      4  C   UNL     1      -9.446  -6.688  17.667  0.00  0.00    +0.000 C 
ATOM      5  C   UNL     1     -10.043  -5.780  16.664  0.00  0.00    +0.000 C 
ATOM      6  O   UNL     1     -10.405  -6.065  15.539  0.00  0.00    +0.000 OA
ATOM      7  N   UNL     1     -10.101  -4.555  17.231  0.00  0.00    +0.000 N 
ATOM      8  C   UNL     1      -9.549  -4.570  18.462  0.00  0.00    +0.000 C 
ATOM      9  O   UNL     1      -9.412  -3.632  19.228  0.00  0.00    +0.000 OA
ATOM     10  H   UNL     1     -10.469  -3.737  16.777  0.00  0.00    +0.000 HD
BRANCH   4  11
ATOM     11  C   UNL     1      -9.310  -8.081  17.528  0.00  0.00    +0.000 A 
ATOM     12  C   UNL     1      -9.102  -9.109  18.421  0.00  0.00    +0.000 A 
ATOM     13  C   UNL     1      -8.935 -10.309  17.679  0.00  0.00    +0.000 A 
ATOM     14  C   UNL     1      -8.678 -11.645  18.040  0.00  0.00    +0.000 A 
ATOM     15  C   UNL     1      -8.548 -12.607  17.036  0.00  0.00    +0.000 A 
ATOM     16  C   UNL     1      -8.662 -12.256  15.692  0.00  0.00    +0.000 A 
ATOM     17  C   UNL     1      -8.912 -10.933  15.310  0.00  0.00    +0.000 A 
ATOM     18  C   UNL     1      -9.051  -9.983  16.329  0.00  0.00    +0.000 A 
ATOM     19  N   UNL     1      -9.303  -8.632  16.263  0.00  0.00    +0.000 N 
ATOM     20  H   UNL     1      -9.047  -9.006  19.496  0.00  0.00    +0.000 HD
ATOM     21  H   UNL     1      -8.575 -11.917  19.084  0.00  0.00    +0.000 HD
ATOM     22  H   UNL     1      -8.352 -13.640  17.312  0.00  0.00    +0.000 HD
ATOM     23  H   UNL     1      -8.552 -13.022  14.929  0.00  0.00    +0.000 HD
ATOM     24  H   UNL     1      -8.989 -10.662  14.261  0.00  0.00    +0.000 HD
ATOM     25  H   UNL     1      -9.441  -8.111  15.407  0.00  0.00    +0.000 HD
ENDBRANCH   4  11
ENDBRANCH   1   3
BRANCH   1  26
ATOM     26  C   UNL     1      -7.019  -6.643  19.887  0.00  0.00    +0.000 C 
ATOM     27  H   UNL     1      -6.689  -6.886  20.902  0.00  0.00    +0.000 HD
ATOM     28  H   UNL     1      -6.849  -7.533  19.266  0.00  0.00    +0.000 HD
BRANCH  26  29
ATOM     29  C   UNL     1      -6.188  -5.488  19.330  0.00  0.00    +0.000 C 
ATOM     30  H   UNL     1      -5.932  -5.680  18.280  0.00  0.00    +0.000 HD
ATOM     31  H   UNL     1      -6.776  -4.561  19.348  0.00  0.00    +0.000 HD
BRANCH  29  32
ATOM     32  C   UNL     1      -4.914  -5.311  20.154  0.00  0.00    +0.000 C 
ATOM     33  H   UNL     1      -4.857  -6.101  20.913  0.00  0.00    +0.000 HD
ATOM     34  H   UNL     1      -4.038  -5.428  19.503  0.00  0.00    +0.000 HD
BRANCH  32  35
ATOM     35  C   UNL     1      -4.862  -3.946  20.835  0.00  0.00    +0.000 C 
ATOM     36  H   UNL     1      -3.832  -3.722  21.137  0.00  0.00    +0.000 HD
ATOM     37  H   UNL     1      -5.171  -3.169  20.125  0.00  0.00    +0.000 HD
BRANCH  35  38
ATOM     38  C   UNL     1      -5.776  -3.915  22.061  0.00  0.00    +0.000 C 
ATOM     39  H   UNL     1      -6.058  -4.940  22.335  0.00  0.00    +0.000 HD
ATOM     40  H   UNL     1      -5.230  -3.493  22.915  0.00  0.00    +0.000 HD
BRANCH  38  41
ATOM     41  C   UNL     1      -7.030  -3.089  21.785  0.00  0.00    +0.000 C 
ATOM     42  H   UNL     1      -7.065  -2.221  22.452  0.00  0.00    +0.000 HD
ATOM     43  H   UNL     1      -7.014  -2.718  20.755  0.00  0.00    +0.000 HD
BRANCH  41  44
ATOM     44  N   UNL     1      -8.223  -3.901  21.981  0.00  0.00    +0.000 NA
ATOM     45  H   UNL     1      -8.014  -4.871  21.750  0.00  0.00    +0.000 HD
ATOM     46  H   UNL     1      -8.952  -3.605  21.333  0.00  0.00    +0.000 HD
ENDBRANCH  41  44
ENDBRANCH  38  41
ENDBRANCH  35  38
ENDBRANCH  32  35
ENDBRANCH  29  32
ENDBRANCH  26  29
ENDBRANCH   1  26
TORSDOF 9
ENDMDL
MODEL 4
REMARK VINA RESULT:    -9.113      2.934      7.288
REMARK INTER + INTRA:         -15.099
REMARK INTER:                 -13.947
REMARK INTRA:                  -1.152
REMARK UNBOUND:                -1.457
REMARK  Name = 
REMARK  9 active torsions:
REMARK  status: ('A' for Active; 'I' for Inactive)
REMARK    1  A    between atoms: N_1  and  C_2
REMARK    2  A    between atoms: C_2  and  C_3
REMARK    3  A    between atoms: C_3  and  C_4
REMARK    4  A    between atoms: C_4  and  C_5
REMARK    5  A    between atoms: C_5  and  C_6
REMARK    6  A    between atoms: C_6  and  C_7
REMARK    7  A    between atoms: C_7  and  N_8
REMARK    8  A    between atoms: N_8  and  C_9
REMARK    9  A    between atoms: C_10  and  C_11
REMARK                            x       y       z     vdW  Elec       q    Type
REMARK                         _______ _______ _______ _____ _____    ______ ____
ROOT
ATOM      1  N   UNL     1      -9.953  -7.649  16.843  0.00  0.00    +0.000 N 
ATOM      2  H   UNL     1     -10.370  -8.448  16.356  0.00  0.00    +0.000 HD
ENDROOT
BRANCH   1   3
ATOM      3  C   UNL     1      -9.435  -8.079  18.059  0.00  0.00    +0.000 C 
ATOM      4  C   UNL     1      -9.000  -9.274  18.485  0.00  0.00    +0.000 C 
ATOM      5  C   UNL     1      -8.644  -9.156  19.916  0.00  0.00    +0.000 C 
ATOM      6  O   UNL     1      -8.287 -10.050  20.659  0.00  0.00    +0.000 OA
ATOM      7  N   UNL     1      -8.802  -7.857  20.253  0.00  0.00    +0.000 N 
ATOM      8  C   UNL     1      -9.281  -7.146  19.211  0.00  0.00    +0.000 C 
ATOM      9  O   UNL     1      -9.563  -5.961  19.185  0.00  0.00    +0.000 OA
ATOM     10  H   UNL     1      -8.625  -7.484  21.169  0.00  0.00    +0.000 HD
BRANCH   4  11
ATOM     11  C   UNL     1      -8.865 -10.434  17.703  0.00  0.00    +0.000 A 
ATOM     12  C   UNL     1      -8.806 -10.665  16.347  0.00  0.00    +0.000 A 
ATOM     13  C   UNL     1      -8.778 -12.070  16.139  0.00  0.00    +0.000 A 
ATOM     14  C   UNL     1      -8.740 -12.880  14.989  0.00  0.00    +0.000 A 
ATOM     15  C   UNL     1      -8.740 -14.269  15.136  0.00  0.00    +0.000 A 
ATOM     16  C   UNL     1      -8.786 -14.853  16.401  0.00  0.00    +0.000 A 
ATOM     17  C   UNL     1      -8.830 -14.067  17.558  0.00  0.00    +0.000 A 
ATOM     18  C   UNL     1      -8.817 -12.676  17.394  0.00  0.00    +0.000 A 
ATOM     19  N   UNL     1      -8.844 -11.666  18.327  0.00  0.00    +0.000 N 
ATOM     20  H   UNL     1      -8.811  -9.903  15.579  0.00  0.00    +0.000 HD
ATOM     21  H   UNL     1      -8.719 -12.428  14.004  0.00  0.00    +0.000 HD
ATOM     22  H   UNL     1      -8.708 -14.898  14.250  0.00  0.00    +0.000 HD
ATOM     23  H   UNL     1      -8.790 -15.936  16.490  0.00  0.00    +0.000 HD
ATOM     24  H   UNL     1      -8.877 -14.526  18.541  0.00  0.00    +0.000 HD
ATOM     25  H   UNL     1      -8.868 -11.804  19.329  0.00  0.00    +0.000 HD
ENDBRANCH   4  11
ENDBRANCH   1   3
BRANCH   1  26
ATOM     26  C   UNL     1      -9.113  -6.847  15.943  0.00  0.00    +0.000 C 
ATOM     27  H   UNL     1      -8.177  -6.603  16.456  0.00  0.00    +0.000 HD
ATOM     28  H   UNL     1      -8.852  -7.415  15.040  0.00  0.00    +0.000 HD
BRANCH  26  29
ATOM     29  C   UNL     1      -9.833  -5.565  15.529  0.00  0.00    +0.000 C 
ATOM     30  H   UNL     1      -9.283  -4.689  15.898  0.00  0.00    +0.000 HD
ATOM     31  H   UNL     1      -9.858  -5.486  14.435  0.00  0.00    +0.000 HD
BRANCH  29  32
ATOM     32  C   UNL     1     -11.256  -5.558  16.086  0.00  0.00    +0.000 C 
ATOM     33  H   UNL     1     -11.930  -6.041  15.369  0.00  0.00    +0.000 HD
ATOM     34  H   UNL     1     -11.291  -6.150  17.009  0.00  0.00    +0.000 HD
BRANCH  32  35
ATOM     35  C   UNL     1     -11.747  -4.141  16.372  0.00  0.00    +0.000 C 
ATOM     36  H   UNL     1     -11.966  -3.629  15.428  0.00  0.00    +0.000 HD
ATOM     37  H   UNL     1     -12.680  -4.184  16.945  0.00  0.00    +0.000 HD
BRANCH  35  38
ATOM     38  C   UNL     1     -10.698  -3.350  17.156  0.00  0.00    +0.000 C 
ATOM     39  H   UNL     1      -9.804  -3.971  17.302  0.00  0.00    +0.000 HD
ATOM     40  H   UNL     1     -10.388  -2.474  16.571  0.00  0.00    +0.000 HD
BRANCH  38  41
ATOM     41  C   UNL     1     -11.249  -2.907  18.508  0.00  0.00    +0.000 C 
ATOM     42  H   UNL     1     -10.429  -2.602  19.168  0.00  0.00    +0.000 HD
ATOM     43  H   UNL     1     -11.913  -2.045  18.379  0.00  0.00    +0.000 HD
BRANCH  41  44
ATOM     44  N   UNL     1     -11.994  -3.993  19.131  0.00  0.00    +0.000 NA
ATOM     45  H   UNL     1     -11.340  -4.671  19.520  0.00  0.00    +0.000 HD
ATOM     46  H   UNL     1     -12.532  -4.492  18.423  0.00  0.00    +0.000 HD
ENDBRANCH  41  44
ENDBRANCH  38  41
ENDBRANCH  35  38
ENDBRANCH  32  35
ENDBRANCH  29  32
ENDBRANCH  26  29
ENDBRANCH   1  26
TORSDOF 9
ENDMDL
MODEL 5
REMARK VINA RESULT:    -9.036      2.930      7.117
REMARK INTER + INTRA:         -14.982
REMARK INTER:                 -14.083
REMARK INTRA:                  -0.899
REMARK UNBOUND:                -1.457
REMARK  Name = 
REMARK  9 active torsions:
REMARK  status: ('A' for Active; 'I' for Inactive)
REMARK    1  A    between atoms: N_1  and  C_2
REMARK    2  A    between atoms: C_2  and  C_3
REMARK    3  A    between atoms: C_3  and  C_4
REMARK    4  A    between atoms: C_4  and  C_5
REMARK    5  A    between atoms: C_5  and  C_6
REMARK    6  A    between atoms: C_6  and  C_7
REMARK    7  A    between atoms: C_7  and  N_8
REMARK    8  A    between atoms: N_8  and  C_9
REMARK    9  A    between atoms: C_10  and  C_11
REMARK                            x       y       z     vdW  Elec       q    Type
REMARK                         _______ _______ _______ _____ _____    ______ ____
ROOT
ATOM      1  N   UNL     1      -9.871  -7.690  16.748  0.00  0.00    +0.000 N 
ATOM      2  H   UNL     1     -10.329  -8.484  16.290  0.00  0.00    +0.000 HD
ENDROOT
BRANCH   1   3
ATOM      3  C   UNL     1      -9.390  -8.096  17.987  0.00  0.00    +0.000 C 
ATOM      4  C   UNL     1      -8.981  -9.286  18.452  0.00  0.00    +0.000 C 
ATOM      5  C   UNL     1      -8.659  -9.138  19.888  0.00  0.00    +0.000 C 
ATOM      6  O   UNL     1      -8.332 -10.018  20.662  0.00  0.00    +0.000 OA
ATOM      7  N   UNL     1      -8.807  -7.829  20.190  0.00  0.00    +0.000 N 
ATOM      8  C   UNL     1      -9.251  -7.138  19.119  0.00  0.00    +0.000 C 
ATOM      9  O   UNL     1      -9.517  -5.951  19.058  0.00  0.00    +0.000 OA
ATOM     10  H   UNL     1      -8.648  -7.436  21.101  0.00  0.00    +0.000 HD
BRANCH   4  11
ATOM     11  C   UNL     1      -8.843 -10.467  17.702  0.00  0.00    +0.000 A 
ATOM     12  C   UNL     1      -8.766 -10.733  16.353  0.00  0.00    +0.000 A 
ATOM     13  C   UNL     1      -8.745 -12.142  16.182  0.00  0.00    +0.000 A 
ATOM     14  C   UNL     1      -8.695 -12.982  15.054  0.00  0.00    +0.000 A 
ATOM     15  C   UNL     1      -8.707 -14.367  15.235  0.00  0.00    +0.000 A 
ATOM     16  C   UNL     1      -8.775 -14.918  16.514  0.00  0.00    +0.000 A 
ATOM     17  C   UNL     1      -8.830 -14.102  17.650  0.00  0.00    +0.000 A 
ATOM     18  C   UNL     1      -8.805 -12.717  17.450  0.00  0.00    +0.000 A 
ATOM     19  N   UNL     1      -8.839 -11.682  18.357  0.00  0.00    +0.000 N 
ATOM     20  H   UNL     1      -8.754  -9.990  15.566  0.00  0.00    +0.000 HD
ATOM     21  H   UNL     1      -8.656 -12.556  14.057  0.00  0.00    +0.000 HD
ATOM     22  H   UNL     1      -8.666 -15.018  14.367  0.00  0.00    +0.000 HD
ATOM     23  H   UNL     1      -8.788 -15.998  16.630  0.00  0.00    +0.000 HD
ATOM     24  H   UNL     1      -8.895 -14.535  18.643  0.00  0.00    +0.000 HD
ATOM     25  H   UNL     1      -8.879 -11.794  19.362  0.00  0.00    +0.000 HD
ENDBRANCH   4  11
ENDBRANCH   1   3
BRANCH   1  26
ATOM     26  C   UNL     1      -8.980  -6.976  15.825  0.00  0.00    +0.000 C 
ATOM     27  H   UNL     1      -8.011  -6.825  16.312  0.00  0.00    +0.000 HD
ATOM     28  H   UNL     1      -8.800  -7.567  14.917  0.00  0.00    +0.000 HD
BRANCH  26  29
ATOM     29  C   UNL     1      -9.580  -5.628  15.427  0.00  0.00    +0.000 C 
ATOM     30  H   UNL     1      -8.985  -4.811  15.856  0.00  0.00    +0.000 HD
ATOM     31  H   UNL     1      -9.542  -5.509  14.336  0.00  0.00    +0.000 HD
BRANCH  29  32
ATOM     32  C   UNL     1     -11.025  -5.532  15.912  0.00  0.00    +0.000 C 
ATOM     33  H   UNL     1     -11.512  -6.508  15.804  0.00  0.00    +0.000 HD
ATOM     34  H   UNL     1     -11.037  -5.283  16.980  0.00  0.00    +0.000 HD
BRANCH  32  35
ATOM     35  C   UNL     1     -11.815  -4.480  15.137  0.00  0.00    +0.000 C 
ATOM     36  H   UNL     1     -12.528  -4.973  14.467  0.00  0.00    +0.000 HD
ATOM     37  H   UNL     1     -12.395  -3.866  15.836  0.00  0.00    +0.000 HD
BRANCH  35  38
ATOM     38  C   UNL     1     -10.878  -3.586  14.323  0.00  0.00    +0.000 C 
ATOM     39  H   UNL     1     -10.824  -2.593  14.788  0.00  0.00    +0.000 HD
ATOM     40  H   UNL     1      -9.863  -4.005  14.343  0.00  0.00    +0.000 HD
BRANCH  38  41
ATOM     41  C   UNL     1     -11.362  -3.458  12.882  0.00  0.00    +0.000 C 
ATOM     42  H   UNL     1     -12.454  -3.377  12.857  0.00  0.00    +0.000 HD
ATOM     43  H   UNL     1     -10.949  -2.551  12.426  0.00  0.00    +0.000 HD
BRANCH  41  44
ATOM     44  N   UNL     1     -10.943  -4.616  12.104  0.00  0.00    +0.000 NA
ATOM     45  H   UNL     1     -10.385  -5.234  12.691  0.00  0.00    +0.000 HD
ATOM     46  H   UNL     1     -10.333  -4.317  11.344  0.00  0.00    +0.000 HD
ENDBRANCH  41  44
ENDBRANCH  38  41
ENDBRANCH  35  38
ENDBRANCH  32  35
ENDBRANCH  29  32
ENDBRANCH  26  29
ENDBRANCH   1  26
TORSDOF 9
ENDMDL
MODEL 6
REMARK VINA RESULT:    -8.560      1.693      6.840
REMARK INTER + INTRA:         -14.271
REMARK INTER:                 -13.753
REMARK INTRA:                  -0.518
REMARK UNBOUND:                -1.457
REMARK  Name = 
REMARK  9 active torsions:
REMARK  status: ('A' for Active; 'I' for Inactive)
REMARK    1  A    between atoms: N_1  and  C_2
REMARK    2  A    between atoms: C_2  and  C_3
REMARK    3  A    between atoms: C_3  and  C_4
REMARK    4  A    between atoms: C_4  and  C_5
REMARK    5  A    between atoms: C_5  and  C_6
REMARK    6  A    between atoms: C_6  and  C_7
REMARK    7  A    between atoms: C_7  and  N_8
REMARK    8  A    between atoms: N_8  and  C_9
REMARK    9  A    between atoms: C_10  and  C_11
REMARK                            x       y       z     vdW  Elec       q    Type
REMARK                         _______ _______ _______ _____ _____    ______ ____
ROOT
ATOM      1  N   UNL     1      -9.848  -6.555  19.225  0.00  0.00    +0.000 N 
ATOM      2  H   UNL     1     -10.505  -5.912  19.677  0.00  0.00    +0.000 HD
ENDROOT
BRANCH   1   3
ATOM      3  C   UNL     1      -9.789  -6.263  17.867  0.00  0.00    +0.000 C 
ATOM      4  C   UNL     1      -9.536  -7.019  16.789  0.00  0.00    +0.000 C 
ATOM      5  C   UNL     1      -9.518  -6.142  15.599  0.00  0.00    +0.000 C 
ATOM      6  O   UNL     1      -9.244  -6.459  14.457  0.00  0.00    +0.000 OA
ATOM      7  N   UNL     1      -9.854  -4.903  16.020  0.00  0.00    +0.000 N 
ATOM      8  C   UNL     1     -10.023  -4.882  17.359  0.00  0.00    +0.000 C 
ATOM      9  O   UNL     1     -10.298  -3.924  18.059  0.00  0.00    +0.000 OA
ATOM     10  H   UNL     1      -9.928  -4.100  15.420  0.00  0.00    +0.000 HD
BRANCH   4  11
ATOM     11  C   UNL     1      -9.356  -8.414  16.778  0.00  0.00    +0.000 A 
ATOM     12  C   UNL     1      -9.212  -9.361  17.767  0.00  0.00    +0.000 A 
ATOM     13  C   UNL     1      -8.948 -10.611  17.145  0.00  0.00    +0.000 A 
ATOM     14  C   UNL     1      -8.698 -11.906  17.637  0.00  0.00    +0.000 A 
ATOM     15  C   UNL     1      -8.451 -12.941  16.732  0.00  0.00    +0.000 A 
ATOM     16  C   UNL     1      -8.442 -12.700  15.359  0.00  0.00    +0.000 A 
ATOM     17  C   UNL     1      -8.683 -11.420  14.848  0.00  0.00    +0.000 A 
ATOM     18  C   UNL     1      -8.941 -10.397  15.768  0.00  0.00    +0.000 A 
ATOM     19  N   UNL     1      -9.215  -9.063  15.568  0.00  0.00    +0.000 N 
ATOM     20  H   UNL     1      -9.263  -9.172  18.831  0.00  0.00    +0.000 HD
ATOM     21  H   UNL     1      -8.690 -12.091  18.705  0.00  0.00    +0.000 HD
ATOM     22  H   UNL     1      -8.259 -13.942  17.108  0.00  0.00    +0.000 HD
ATOM     23  H   UNL     1      -8.242 -13.521  14.675  0.00  0.00    +0.000 HD
ATOM     24  H   UNL     1      -8.665 -11.235  13.778  0.00  0.00    +0.000 HD
ATOM     25  H   UNL     1      -9.282  -8.616  14.664  0.00  0.00    +0.000 HD
ENDBRANCH   4  11
ENDBRANCH   1   3
BRANCH   1  26
ATOM     26  C   UNL     1      -8.602  -6.680  19.992  0.00  0.00    +0.000 C 
ATOM     27  H   UNL     1      -8.782  -6.340  21.018  0.00  0.00    +0.000 HD
ATOM     28  H   UNL     1      -8.277  -7.727  20.047  0.00  0.00    +0.000 HD
BRANCH  26  29
ATOM     29  C   UNL     1      -7.488  -5.850  19.356  0.00  0.00    +0.000 C 
ATOM     30  H   UNL     1      -7.449  -6.039  18.275  0.00  0.00    +0.000 HD
ATOM     31  H   UNL     1      -7.699  -4.780  19.483  0.00  0.00    +0.000 HD
BRANCH  29  32
ATOM     32  C   UNL     1      -6.144  -6.197  19.994  0.00  0.00    +0.000 C 
ATOM     33  H   UNL     1      -6.244  -6.183  21.086  0.00  0.00    +0.000 HD
ATOM     34  H   UNL     1      -5.856  -7.217  19.710  0.00  0.00    +0.000 HD
BRANCH  32  35
ATOM     35  C   UNL     1      -5.047  -5.223  19.570  0.00  0.00    +0.000 C 
ATOM     36  H   UNL     1      -4.192  -5.781  19.172  0.00  0.00    +0.000 HD
ATOM     37  H   UNL     1      -5.419  -4.578  18.766  0.00  0.00    +0.000 HD
BRANCH  35  38
ATOM     38  C   UNL     1      -4.596  -4.363  20.752  0.00  0.00    +0.000 C 
ATOM     39  H   UNL     1      -3.829  -4.901  21.325  0.00  0.00    +0.000 HD
ATOM     40  H   UNL     1      -4.130  -3.442  20.378  0.00  0.00    +0.000 HD
BRANCH  38  41
ATOM     41  C   UNL     1      -5.775  -4.021  21.658  0.00  0.00    +0.000 C 
ATOM     42  H   UNL     1      -6.715  -4.325  21.185  0.00  0.00    +0.000 HD
ATOM     43  H   UNL     1      -5.689  -4.560  22.607  0.00  0.00    +0.000 HD
BRANCH  41  44
ATOM     44  N   UNL     1      -5.808  -2.589  21.925  0.00  0.00    +0.000 NA
ATOM     45  H   UNL     1      -6.290  -2.114  21.163  0.00  0.00    +0.000 HD
ATOM     46  H   UNL     1      -4.859  -2.218  21.935  0.00  0.00    +0.000 HD
ENDBRANCH  41  44
ENDBRANCH  38  41
ENDBRANCH  35  38
ENDBRANCH  32  35
ENDBRANCH  29  32
ENDBRANCH  26  29
ENDBRANCH   1  26
TORSDOF 9
ENDMDL
MODEL 7
REMARK VINA RESULT:    -8.404      3.179      6.781
REMARK INTER + INTRA:         -14.037
REMARK INTER:                 -13.234
REMARK INTRA:                  -0.803
REMARK UNBOUND:                -1.457
REMARK  Name = 
REMARK  9 active torsions:
REMARK  status: ('A' for Active; 'I' for Inactive)
REMARK    1  A    between atoms: N_1  and  C_2
REMARK    2  A    between atoms: C_2  and  C_3
REMARK    3  A    between atoms: C_3  and  C_4
REMARK    4  A    between atoms: C_4  and  C_5
REMARK    5  A    between atoms: C_5  and  C_6
REMARK    6  A    between atoms: C_6  and  C_7
REMARK    7  A    between atoms: C_7  and  N_8
REMARK    8  A    between atoms: N_8  and  C_9
REMARK    9  A    between atoms: C_10  and  C_11
REMARK                            x       y       z     vdW  Elec       q    Type
REMARK                         _______ _______ _______ _____ _____    ______ ____
ROOT
ATOM      1  N   UNL     1     -10.245  -6.481  16.043  0.00  0.00    +0.000 N 
ATOM      2  H   UNL     1     -10.779  -7.294  15.718  0.00  0.00    +0.000 HD
ENDROOT
BRANCH   1   3
ATOM      3  C   UNL     1      -9.823  -6.709  17.348  0.00  0.00    +0.000 C 
ATOM      4  C   UNL     1      -9.387  -7.809  17.978  0.00  0.00    +0.000 C 
ATOM      5  C   UNL     1      -9.164  -7.472  19.401  0.00  0.00    +0.000 C 
ATOM      6  O   UNL     1      -8.844  -8.233  20.294  0.00  0.00    +0.000 OA
ATOM      7  N   UNL     1      -9.396  -6.147  19.531  0.00  0.00    +0.000 N 
ATOM      8  C   UNL     1      -9.804  -5.615  18.359  0.00  0.00    +0.000 C 
ATOM      9  O   UNL     1     -10.123  -4.461  18.137  0.00  0.00    +0.000 OA
ATOM     10  H   UNL     1      -9.314  -5.639  20.394  0.00  0.00    +0.000 HD
BRANCH   4  11
ATOM     11  C   UNL     1      -9.143  -9.062  17.388  0.00  0.00    +0.000 A 
ATOM     12  C   UNL     1      -9.170  -9.523  16.091  0.00  0.00    +0.000 A 
ATOM     13  C   UNL     1      -8.942 -10.924  16.116  0.00  0.00    +0.000 A 
ATOM     14  C   UNL     1      -8.881 -11.916  15.119  0.00  0.00    +0.000 A 
ATOM     15  C   UNL     1      -8.652 -13.242  15.492  0.00  0.00    +0.000 A 
ATOM     16  C   UNL     1      -8.494 -13.589  16.833  0.00  0.00    +0.000 A 
ATOM     17  C   UNL     1      -8.556 -12.621  17.842  0.00  0.00    +0.000 A 
ATOM     18  C   UNL     1      -8.774 -11.294  17.450  0.00  0.00    +0.000 A 
ATOM     19  N   UNL     1      -8.875 -10.146  18.200  0.00  0.00    +0.000 N 
ATOM     20  H   UNL     1      -9.362  -8.919  15.213  0.00  0.00    +0.000 HD
ATOM     21  H   UNL     1      -9.018 -11.650  14.077  0.00  0.00    +0.000 HD
ATOM     22  H   UNL     1      -8.602 -14.010  14.725  0.00  0.00    +0.000 HD
ATOM     23  H   UNL     1      -8.321 -14.628  17.099  0.00  0.00    +0.000 HD
ATOM     24  H   UNL     1      -8.443 -12.897  18.886  0.00  0.00    +0.000 HD
ATOM     25  H   UNL     1      -8.788 -10.103  19.207  0.00  0.00    +0.000 HD
ENDBRANCH   4  11
ENDBRANCH   1   3
BRANCH   1  26
ATOM     26  C   UNL     1      -9.272  -6.039  15.036  0.00  0.00    +0.000 C 
ATOM     27  H   UNL     1      -8.305  -5.875  15.524  0.00  0.00    +0.000 HD
ATOM     28  H   UNL     1      -9.124  -6.809  14.267  0.00  0.00    +0.000 HD
BRANCH  26  29
ATOM     29  C   UNL     1      -9.740  -4.751  14.360  0.00  0.00    +0.000 C 
ATOM     30  H   UNL     1      -9.078  -3.919  14.636  0.00  0.00    +0.000 HD
ATOM     31  H   UNL     1      -9.679  -4.856  13.269  0.00  0.00    +0.000 HD
BRANCH  29  32
ATOM     32  C   UNL     1     -11.176  -4.432  14.773  0.00  0.00    +0.000 C 
ATOM     33  H   UNL     1     -11.682  -5.357  15.075  0.00  0.00    +0.000 HD
ATOM     34  H   UNL     1     -11.167  -3.770  15.648  0.00  0.00    +0.000 HD
BRANCH  32  35
ATOM     35  C   UNL     1     -11.958  -3.768  13.643  0.00  0.00    +0.000 C 
ATOM     36  H   UNL     1     -12.889  -4.318  13.465  0.00  0.00    +0.000 HD
ATOM     37  H   UNL     1     -12.231  -2.747  13.935  0.00  0.00    +0.000 HD
BRANCH  35  38
ATOM     38  C   UNL     1     -11.129  -3.729  12.357  0.00  0.00    +0.000 C 
ATOM     39  H   UNL     1     -10.513  -2.821  12.345  0.00  0.00    +0.000 HD
ATOM     40  H   UNL     1     -10.440  -4.584  12.340  0.00  0.00    +0.000 HD
BRANCH  38  41
ATOM     41  C   UNL     1     -12.031  -3.761  11.127  0.00  0.00    +0.000 C 
ATOM     42  H   UNL     1     -13.057  -4.012  11.417  0.00  0.00    +0.000 HD
ATOM     43  H   UNL     1     -12.050  -2.774  10.651  0.00  0.00    +0.000 HD
BRANCH  41  44
ATOM     44  N   UNL     1     -11.544  -4.743  10.168  0.00  0.00    +0.000 NA
ATOM     45  H   UNL     1     -10.934  -4.283   9.493  0.00  0.00    +0.000 HD
ATOM     46  H   UNL     1     -12.326  -5.120   9.634  0.00  0.00    +0.000 HD
ENDBRANCH  41  44
ENDBRANCH  38  41
ENDBRANCH  35  38
ENDBRANCH  32  35
ENDBRANCH  29  32
ENDBRANCH  26  29
ENDBRANCH   1  26
TORSDOF 9
ENDMDL
MODEL 8
REMARK VINA RESULT:    -8.315      3.105      6.784
REMARK INTER + INTRA:         -13.904
REMARK INTER:                 -13.024
REMARK INTRA:                  -0.880
REMARK UNBOUND:                -1.457
REMARK  Name = 
REMARK  9 active torsions:
REMARK  status: ('A' for Active; 'I' for Inactive)
REMARK    1  A    between atoms: N_1  and  C_2
REMARK    2  A    between atoms: C_2  and  C_3
REMARK    3  A    between atoms: C_3  and  C_4
REMARK    4  A    between atoms: C_4  and  C_5
REMARK    5  A    between atoms: C_5  and  C_6
REMARK    6  A    between atoms: C_6  and  C_7
REMARK    7  A    between atoms: C_7  and  N_8
REMARK    8  A    between atoms: N_8  and  C_9
REMARK    9  A    between atoms: C_10  and  C_11
REMARK                            x       y       z     vdW  Elec       q    Type
REMARK                         _______ _______ _______ _____ _____    ______ ____
ROOT
ATOM      1  N   UNL     1     -11.260  -6.215  16.675  0.00  0.00    +0.000 N 
ATOM      2  H   UNL     1     -11.671  -7.144  16.543  0.00  0.00    +0.000 HD
ENDROOT
BRANCH   1   3
ATOM      3  C   UNL     1     -10.325  -6.275  17.703  0.00  0.00    +0.000 C 
ATOM      4  C   UNL     1      -9.466  -7.229  18.089  0.00  0.00    +0.000 C 
ATOM      5  C   UNL     1      -8.777  -6.767  19.314  0.00  0.00    +0.000 C 
ATOM      6  O   UNL     1      -7.989  -7.395  19.994  0.00  0.00    +0.000 OA
ATOM      7  N   UNL     1      -9.201  -5.506  19.548  0.00  0.00    +0.000 N 
ATOM      8  C   UNL     1     -10.132  -5.136  18.644  0.00  0.00    +0.000 C 
ATOM      9  O   UNL     1     -10.737  -4.080  18.587  0.00  0.00    +0.000 OA
ATOM     10  H   UNL     1      -8.891  -4.938  20.318  0.00  0.00    +0.000 HD
BRANCH   4  11
ATOM     11  C   UNL     1      -9.227  -8.447  17.429  0.00  0.00    +0.000 A 
ATOM     12  C   UNL     1      -9.264  -8.835  16.107  0.00  0.00    +0.000 A 
ATOM     13  C   UNL     1      -9.036 -10.235  16.053  0.00  0.00    +0.000 A 
ATOM     14  C   UNL     1      -8.982 -11.170  15.002  0.00  0.00    +0.000 A 
ATOM     15  C   UNL     1      -8.749 -12.515  15.298  0.00  0.00    +0.000 A 
ATOM     16  C   UNL     1      -8.580 -12.935  16.616  0.00  0.00    +0.000 A 
ATOM     17  C   UNL     1      -8.634 -12.025  17.678  0.00  0.00    +0.000 A 
ATOM     18  C   UNL     1      -8.856 -10.679  17.362  0.00  0.00    +0.000 A 
ATOM     19  N   UNL     1      -8.951  -9.574  18.176  0.00  0.00    +0.000 N 
ATOM     20  H   UNL     1      -9.464  -8.184  15.267  0.00  0.00    +0.000 HD
ATOM     21  H   UNL     1      -9.128 -10.847  13.977  0.00  0.00    +0.000 HD
ATOM     22  H   UNL     1      -8.705 -13.238  14.488  0.00  0.00    +0.000 HD
ATOM     23  H   UNL     1      -8.404 -13.988  16.822  0.00  0.00    +0.000 HD
ATOM     24  H   UNL     1      -8.512 -12.359  18.703  0.00  0.00    +0.000 HD
ATOM     25  H   UNL     1      -8.856  -9.588  19.183  0.00  0.00    +0.000 HD
ENDBRANCH   4  11
ENDBRANCH   1   3
BRANCH   1  26
ATOM     26  C   UNL     1     -10.886  -5.603  15.393  0.00  0.00    +0.000 C 
ATOM     27  H   UNL     1      -9.794  -5.545  15.333  0.00  0.00    +0.000 HD
ATOM     28  H   UNL     1     -11.227  -6.219  14.550  0.00  0.00    +0.000 HD
BRANCH  26  29
ATOM     29  C   UNL     1     -11.492  -4.207  15.262  0.00  0.00    +0.000 C 
ATOM     30  H   UNL     1     -12.326  -4.091  15.968  0.00  0.00    +0.000 HD
ATOM     31  H   UNL     1     -10.745  -3.448  15.528  0.00  0.00    +0.000 HD
BRANCH  29  32
ATOM     32  C   UNL     1     -11.983  -3.978  13.834  0.00  0.00    +0.000 C 
ATOM     33  H   UNL     1     -12.553  -4.854  13.500  0.00  0.00    +0.000 HD
ATOM     34  H   UNL     1     -12.668  -3.122  13.815  0.00  0.00    +0.000 HD
BRANCH  32  35
ATOM     35  C   UNL     1     -10.827  -3.725  12.870  0.00  0.00    +0.000 C 
ATOM     36  H   UNL     1      -9.957  -4.319  13.172  0.00  0.00    +0.000 HD
ATOM     37  H   UNL     1     -11.110  -4.050  11.862  0.00  0.00    +0.000 HD
BRANCH  35  38
ATOM     38  C   UNL     1     -10.453  -2.241  12.846  0.00  0.00    +0.000 C 
ATOM     39  H   UNL     1     -11.045  -1.727  12.078  0.00  0.00    +0.000 HD
ATOM     40  H   UNL     1     -10.711  -1.783  13.810  0.00  0.00    +0.000 HD
BRANCH  38  41
ATOM     41  C   UNL     1      -8.965  -2.059  12.564  0.00  0.00    +0.000 C 
ATOM     42  H   UNL     1      -8.760  -2.222  11.500  0.00  0.00    +0.000 HD
ATOM     43  H   UNL     1      -8.659  -1.037  12.811  0.00  0.00    +0.000 HD
BRANCH  41  44
ATOM     44  N   UNL     1      -8.181  -2.996  13.357  0.00  0.00    +0.000 NA
ATOM     45  H   UNL     1      -8.250  -2.745  14.342  0.00  0.00    +0.000 HD
ATOM     46  H   UNL     1      -7.195  -2.915  13.112  0.00  0.00    +0.000 HD
ENDBRANCH  41  44
ENDBRANCH  38  41
ENDBRANCH  35  38
ENDBRANCH  32  35
ENDBRANCH  29  32
ENDBRANCH  26  29
ENDBRANCH   1  26
TORSDOF 9
ENDMDL
MODEL 9
REMARK VINA RESULT:    -8.168      2.588      6.058
REMARK INTER + INTRA:         -13.684
REMARK INTER:                 -12.218
REMARK INTRA:                  -1.467
REMARK UNBOUND:                -1.457
REMARK  Name = 
REMARK  9 active torsions:
REMARK  status: ('A' for Active; 'I' for Inactive)
REMARK    1  A    between atoms: N_1  and  C_2
REMARK    2  A    between atoms: C_2  and  C_3
REMARK    3  A    between atoms: C_3  and  C_4
REMARK    4  A    between atoms: C_4  and  C_5
REMARK    5  A    between atoms: C_5  and  C_6
REMARK    6  A    between atoms: C_6  and  C_7
REMARK    7  A    between atoms: C_7  and  N_8
REMARK    8  A    between atoms: N_8  and  C_9
REMARK    9  A    between atoms: C_10  and  C_11
REMARK                            x       y       z     vdW  Elec       q    Type
REMARK                         _______ _______ _______ _____ _____    ______ ____
ROOT
ATOM      1  N   UNL     1      -8.884 -10.600  19.375  0.00  0.00    +0.000 N 
ATOM      2  H   UNL     1      -9.832 -10.234  19.515  0.00  0.00    +0.000 HD
ENDROOT
BRANCH   1   3
ATOM      3  C   UNL     1      -8.799 -11.165  18.109  0.00  0.00    +0.000 C 
ATOM      4  C   UNL     1      -9.038 -10.677  16.883  0.00  0.00    +0.000 C 
ATOM      5  C   UNL     1      -8.864 -11.773  15.904  0.00  0.00    +0.000 C 
ATOM      6  O   UNL     1      -9.073 -11.728  14.707  0.00  0.00    +0.000 OA
ATOM      7  N   UNL     1      -8.436 -12.851  16.596  0.00  0.00    +0.000 N 
ATOM      8  C   UNL     1      -8.379 -12.582  17.917  0.00  0.00    +0.000 C 
ATOM      9  O   UNL     1      -8.065 -13.339  18.818  0.00  0.00    +0.000 OA
ATOM     10  H   UNL     1      -8.229 -13.744  16.183  0.00  0.00    +0.000 HD
BRANCH   4  11
ATOM     11  C   UNL     1      -9.362  -9.346  16.568  0.00  0.00    +0.000 A 
ATOM     12  C   UNL     1      -8.768  -8.384  15.782  0.00  0.00    +0.000 A 
ATOM     13  C   UNL     1      -9.497  -7.175  15.937  0.00  0.00    +0.000 A 
ATOM     14  C   UNL     1      -9.351  -5.878  15.410  0.00  0.00    +0.000 A 
ATOM     15  C   UNL     1     -10.254  -4.884  15.789  0.00  0.00    +0.000 A 
ATOM     16  C   UNL     1     -11.286  -5.161  16.685  0.00  0.00    +0.000 A 
ATOM     17  C   UNL     1     -11.448  -6.442  17.226  0.00  0.00    +0.000 A 
ATOM     18  C   UNL     1     -10.541  -7.430  16.825  0.00  0.00    +0.000 A 
ATOM     19  N   UNL     1     -10.454  -8.758  17.175  0.00  0.00    +0.000 N 
ATOM     20  H   UNL     1      -7.881  -8.525  15.178  0.00  0.00    +0.000 HD
ATOM     21  H   UNL     1      -8.540  -5.657  14.725  0.00  0.00    +0.000 HD
ATOM     22  H   UNL     1     -10.145  -3.882  15.383  0.00  0.00    +0.000 HD
ATOM     23  H   UNL     1     -11.974  -4.370  16.969  0.00  0.00    +0.000 HD
ATOM     24  H   UNL     1     -12.247  -6.651  17.931  0.00  0.00    +0.000 HD
ATOM     25  H   UNL     1     -11.086  -9.233  17.806  0.00  0.00    +0.000 HD
ENDBRANCH   4  11
ENDBRANCH   1   3
BRANCH   1  26
ATOM     26  C   UNL     1      -7.865  -9.635  19.807  0.00  0.00    +0.000 C 
ATOM     27  H   UNL     1      -7.347 -10.036  20.685  0.00  0.00    +0.000 HD
ATOM     28  H   UNL     1      -7.110  -9.484  19.024  0.00  0.00    +0.000 HD
BRANCH  26  29
ATOM     29  C   UNL     1      -8.502  -8.289  20.146  0.00  0.00    +0.000 C 
ATOM     30  H   UNL     1      -9.580  -8.319  19.935  0.00  0.00    +0.000 HD
ATOM     31  H   UNL     1      -8.395  -8.083  21.219  0.00  0.00    +0.000 HD
BRANCH  29  32
ATOM     32  C   UNL     1      -7.844  -7.175  19.333  0.00  0.00    +0.000 C 
ATOM     33  H   UNL     1      -6.771  -7.380  19.236  0.00  0.00    +0.000 HD
ATOM     34  H   UNL     1      -8.262  -7.166  18.319  0.00  0.00    +0.000 HD
BRANCH  32  35
ATOM     35  C   UNL     1      -8.045  -5.806  19.977  0.00  0.00    +0.000 C 
ATOM     36  H   UNL     1      -8.725  -5.205  19.363  0.00  0.00    +0.000 HD
ATOM     37  H   UNL     1      -8.516  -5.929  20.960  0.00  0.00    +0.000 HD
BRANCH  35  38
ATOM     38  C   UNL     1      -6.710  -5.076  20.134  0.00  0.00    +0.000 C 
ATOM     39  H   UNL     1      -6.835  -4.021  19.860  0.00  0.00    +0.000 HD
ATOM     40  H   UNL     1      -6.401  -5.100  21.187  0.00  0.00    +0.000 HD
BRANCH  38  41
ATOM     41  C   UNL     1      -5.635  -5.715  19.260  0.00  0.00    +0.000 C 
ATOM     42  H   UNL     1      -5.932  -6.731  18.978  0.00  0.00    +0.000 HD
ATOM     43  H   UNL     1      -5.508  -5.136  18.339  0.00  0.00    +0.000 HD
BRANCH  41  44
ATOM     44  N   UNL     1      -4.365  -5.761  19.972  0.00  0.00    +0.000 NA
ATOM     45  H   UNL     1      -4.359  -6.565  20.599  0.00  0.00    +0.000 HD
ATOM     46  H   UNL     1      -4.273  -4.937  20.566  0.00  0.00    +0.000 HD
ENDBRANCH  41  44
ENDBRANCH  38  41
ENDBRANCH  35  38
ENDBRANCH  32  35
ENDBRANCH  29  32
ENDBRANCH  26  29
ENDBRANCH   1  26
TORSDOF 9
ENDMDL
