REMARK  Name = 
REMARK  2 active torsions:
REMARK  status: ('A' for Active; 'I' for Inactive)
REMARK    1  A    between atoms: C_6  and  N_7
REMARK    2  A    between atoms: C_16  and  N_17
REMARK                            x       y       z     vdW  Elec       q    Type
REMARK                         _______ _______ _______ _____ _____    ______ ____
ROOT
ATOM      1  O   UNL     1      -2.317   3.041  -0.009  0.00  0.00    +0.000 OA
ATOM      2  C   UNL     1      -1.175   2.626  -0.001  0.00  0.00    +0.000 C 
ATOM      3  N   UNL     1      -0.076   3.398   0.062  0.00  0.00    +0.000 N 
ATOM      4  C   UNL     1       1.035   2.644   0.120  0.00  0.00    +0.000 C 
ATOM      5  O   UNL     1       2.167   3.088   0.106  0.00  0.00    +0.000 OA
ATOM      6  C   UNL     1       0.619   1.221   0.115  0.00  0.00    +0.000 C 
ATOM      7  C   UNL     1      -0.733   1.213   0.023  0.00  0.00    +0.000 C 
ATOM      8  H   UNL     1      -0.083   4.404   0.054  0.00  0.00    +0.000 HD
ENDROOT
BRANCH   6   9
ATOM      9  N   UNL     1       1.507   0.132   0.074  0.00  0.00    +0.000 N 
ATOM     10  C   UNL     1       1.297  -1.046  -0.634  0.00  0.00    +0.000 A 
ATOM     11  C   UNL     1       2.362  -1.894  -0.473  0.00  0.00    +0.000 A 
ATOM     12  C   UNL     1       3.297  -1.240   0.357  0.00  0.00    +0.000 A 
ATOM     13  C   UNL     1       4.560  -1.615   0.855  0.00  0.00    +0.000 A 
ATOM     14  C   UNL     1       5.255  -0.750   1.702  0.00  0.00    +0.000 A 
ATOM     15  C   UNL     1       4.696   0.467   2.070  0.00  0.00    +0.000 A 
ATOM     16  C   UNL     1       3.440   0.854   1.593  0.00  0.00    +0.000 A 
ATOM     17  C   UNL     1       2.755   0.006   0.702  0.00  0.00    +0.000 A 
ATOM     18  H   UNL     1       0.405  -1.184  -1.232  0.00  0.00    +0.000 HD
ATOM     19  H   UNL     1       2.456  -2.879  -0.912  0.00  0.00    +0.000 HD
ATOM     20  H   UNL     1       4.993  -2.574   0.585  0.00  0.00    +0.000 HD
ATOM     21  H   UNL     1       6.232  -1.034   2.081  0.00  0.00    +0.000 HD
ATOM     22  H   UNL     1       5.240   1.131   2.738  0.00  0.00    +0.000 HD
ATOM     23  H   UNL     1       3.026   1.803   1.918  0.00  0.00    +0.000 HD
ENDBRANCH   6   9
BRANCH   7  24
ATOM     24  N   UNL     1      -1.604   0.119   0.067  0.00  0.00    +0.000 N 
ATOM     25  C   UNL     1      -1.422  -1.007   0.860  0.00  0.00    +0.000 A 
ATOM     26  C   UNL     1      -2.411  -1.922   0.607  0.00  0.00    +0.000 A 
ATOM     27  C   UNL     1      -3.271  -1.355  -0.358  0.00  0.00    +0.000 A 
ATOM     28  C   UNL     1      -4.429  -1.830  -1.005  0.00  0.00    +0.000 A 
ATOM     29  C   UNL     1      -5.069  -1.032  -1.955  0.00  0.00    +0.000 A 
ATOM     30  C   UNL     1      -4.568   0.226  -2.266  0.00  0.00    +0.000 A 
ATOM     31  C   UNL     1      -3.418   0.717  -1.639  0.00  0.00    +0.000 A 
ATOM     32  C   UNL     1      -2.780  -0.079  -0.668  0.00  0.00    +0.000 A 
ATOM     33  H   UNL     1      -0.591  -1.068   1.552  0.00  0.00    +0.000 HD
ATOM     34  H   UNL     1      -2.500  -2.898   1.066  0.00  0.00    +0.000 HD
ATOM     35  H   UNL     1      -4.818  -2.817  -0.774  0.00  0.00    +0.000 HD
ATOM     36  H   UNL     1      -5.960  -1.401  -2.457  0.00  0.00    +0.000 HD
ATOM     37  H   UNL     1      -5.072   0.838  -3.010  0.00  0.00    +0.000 HD
ATOM     38  H   UNL     1      -3.043   1.696  -1.917  0.00  0.00    +0.000 HD
ENDBRANCH   7  24
TORSDOF 2
