MODEL 1
REMARK VINA RESULT:   -10.657      0.000      0.000
REMARK INTER + INTRA:         -13.531
REMARK INTER:                 -13.149
REMARK INTRA:                  -0.382
REMARK UNBOUND:                -0.382
REMARK  Name = 
REMARK  6 active torsions:
REMARK  status: ('A' for Active; 'I' for Inactive)
REMARK    1  A    between atoms: C_4  and  O_5
REMARK    2  A    between atoms: C_6  and  O_7
REMARK    3  A    between atoms: C_13  and  O_14
REMARK    4  A    between atoms: C_15  and  O_16
REMARK    5  A    between atoms: N_19  and  C_20
REMARK    6  A    between atoms: C_20  and  C_21
REMARK                            x       y       z     vdW  Elec       q    Type
REMARK                         _______ _______ _______ _____ _____    ______ ____
ROOT
ATOM      1  O   UNL     1      -8.919  -9.983  19.755  0.00  0.00    +0.000 OA
ATOM      2  C   UNL     1      -8.981  -9.407  18.665  0.00  0.00    +0.000 A 
ATOM      3  C   UNL     1      -8.903 -10.244  17.449  0.00  0.00    +0.000 A 
ATOM      4  C   UNL     1      -8.704 -11.633  17.576  0.00  0.00    +0.000 A 
ATOM      5  C   UNL     1      -8.592 -12.429  16.444  0.00  0.00    +0.000 A 
ATOM      6  C   UNL     1      -8.686 -11.876  15.184  0.00  0.00    +0.000 A 
ATOM      7  C   UNL     1      -8.894 -10.499  15.056  0.00  0.00    +0.000 A 
ATOM      8  C   UNL     1      -9.005  -9.649  16.181  0.00  0.00    +0.000 A 
ATOM      9  C   UNL     1      -9.203  -8.185  16.075  0.00  0.00    +0.000 A 
ATOM     10  C   UNL     1      -9.355  -7.536  14.823  0.00  0.00    +0.000 A 
ATOM     11  C   UNL     1      -9.518  -6.160  14.744  0.00  0.00    +0.000 A 
ATOM     12  C   UNL     1      -9.533  -5.399  15.897  0.00  0.00    +0.000 A 
ATOM     13  C   UNL     1      -9.388  -5.998  17.137  0.00  0.00    +0.000 A 
ATOM     14  C   UNL     1      -9.235  -7.393  17.253  0.00  0.00    +0.000 A 
ATOM     15  N   UNL     1      -9.112  -8.024  18.536  0.00  0.00    +0.000 N 
ATOM     16  H   UNL     1      -8.595 -12.507  14.304  0.00  0.00    +0.000 HD
ATOM     17  H   UNL     1      -8.955 -10.118  14.041  0.00  0.00    +0.000 HD
ATOM     18  H   UNL     1      -9.345  -8.101  13.899  0.00  0.00    +0.000 HD
ATOM     19  H   UNL     1      -9.394  -5.337  17.990  0.00  0.00    +0.000 HD
ENDROOT
BRANCH  15  20
ATOM     20  C   UNL     1      -9.179  -7.245  19.784  0.00  0.00    +0.000 C 
ATOM     21  H   UNL     1      -9.315  -7.917  20.637  0.00  0.00    +0.000 HD
ATOM     22  H   UNL     1     -10.086  -6.626  19.784  0.00  0.00    +0.000 HD
BRANCH  20  23
ATOM     23  C   UNL     1      -7.985  -6.327  19.968  0.00  0.00    +0.000 A 
ATOM     24  C   UNL     1      -6.717  -6.709  19.507  0.00  0.00    +0.000 A 
ATOM     25  C   UNL     1      -5.594  -5.920  19.769  0.00  0.00    +0.000 A 
ATOM     26  C   UNL     1      -5.723  -4.731  20.486  0.00  0.00    +0.000 A 
ATOM     27 CL   UNL     1      -4.285  -3.843  20.840  0.00  0.00    +0.000 Cl
ATOM     28  C   UNL     1      -6.989  -4.308  20.901  0.00  0.00    +0.000 A 
ATOM     29 CL   UNL     1      -7.235  -2.835  21.773  0.00  0.00    +0.000 Cl
ATOM     30  C   UNL     1      -8.114  -5.097  20.629  0.00  0.00    +0.000 A 
ATOM     31  H   UNL     1      -6.589  -7.635  18.950  0.00  0.00    +0.000 HD
ATOM     32  H   UNL     1      -4.619  -6.253  19.422  0.00  0.00    +0.000 HD
ATOM     33  H   UNL     1      -9.091  -4.750  20.959  0.00  0.00    +0.000 HD
ENDBRANCH  20  23
ENDBRANCH  15  20
BRANCH   4  34
ATOM     34  O   UNL     1      -8.602 -12.291  18.779  0.00  0.00    +0.000 OA
ATOM     35  H   UNL     1      -8.010 -11.755  19.356  0.00  0.00    +0.000 HD
ENDBRANCH   4  34
BRANCH   5  36
ATOM     36  O   UNL     1      -8.377 -13.771  16.570  0.00  0.00    +0.000 OA
ATOM     37  H   UNL     1      -7.409 -13.876  16.461  0.00  0.00    +0.000 HD
ENDBRANCH   5  36
BRANCH  11  38
ATOM     38  O   UNL     1      -9.666  -5.509  13.552  0.00  0.00    +0.000 OA
ATOM     39  H   UNL     1     -10.186  -6.070  12.951  0.00  0.00    +0.000 HD
ENDBRANCH  11  38
BRANCH  12  40
ATOM     40  O   UNL     1      -9.688  -4.045  15.826  0.00  0.00    +0.000 OA
ATOM     41  H   UNL     1      -8.852  -3.716  15.439  0.00  0.00    +0.000 HD
ENDBRANCH  12  40
TORSDOF 6
ENDMDL
MODEL 2
REMARK VINA RESULT:    -9.049      3.461      5.757
REMARK INTER + INTRA:         -11.548
REMARK INTER:                 -11.501
REMARK INTRA:                  -0.047
REMARK UNBOUND:                -0.382
REMARK  Name = 
REMARK  6 active torsions:
REMARK  status: ('A' for Active; 'I' for Inactive)
REMARK    1  A    between atoms: C_4  and  O_5
REMARK    2  A    between atoms: C_6  and  O_7
REMARK    3  A    between atoms: C_13  and  O_14
REMARK    4  A    between atoms: C_15  and  O_16
REMARK    5  A    between atoms: N_19  and  C_20
REMARK    6  A    between atoms: C_20  and  C_21
REMARK                            x       y       z     vdW  Elec       q    Type
REMARK                         _______ _______ _______ _____ _____    ______ ____
ROOT
ATOM      1  O   UNL     1     -11.000  -3.676  18.651  0.00  0.00    +0.000 OA
ATOM      2  C   UNL     1      -9.918  -4.226  18.873  0.00  0.00    +0.000 A 
ATOM      3  C   UNL     1      -9.743  -5.607  18.374  0.00  0.00    +0.000 A 
ATOM      4  C   UNL     1     -10.818  -6.252  17.731  0.00  0.00    +0.000 A 
ATOM      5  C   UNL     1     -10.684  -7.561  17.289  0.00  0.00    +0.000 A 
ATOM      6  C   UNL     1      -9.497  -8.242  17.461  0.00  0.00    +0.000 A 
ATOM      7  C   UNL     1      -8.425  -7.601  18.090  0.00  0.00    +0.000 A 
ATOM      8  C   UNL     1      -8.520  -6.271  18.564  0.00  0.00    +0.000 A 
ATOM      9  C   UNL     1      -7.410  -5.574  19.253  0.00  0.00    +0.000 A 
ATOM     10  C   UNL     1      -6.140  -6.180  19.433  0.00  0.00    +0.000 A 
ATOM     11  C   UNL     1      -5.119  -5.518  20.102  0.00  0.00    +0.000 A 
ATOM     12  C   UNL     1      -5.331  -4.248  20.602  0.00  0.00    +0.000 A 
ATOM     13  C   UNL     1      -6.558  -3.625  20.444  0.00  0.00    +0.000 A 
ATOM     14  C   UNL     1      -7.610  -4.264  19.759  0.00  0.00    +0.000 A 
ATOM     15  N   UNL     1      -8.875  -3.613  19.567  0.00  0.00    +0.000 N 
ATOM     16  H   UNL     1      -9.401  -9.268  17.113  0.00  0.00    +0.000 HD
ATOM     17  H   UNL     1      -7.517  -8.185  18.202  0.00  0.00    +0.000 HD
ATOM     18  H   UNL     1      -5.940  -7.176  19.057  0.00  0.00    +0.000 HD
ATOM     19  H   UNL     1      -6.653  -2.641  20.876  0.00  0.00    +0.000 HD
ENDROOT
BRANCH  15  20
ATOM     20  C   UNL     1      -9.112  -2.240  20.043  0.00  0.00    +0.000 C 
ATOM     21  H   UNL     1     -10.013  -1.832  19.573  0.00  0.00    +0.000 HD
ATOM     22  H   UNL     1      -8.306  -1.583  19.690  0.00  0.00    +0.000 HD
BRANCH  20  23
ATOM     23  C   UNL     1      -9.166  -2.143  21.556  0.00  0.00    +0.000 A 
ATOM     24  C   UNL     1      -8.040  -1.729  22.283  0.00  0.00    +0.000 A 
ATOM     25  C   UNL     1      -8.048  -1.742  23.680  0.00  0.00    +0.000 A 
ATOM     26  C   UNL     1      -9.185  -2.157  24.372  0.00  0.00    +0.000 A 
ATOM     27 CL   UNL     1      -9.099  -2.221  26.096  0.00  0.00    +0.000 Cl
ATOM     28  C   UNL     1     -10.334  -2.517  23.663  0.00  0.00    +0.000 A 
ATOM     29 CL   UNL     1     -11.789  -3.019  24.448  0.00  0.00    +0.000 Cl
ATOM     30  C   UNL     1     -10.326  -2.495  22.263  0.00  0.00    +0.000 A 
ATOM     31  H   UNL     1      -7.139  -1.406  21.766  0.00  0.00    +0.000 HD
ATOM     32  H   UNL     1      -7.152  -1.441  24.218  0.00  0.00    +0.000 HD
ATOM     33  H   UNL     1     -11.231  -2.776  21.728  0.00  0.00    +0.000 HD
ENDBRANCH  20  23
ENDBRANCH  15  20
BRANCH   4  34
ATOM     34  O   UNL     1     -12.042  -5.670  17.501  0.00  0.00    +0.000 OA
ATOM     35  H   UNL     1     -12.160  -4.961  18.176  0.00  0.00    +0.000 HD
ENDBRANCH   4  34
BRANCH   5  36
ATOM     36  O   UNL     1     -11.734  -8.191  16.687  0.00  0.00    +0.000 OA
ATOM     37  H   UNL     1     -11.755  -9.081  17.097  0.00  0.00    +0.000 HD
ENDBRANCH   5  36
BRANCH  11  38
ATOM     38  O   UNL     1      -3.887  -6.077  20.290  0.00  0.00    +0.000 OA
ATOM     39  H   UNL     1      -3.307  -5.423  20.714  0.00  0.00    +0.000 HD
ENDBRANCH  11  38
BRANCH  12  40
ATOM     40  O   UNL     1      -4.333  -3.594  21.264  0.00  0.00    +0.000 OA
ATOM     41  H   UNL     1      -4.728  -2.742  21.539  0.00  0.00    +0.000 HD
ENDBRANCH  12  40
TORSDOF 6
ENDMDL
MODEL 3
REMARK VINA RESULT:    -8.596      3.344      5.271
REMARK INTER + INTRA:         -10.988
REMARK INTER:                 -10.455
REMARK INTRA:                  -0.533
REMARK UNBOUND:                -0.382
REMARK  Name = 
REMARK  6 active torsions:
REMARK  status: ('A' for Active; 'I' for Inactive)
REMARK    1  A    between atoms: C_4  and  O_5
REMARK    2  A    between atoms: C_6  and  O_7
REMARK    3  A    between atoms: C_13  and  O_14
REMARK    4  A    between atoms: C_15  and  O_16
REMARK    5  A    between atoms: N_19  and  C_20
REMARK    6  A    between atoms: C_20  and  C_21
REMARK                            x       y       z     vdW  Elec       q    Type
REMARK                         _______ _______ _______ _____ _____    ______ ____
ROOT
ATOM      1  O   UNL     1     -11.245  -8.215  16.230  0.00  0.00    +0.000 OA
ATOM      2  C   UNL     1     -10.589  -7.630  17.096  0.00  0.00    +0.000 A 
ATOM      3  C   UNL     1      -9.661  -8.443  17.911  0.00  0.00    +0.000 A 
ATOM      4  C   UNL     1      -9.607  -9.837  17.715  0.00  0.00    +0.000 A 
ATOM      5  C   UNL     1      -8.768 -10.621  18.495  0.00  0.00    +0.000 A 
ATOM      6  C   UNL     1      -7.970 -10.047  19.463  0.00  0.00    +0.000 A 
ATOM      7  C   UNL     1      -8.015  -8.662  19.654  0.00  0.00    +0.000 A 
ATOM      8  C   UNL     1      -8.860  -7.826  18.887  0.00  0.00    +0.000 A 
ATOM      9  C   UNL     1      -8.945  -6.361  19.081  0.00  0.00    +0.000 A 
ATOM     10  C   UNL     1      -8.130  -5.680  20.021  0.00  0.00    +0.000 A 
ATOM     11  C   UNL     1      -8.240  -4.308  20.204  0.00  0.00    +0.000 A 
ATOM     12  C   UNL     1      -9.155  -3.584  19.464  0.00  0.00    +0.000 A 
ATOM     13  C   UNL     1      -9.966  -4.215  18.536  0.00  0.00    +0.000 A 
ATOM     14  C   UNL     1      -9.870  -5.603  18.317  0.00  0.00    +0.000 A 
ATOM     15  N   UNL     1     -10.689  -6.259  17.338  0.00  0.00    +0.000 N 
ATOM     16  H   UNL     1      -7.319 -10.669  20.071  0.00  0.00    +0.000 HD
ATOM     17  H   UNL     1      -7.370  -8.266  20.431  0.00  0.00    +0.000 HD
ATOM     18  H   UNL     1      -7.405  -6.217  20.621  0.00  0.00    +0.000 HD
ATOM     19  H   UNL     1     -10.667  -3.586  18.009  0.00  0.00    +0.000 HD
ENDROOT
BRANCH  15  20
ATOM     20  C   UNL     1     -11.634  -5.505  16.498  0.00  0.00    +0.000 C 
ATOM     21  H   UNL     1     -12.319  -4.931  17.129  0.00  0.00    +0.000 HD
ATOM     22  H   UNL     1     -12.289  -6.204  15.960  0.00  0.00    +0.000 HD
BRANCH  20  23
ATOM     23  C   UNL     1     -10.939  -4.631  15.471  0.00  0.00    +0.000 A 
ATOM     24  C   UNL     1      -9.918  -5.155  14.665  0.00  0.00    +0.000 A 
ATOM     25  C   UNL     1      -9.200  -4.331  13.795  0.00  0.00    +0.000 A 
ATOM     26  C   UNL     1      -9.500  -2.972  13.709  0.00  0.00    +0.000 A 
ATOM     27 CL   UNL     1      -8.523  -1.997  12.670  0.00  0.00    +0.000 Cl
ATOM     28  C   UNL     1     -10.553  -2.446  14.462  0.00  0.00    +0.000 A 
ATOM     29 CL   UNL     1     -11.000  -0.778  14.392  0.00  0.00    +0.000 Cl
ATOM     30  C   UNL     1     -11.276  -3.277  15.327  0.00  0.00    +0.000 A 
ATOM     31  H   UNL     1      -9.662  -6.212  14.718  0.00  0.00    +0.000 HD
ATOM     32  H   UNL     1      -8.397  -4.759  13.200  0.00  0.00    +0.000 HD
ATOM     33  H   UNL     1     -12.094  -2.850  15.903  0.00  0.00    +0.000 HD
ENDBRANCH  20  23
ENDBRANCH  15  20
BRANCH   4  34
ATOM     34  O   UNL     1     -10.351 -10.514  16.777  0.00  0.00    +0.000 OA
ATOM     35  H   UNL     1     -10.765 -11.283  17.233  0.00  0.00    +0.000 HD
ENDBRANCH   4  34
BRANCH   5  36
ATOM     36  O   UNL     1      -8.734 -11.973  18.318  0.00  0.00    +0.000 OA
ATOM     37  H   UNL     1      -9.339 -12.138  17.564  0.00  0.00    +0.000 HD
ENDBRANCH   5  36
BRANCH  11  38
ATOM     38  O   UNL     1      -7.468  -3.626  21.102  0.00  0.00    +0.000 OA
ATOM     39  H   UNL     1      -6.952  -2.955  20.625  0.00  0.00    +0.000 HD
ENDBRANCH  11  38
BRANCH  12  40
ATOM     40  O   UNL     1      -9.271  -2.236  19.642  0.00  0.00    +0.000 OA
ATOM     41  H   UNL     1      -9.733  -1.915  18.842  0.00  0.00    +0.000 HD
ENDBRANCH  12  40
TORSDOF 6
ENDMDL
MODEL 4
REMARK VINA RESULT:    -8.531      4.093      7.309
REMARK INTER + INTRA:         -10.908
REMARK INTER:                 -10.257
REMARK INTRA:                  -0.651
REMARK UNBOUND:                -0.382
REMARK  Name = 
REMARK  6 active torsions:
REMARK  status: ('A' for Active; 'I' for Inactive)
REMARK    1  A    between atoms: C_4  and  O_5
REMARK    2  A    between atoms: C_6  and  O_7
REMARK    3  A    between atoms: C_13  and  O_14
REMARK    4  A    between atoms: C_15  and  O_16
REMARK    5  A    between atoms: N_19  and  C_20
REMARK    6  A    between atoms: C_20  and  C_21
REMARK                            x       y       z     vdW  Elec       q    Type
REMARK                         _______ _______ _______ _____ _____    ______ ____
ROOT
ATOM      1  O   UNL     1     -10.460  -2.373  19.315  0.00  0.00    +0.000 OA
ATOM      2  C   UNL     1     -10.068  -3.503  19.007  0.00  0.00    +0.000 A 
ATOM      3  C   UNL     1      -8.803  -3.970  19.612  0.00  0.00    +0.000 A 
ATOM      4  C   UNL     1      -8.075  -3.105  20.452  0.00  0.00    +0.000 A 
ATOM      5  C   UNL     1      -6.867  -3.514  20.999  0.00  0.00    +0.000 A 
ATOM      6  C   UNL     1      -6.369  -4.774  20.740  0.00  0.00    +0.000 A 
ATOM      7  C   UNL     1      -7.095  -5.639  19.914  0.00  0.00    +0.000 A 
ATOM      8  C   UNL     1      -8.326  -5.261  19.329  0.00  0.00    +0.000 A 
ATOM      9  C   UNL     1      -9.104  -6.147  18.433  0.00  0.00    +0.000 A 
ATOM     10  C   UNL     1      -8.693  -7.473  18.147  0.00  0.00    +0.000 A 
ATOM     11  C   UNL     1      -9.425  -8.282  17.287  0.00  0.00    +0.000 A 
ATOM     12  C   UNL     1     -10.575  -7.796  16.696  0.00  0.00    +0.000 A 
ATOM     13  C   UNL     1     -11.008  -6.506  16.954  0.00  0.00    +0.000 A 
ATOM     14  C   UNL     1     -10.296  -5.666  17.831  0.00  0.00    +0.000 A 
ATOM     15  N   UNL     1     -10.753  -4.337  18.124  0.00  0.00    +0.000 N 
ATOM     16  H   UNL     1      -5.421  -5.085  21.171  0.00  0.00    +0.000 HD
ATOM     17  H   UNL     1      -6.654  -6.615  19.741  0.00  0.00    +0.000 HD
ATOM     18  H   UNL     1      -7.794  -7.885  18.590  0.00  0.00    +0.000 HD
ATOM     19  H   UNL     1     -11.905  -6.192  16.443  0.00  0.00    +0.000 HD
ENDROOT
BRANCH  15  20
ATOM     20  C   UNL     1     -12.004  -3.813  17.550  0.00  0.00    +0.000 C 
ATOM     21  H   UNL     1     -12.597  -3.326  18.331  0.00  0.00    +0.000 HD
ATOM     22  H   UNL     1     -12.635  -4.647  17.216  0.00  0.00    +0.000 HD
BRANCH  20  23
ATOM     23  C   UNL     1     -11.768  -2.899  16.363  0.00  0.00    +0.000 A 
ATOM     24  C   UNL     1     -12.621  -1.811  16.122  0.00  0.00    +0.000 A 
ATOM     25  C   UNL     1     -12.476  -1.031  14.972  0.00  0.00    +0.000 A 
ATOM     26  C   UNL     1     -11.469  -1.319  14.050  0.00  0.00    +0.000 A 
ATOM     27 CL   UNL     1     -11.396  -0.362  12.615  0.00  0.00    +0.000 Cl
ATOM     28  C   UNL     1     -10.576  -2.362  14.306  0.00  0.00    +0.000 A 
ATOM     29 CL   UNL     1      -9.288  -2.765  13.225  0.00  0.00    +0.000 Cl
ATOM     30  C   UNL     1     -10.718  -3.137  15.463  0.00  0.00    +0.000 A 
ATOM     31  H   UNL     1     -13.417  -1.570  16.823  0.00  0.00    +0.000 HD
ATOM     32  H   UNL     1     -13.167  -0.210  14.798  0.00  0.00    +0.000 HD
ATOM     33  H   UNL     1     -10.011  -3.944  15.646  0.00  0.00    +0.000 HD
ENDBRANCH  20  23
ENDBRANCH  15  20
BRANCH   4  34
ATOM     34  O   UNL     1      -8.477  -1.832  20.783  0.00  0.00    +0.000 OA
ATOM     35  H   UNL     1      -9.187  -1.576  20.149  0.00  0.00    +0.000 HD
ENDBRANCH   4  34
BRANCH   5  36
ATOM     36  O   UNL     1      -6.153  -2.665  21.795  0.00  0.00    +0.000 OA
ATOM     37  H   UNL     1      -6.785  -1.952  22.022  0.00  0.00    +0.000 HD
ENDBRANCH   5  36
BRANCH  11  38
ATOM     38  O   UNL     1      -9.052  -9.563  16.993  0.00  0.00    +0.000 OA
ATOM     39  H   UNL     1      -9.673  -9.928  16.341  0.00  0.00    +0.000 HD
ENDBRANCH  11  38
BRANCH  12  40
ATOM     40  O   UNL     1     -11.297  -8.584  15.847  0.00  0.00    +0.000 OA
ATOM     41  H   UNL     1     -11.259  -9.479  16.240  0.00  0.00    +0.000 HD
ENDBRANCH  12  40
TORSDOF 6
ENDMDL
MODEL 5
REMARK VINA RESULT:    -8.399      3.966      5.939
REMARK INTER + INTRA:         -10.745
REMARK INTER:                 -10.260
REMARK INTRA:                  -0.485
REMARK UNBOUND:                -0.382
REMARK  Name = 
REMARK  6 active torsions:
REMARK  status: ('A' for Active; 'I' for Inactive)
REMARK    1  A    between atoms: C_4  and  O_5
REMARK    2  A    between atoms: C_6  and  O_7
REMARK    3  A    between atoms: C_13  and  O_14
REMARK    4  A    between atoms: C_15  and  O_16
REMARK    5  A    between atoms: N_19  and  C_20
REMARK    6  A    between atoms: C_20  and  C_21
REMARK                            x       y       z     vdW  Elec       q    Type
REMARK                         _______ _______ _______ _____ _____    ______ ____
ROOT
ATOM      1  O   UNL     1     -11.742  -5.860  16.167  0.00  0.00    +0.000 OA
ATOM      2  C   UNL     1     -10.912  -5.783  17.078  0.00  0.00    +0.000 A 
ATOM      3  C   UNL     1     -10.184  -7.017  17.440  0.00  0.00    +0.000 A 
ATOM      4  C   UNL     1     -10.501  -8.225  16.788  0.00  0.00    +0.000 A 
ATOM      5  C   UNL     1      -9.853  -9.401  17.140  0.00  0.00    +0.000 A 
ATOM      6  C   UNL     1      -8.885  -9.402  18.123  0.00  0.00    +0.000 A 
ATOM      7  C   UNL     1      -8.561  -8.202  18.765  0.00  0.00    +0.000 A 
ATOM      8  C   UNL     1      -9.202  -6.983  18.443  0.00  0.00    +0.000 A 
ATOM      9  C   UNL     1      -8.896  -5.702  19.122  0.00  0.00    +0.000 A 
ATOM     10  C   UNL     1      -7.885  -5.599  20.111  0.00  0.00    +0.000 A 
ATOM     11  C   UNL     1      -7.628  -4.395  20.751  0.00  0.00    +0.000 A 
ATOM     12  C   UNL     1      -8.362  -3.271  20.427  0.00  0.00    +0.000 A 
ATOM     13  C   UNL     1      -9.357  -3.333  19.465  0.00  0.00    +0.000 A 
ATOM     14  C   UNL     1      -9.633  -4.536  18.788  0.00  0.00    +0.000 A 
ATOM     15  N   UNL     1     -10.644  -4.602  17.771  0.00  0.00    +0.000 N 
ATOM     16  H   UNL     1      -8.384 -10.327  18.394  0.00  0.00    +0.000 HD
ATOM     17  H   UNL     1      -7.796  -8.262  19.532  0.00  0.00    +0.000 HD
ATOM     18  H   UNL     1      -7.292  -6.462  20.392  0.00  0.00    +0.000 HD
ATOM     19  H   UNL     1      -9.899  -2.419  19.278  0.00  0.00    +0.000 HD
ENDROOT
BRANCH  15  20
ATOM     20  C   UNL     1     -11.405  -3.408  17.367  0.00  0.00    +0.000 C 
ATOM     21  H   UNL     1     -11.671  -2.819  18.251  0.00  0.00    +0.000 HD
ATOM     22  H   UNL     1     -12.374  -3.712  16.948  0.00  0.00    +0.000 HD
BRANCH  20  23
ATOM     23  C   UNL     1     -10.684  -2.576  16.325  0.00  0.00    +0.000 A 
ATOM     24  C   UNL     1      -9.970  -1.429  16.700  0.00  0.00    +0.000 A 
ATOM     25  C   UNL     1      -9.395  -0.597  15.736  0.00  0.00    +0.000 A 
ATOM     26  C   UNL     1      -9.515  -0.906  14.381  0.00  0.00    +0.000 A 
ATOM     27 CL   UNL     1      -8.846   0.205  13.240  0.00  0.00    +0.000 Cl
ATOM     28  C   UNL     1     -10.173  -2.076  13.994  0.00  0.00    +0.000 A 
ATOM     29 CL   UNL     1     -10.343  -2.540  12.338  0.00  0.00    +0.000 Cl
ATOM     30  C   UNL     1     -10.741  -2.912  14.964  0.00  0.00    +0.000 A 
ATOM     31  H   UNL     1      -9.866  -1.163  17.751  0.00  0.00    +0.000 HD
ATOM     32  H   UNL     1      -8.869   0.300  16.054  0.00  0.00    +0.000 HD
ATOM     33  H   UNL     1     -11.247  -3.820  14.643  0.00  0.00    +0.000 HD
ENDBRANCH  20  23
ENDBRANCH  15  20
BRANCH   4  34
ATOM     34  O   UNL     1     -11.443  -8.340  15.793  0.00  0.00    +0.000 OA
ATOM     35  H   UNL     1     -12.316  -8.470  16.230  0.00  0.00    +0.000 HD
ENDBRANCH   4  34
BRANCH   5  36
ATOM     36  O   UNL     1     -10.178 -10.573  16.522  0.00  0.00    +0.000 OA
ATOM     37  H   UNL     1      -9.429 -11.173  16.722  0.00  0.00    +0.000 HD
ENDBRANCH   5  36
BRANCH  11  38
ATOM     38  O   UNL     1      -6.660  -4.267  21.707  0.00  0.00    +0.000 OA
ATOM     39  H   UNL     1      -6.933  -4.763  22.497  0.00  0.00    +0.000 HD
ENDBRANCH  11  38
BRANCH  12  40
ATOM     40  O   UNL     1      -8.118  -2.084  21.056  0.00  0.00    +0.000 OA
ATOM     41  H   UNL     1      -8.965  -1.847  21.484  0.00  0.00    +0.000 HD
ENDBRANCH  12  40
TORSDOF 6
ENDMDL
MODEL 6
REMARK VINA RESULT:    -8.310      1.958      2.935
REMARK INTER + INTRA:         -10.636
REMARK INTER:                 -12.334
REMARK INTRA:                   1.698
REMARK UNBOUND:                -0.382
REMARK  Name = 
REMARK  6 active torsions:
REMARK  status: ('A' for Active; 'I' for Inactive)
REMARK    1  A    between atoms: C_4  and  O_5
REMARK    2  A    between atoms: C_6  and  O_7
REMARK    3  A    between atoms: C_13  and  O_14
REMARK    4  A    between atoms: C_15  and  O_16
REMARK    5  A    between atoms: N_19  and  C_20
REMARK    6  A    between atoms: C_20  and  C_21
REMARK                            x       y       z     vdW  Elec       q    Type
REMARK                         _______ _______ _______ _____ _____    ______ ____
ROOT
ATOM      1  O   UNL     1      -8.820 -11.637  19.503  0.00  0.00    +0.000 OA
ATOM      2  C   UNL     1      -8.809 -11.126  18.380  0.00  0.00    +0.000 A 
ATOM      3  C   UNL     1      -8.837 -12.040  17.218  0.00  0.00    +0.000 A 
ATOM      4  C   UNL     1      -8.813 -13.431  17.430  0.00  0.00    +0.000 A 
ATOM      5  C   UNL     1      -8.801 -14.304  16.350  0.00  0.00    +0.000 A 
ATOM      6  C   UNL     1      -8.825 -13.822  15.058  0.00  0.00    +0.000 A 
ATOM      7  C   UNL     1      -8.859 -12.440  14.844  0.00  0.00    +0.000 A 
ATOM      8  C   UNL     1      -8.863 -11.515  15.915  0.00  0.00    +0.000 A 
ATOM      9  C   UNL     1      -8.876 -10.047  15.719  0.00  0.00    +0.000 A 
ATOM     10  C   UNL     1      -8.946  -9.463  14.428  0.00  0.00    +0.000 A 
ATOM     11  C   UNL     1      -8.935  -8.084  14.264  0.00  0.00    +0.000 A 
ATOM     12  C   UNL     1      -8.855  -7.258  15.368  0.00  0.00    +0.000 A 
ATOM     13  C   UNL     1      -8.787  -7.793  16.644  0.00  0.00    +0.000 A 
ATOM     14  C   UNL     1      -8.809  -9.187  16.845  0.00  0.00    +0.000 A 
ATOM     15  N   UNL     1      -8.766  -9.748  18.166  0.00  0.00    +0.000 N 
ATOM     16  H   UNL     1      -8.814 -14.512  14.219  0.00  0.00    +0.000 HD
ATOM     17  H   UNL     1      -8.873 -12.117  13.808  0.00  0.00    +0.000 HD
ATOM     18  H   UNL     1      -9.006 -10.081  13.540  0.00  0.00    +0.000 HD
ATOM     19  H   UNL     1      -8.709  -7.086  17.455  0.00  0.00    +0.000 HD
ENDROOT
BRANCH  15  20
ATOM     20  C   UNL     1      -8.734  -8.892  19.363  0.00  0.00    +0.000 C 
ATOM     21  H   UNL     1      -7.700  -8.751  19.694  0.00  0.00    +0.000 HD
ATOM     22  H   UNL     1      -9.215  -9.412  20.202  0.00  0.00    +0.000 HD
BRANCH  20  23
ATOM     23  C   UNL     1      -9.451  -7.570  19.159  0.00  0.00    +0.000 A 
ATOM     24  C   UNL     1     -10.771  -7.543  18.688  0.00  0.00    +0.000 A 
ATOM     25  C   UNL     1     -11.400  -6.330  18.395  0.00  0.00    +0.000 A 
ATOM     26  C   UNL     1     -10.723  -5.125  18.579  0.00  0.00    +0.000 A 
ATOM     27 CL   UNL     1     -11.532  -3.669  18.125  0.00  0.00    +0.000 Cl
ATOM     28  C   UNL     1      -9.427  -5.134  19.104  0.00  0.00    +0.000 A 
ATOM     29 CL   UNL     1      -8.532  -3.682  19.384  0.00  0.00    +0.000 Cl
ATOM     30  C   UNL     1      -8.803  -6.350  19.405  0.00  0.00    +0.000 A 
ATOM     31  H   UNL     1     -11.319  -8.470  18.530  0.00  0.00    +0.000 HD
ATOM     32  H   UNL     1     -12.415  -6.339  18.006  0.00  0.00    +0.000 HD
ATOM     33  H   UNL     1      -7.795  -6.336  19.815  0.00  0.00    +0.000 HD
ENDBRANCH  20  23
ENDBRANCH  15  20
BRANCH   4  34
ATOM     34  O   UNL     1      -8.793 -14.023  18.672  0.00  0.00    +0.000 OA
ATOM     35  H   UNL     1      -8.007 -14.615  18.701  0.00  0.00    +0.000 HD
ENDBRANCH   4  34
BRANCH   5  36
ATOM     36  O   UNL     1      -8.756 -15.652  16.559  0.00  0.00    +0.000 OA
ATOM     37  H   UNL     1      -7.811 -15.841  16.736  0.00  0.00    +0.000 HD
ENDBRANCH   5  36
BRANCH  11  38
ATOM     38  O   UNL     1      -9.001  -7.494  13.033  0.00  0.00    +0.000 OA
ATOM     39  H   UNL     1      -9.298  -8.155  12.385  0.00  0.00    +0.000 HD
ENDBRANCH  11  38
BRANCH  12  40
ATOM     40  O   UNL     1      -8.839  -5.902  15.213  0.00  0.00    +0.000 OA
ATOM     41  H   UNL     1      -9.610  -5.582  15.724  0.00  0.00    +0.000 HD
ENDBRANCH  12  40
TORSDOF 6
ENDMDL
MODEL 7
REMARK VINA RESULT:    -8.164      3.219      4.751
REMARK INTER + INTRA:         -10.456
REMARK INTER:                  -9.977
REMARK INTRA:                  -0.479
REMARK UNBOUND:                -0.382
REMARK  Name = 
REMARK  6 active torsions:
REMARK  status: ('A' for Active; 'I' for Inactive)
REMARK    1  A    between atoms: C_4  and  O_5
REMARK    2  A    between atoms: C_6  and  O_7
REMARK    3  A    between atoms: C_13  and  O_14
REMARK    4  A    between atoms: C_15  and  O_16
REMARK    5  A    between atoms: N_19  and  C_20
REMARK    6  A    between atoms: C_20  and  C_21
REMARK                            x       y       z     vdW  Elec       q    Type
REMARK                         _______ _______ _______ _____ _____    ______ ____
ROOT
ATOM      1  O   UNL     1      -7.626  -5.716  20.273  0.00  0.00    +0.000 OA
ATOM      2  C   UNL     1      -8.507  -5.272  19.532  0.00  0.00    +0.000 A 
ATOM      3  C   UNL     1      -9.270  -6.248  18.724  0.00  0.00    +0.000 A 
ATOM      4  C   UNL     1      -8.928  -7.613  18.783  0.00  0.00    +0.000 A 
ATOM      5  C   UNL     1      -9.609  -8.538  18.003  0.00  0.00    +0.000 A 
ATOM      6  C   UNL     1     -10.635  -8.137  17.172  0.00  0.00    +0.000 A 
ATOM      7  C   UNL     1     -10.983  -6.783  17.120  0.00  0.00    +0.000 A 
ATOM      8  C   UNL     1     -10.310  -5.806  17.890  0.00  0.00    +0.000 A 
ATOM      9  C   UNL     1     -10.642  -4.363  17.838  0.00  0.00    +0.000 A 
ATOM     10  C   UNL     1     -11.709  -3.866  17.048  0.00  0.00    +0.000 A 
ATOM     11  C   UNL     1     -11.990  -2.507  16.995  0.00  0.00    +0.000 A 
ATOM     12  C   UNL     1     -11.225  -1.616  17.722  0.00  0.00    +0.000 A 
ATOM     13  C   UNL     1     -10.176  -2.065  18.506  0.00  0.00    +0.000 A 
ATOM     14  C   UNL     1      -9.873  -3.438  18.591  0.00  0.00    +0.000 A 
ATOM     15  N   UNL     1      -8.804  -3.913  19.422  0.00  0.00    +0.000 N 
ATOM     16  H   UNL     1     -11.161  -8.868  16.564  0.00  0.00    +0.000 HD
ATOM     17  H   UNL     1     -11.793  -6.524  16.447  0.00  0.00    +0.000 HD
ATOM     18  H   UNL     1     -12.328  -4.537  16.463  0.00  0.00    +0.000 HD
ATOM     19  H   UNL     1      -9.613  -1.308  19.030  0.00  0.00    +0.000 HD
ENDROOT
BRANCH  15  20
ATOM     20  C   UNL     1      -8.006  -2.992  20.249  0.00  0.00    +0.000 C 
ATOM     21  H   UNL     1      -7.944  -2.012  19.762  0.00  0.00    +0.000 HD
ATOM     22  H   UNL     1      -6.965  -3.337  20.287  0.00  0.00    +0.000 HD
BRANCH  20  23
ATOM     23  C   UNL     1      -8.517  -2.887  21.673  0.00  0.00    +0.000 A 
ATOM     24  C   UNL     1      -9.577  -2.024  21.987  0.00  0.00    +0.000 A 
ATOM     25  C   UNL     1      -9.981  -1.840  23.311  0.00  0.00    +0.000 A 
ATOM     26  C   UNL     1      -9.340  -2.526  24.342  0.00  0.00    +0.000 A 
ATOM     27 CL   UNL     1      -9.839  -2.195  25.962  0.00  0.00    +0.000 Cl
ATOM     28  C   UNL     1      -8.321  -3.434  24.040  0.00  0.00    +0.000 A 
ATOM     29 CL   UNL     1      -7.495  -4.339  25.259  0.00  0.00    +0.000 Cl
ATOM     30  C   UNL     1      -7.924  -3.622  22.711  0.00  0.00    +0.000 A 
ATOM     31  H   UNL     1     -10.090  -1.473  21.201  0.00  0.00    +0.000 HD
ATOM     32  H   UNL     1     -10.789  -1.146  23.529  0.00  0.00    +0.000 HD
ATOM     33  H   UNL     1      -7.131  -4.335  22.495  0.00  0.00    +0.000 HD
ENDBRANCH  20  23
ENDBRANCH  15  20
BRANCH   4  34
ATOM     34  O   UNL     1      -7.929  -8.125  19.577  0.00  0.00    +0.000 OA
ATOM     35  H   UNL     1      -8.193  -9.042  19.822  0.00  0.00    +0.000 HD
ENDBRANCH   4  34
BRANCH   5  36
ATOM     36  O   UNL     1      -9.261  -9.857  18.045  0.00  0.00    +0.000 OA
ATOM     37  H   UNL     1      -9.221 -10.070  19.001  0.00  0.00    +0.000 HD
ENDBRANCH   5  36
BRANCH  11  38
ATOM     38  O   UNL     1     -13.012  -2.001  16.242  0.00  0.00    +0.000 OA
ATOM     39  H   UNL     1     -12.672  -1.263  15.709  0.00  0.00    +0.000 HD
ENDBRANCH  11  38
BRANCH  12  40
ATOM     40  O   UNL     1     -11.494  -0.279  17.671  0.00  0.00    +0.000 OA
ATOM     41  H   UNL     1     -11.154   0.013  16.801  0.00  0.00    +0.000 HD
ENDBRANCH  12  40
TORSDOF 6
ENDMDL
MODEL 8
REMARK VINA RESULT:    -7.991      4.248      6.523
REMARK INTER + INTRA:         -10.242
REMARK INTER:                  -9.633
REMARK INTRA:                  -0.609
REMARK UNBOUND:                -0.382
REMARK  Name = 
REMARK  6 active torsions:
REMARK  status: ('A' for Active; 'I' for Inactive)
REMARK    1  A    between atoms: C_4  and  O_5
REMARK    2  A    between atoms: C_6  and  O_7
REMARK    3  A    between atoms: C_13  and  O_14
REMARK    4  A    between atoms: C_15  and  O_16
REMARK    5  A    between atoms: N_19  and  C_20
REMARK    6  A    between atoms: C_20  and  C_21
REMARK                            x       y       z     vdW  Elec       q    Type
REMARK                         _______ _______ _______ _____ _____    ______ ____
ROOT
ATOM      1  O   UNL     1     -11.799  -4.154  16.864  0.00  0.00    +0.000 OA
ATOM      2  C   UNL     1     -10.855  -4.340  17.638  0.00  0.00    +0.000 A 
ATOM      3  C   UNL     1     -10.140  -5.630  17.537  0.00  0.00    +0.000 A 
ATOM      4  C   UNL     1     -10.590  -6.603  16.624  0.00  0.00    +0.000 A 
ATOM      5  C   UNL     1      -9.953  -7.833  16.541  0.00  0.00    +0.000 A 
ATOM      6  C   UNL     1      -8.866  -8.116  17.342  0.00  0.00    +0.000 A 
ATOM      7  C   UNL     1      -8.410  -7.148  18.243  0.00  0.00    +0.000 A 
ATOM      8  C   UNL     1      -9.035  -5.885  18.366  0.00  0.00    +0.000 A 
ATOM      9  C   UNL     1      -8.589  -4.850  19.327  0.00  0.00    +0.000 A 
ATOM     10  C   UNL     1      -7.454  -5.035  20.157  0.00  0.00    +0.000 A 
ATOM     11  C   UNL     1      -7.064  -4.061  21.067  0.00  0.00    +0.000 A 
ATOM     12  C   UNL     1      -7.786  -2.888  21.173  0.00  0.00    +0.000 A 
ATOM     13  C   UNL     1      -8.899  -2.672  20.378  0.00  0.00    +0.000 A 
ATOM     14  C   UNL     1      -9.312  -3.634  19.436  0.00  0.00    +0.000 A 
ATOM     15  N   UNL     1     -10.448  -3.405  18.590  0.00  0.00    +0.000 N 
ATOM     16  H   UNL     1      -8.375  -9.083  17.272  0.00  0.00    +0.000 HD
ATOM     17  H   UNL     1      -7.555  -7.426  18.850  0.00  0.00    +0.000 HD
ATOM     18  H   UNL     1      -6.867  -5.944  20.102  0.00  0.00    +0.000 HD
ATOM     19  H   UNL     1      -9.421  -1.740  20.530  0.00  0.00    +0.000 HD
ENDROOT
BRANCH  15  20
ATOM     20  C   UNL     1     -11.204  -2.142  18.644  0.00  0.00    +0.000 C 
ATOM     21  H   UNL     1     -11.037  -1.649  19.607  0.00  0.00    +0.000 HD
ATOM     22  H   UNL     1     -12.281  -2.356  18.637  0.00  0.00    +0.000 HD
BRANCH  20  23
ATOM     23  C   UNL     1     -10.901  -1.225  17.475  0.00  0.00    +0.000 A 
ATOM     24  C   UNL     1     -11.942  -0.597  16.775  0.00  0.00    +0.000 A 
ATOM     25  C   UNL     1     -11.679   0.161  15.632  0.00  0.00    +0.000 A 
ATOM     26  C   UNL     1     -10.369   0.313  15.176  0.00  0.00    +0.000 A 
ATOM     27 CL   UNL     1     -10.124   1.200  13.715  0.00  0.00    +0.000 Cl
ATOM     28  C   UNL     1      -9.316  -0.258  15.896  0.00  0.00    +0.000 A 
ATOM     29 CL   UNL     1      -7.666  -0.094  15.410  0.00  0.00    +0.000 Cl
ATOM     30  C   UNL     1      -9.583  -1.010  17.046  0.00  0.00    +0.000 A 
ATOM     31  H   UNL     1     -12.973  -0.705  17.108  0.00  0.00    +0.000 HD
ATOM     32  H   UNL     1     -12.507   0.616  15.094  0.00  0.00    +0.000 HD
ATOM     33  H   UNL     1      -8.749  -1.445  17.594  0.00  0.00    +0.000 HD
ENDBRANCH  20  23
ENDBRANCH  15  20
BRANCH   4  34
ATOM     34  O   UNL     1     -11.658  -6.428  15.774  0.00  0.00    +0.000 OA
ATOM     35  H   UNL     1     -12.079  -7.310  15.650  0.00  0.00    +0.000 HD
ENDBRANCH   4  34
BRANCH   5  36
ATOM     36  O   UNL     1     -10.405  -8.782  15.671  0.00  0.00    +0.000 OA
ATOM     37  H   UNL     1     -10.621  -9.552  16.237  0.00  0.00    +0.000 HD
ENDBRANCH   5  36
BRANCH  11  38
ATOM     38  O   UNL     1      -5.976  -4.214  21.879  0.00  0.00    +0.000 OA
ATOM     39  H   UNL     1      -6.105  -5.003  22.431  0.00  0.00    +0.000 HD
ENDBRANCH  11  38
BRANCH  12  40
ATOM     40  O   UNL     1      -7.411  -1.929  22.069  0.00  0.00    +0.000 OA
ATOM     41  H   UNL     1      -6.469  -1.755  21.872  0.00  0.00    +0.000 HD
ENDBRANCH  12  40
TORSDOF 6
ENDMDL
MODEL 9
REMARK VINA RESULT:    -7.897      4.417      7.517
REMARK INTER + INTRA:         -10.126
REMARK INTER:                  -9.960
REMARK INTRA:                  -0.166
REMARK UNBOUND:                -0.382
REMARK  Name = 
REMARK  6 active torsions:
REMARK  status: ('A' for Active; 'I' for Inactive)
REMARK    1  A    between atoms: C_4  and  O_5
REMARK    2  A    between atoms: C_6  and  O_7
REMARK    3  A    between atoms: C_13  and  O_14
REMARK    4  A    between atoms: C_15  and  O_16
REMARK    5  A    between atoms: N_19  and  C_20
REMARK    6  A    between atoms: C_20  and  C_21
REMARK                            x       y       z     vdW  Elec       q    Type
REMARK                         _______ _______ _______ _____ _____    ______ ____
ROOT
ATOM      1  O   UNL     1      -7.130  -4.372  21.454  0.00  0.00    +0.000 OA
ATOM      2  C   UNL     1      -8.108  -3.964  20.821  0.00  0.00    +0.000 A 
ATOM      3  C   UNL     1      -9.016  -3.020  21.508  0.00  0.00    +0.000 A 
ATOM      4  C   UNL     1      -8.770  -2.677  22.851  0.00  0.00    +0.000 A 
ATOM      5  C   UNL     1      -9.632  -1.821  23.523  0.00  0.00    +0.000 A 
ATOM      6  C   UNL     1     -10.731  -1.287  22.884  0.00  0.00    +0.000 A 
ATOM      7  C   UNL     1     -10.972  -1.618  21.547  0.00  0.00    +0.000 A 
ATOM      8  C   UNL     1     -10.125  -2.493  20.826  0.00  0.00    +0.000 A 
ATOM      9  C   UNL     1     -10.367  -2.879  19.417  0.00  0.00    +0.000 A 
ATOM     10  C   UNL     1     -11.446  -2.345  18.667  0.00  0.00    +0.000 A 
ATOM     11  C   UNL     1     -11.670  -2.736  17.354  0.00  0.00    +0.000 A 
ATOM     12  C   UNL     1     -10.834  -3.661  16.758  0.00  0.00    +0.000 A 
ATOM     13  C   UNL     1      -9.769  -4.203  17.459  0.00  0.00    +0.000 A 
ATOM     14  C   UNL     1      -9.508  -3.816  18.788  0.00  0.00    +0.000 A 
ATOM     15  N   UNL     1      -8.391  -4.354  19.512  0.00  0.00    +0.000 N 
ATOM     16  H   UNL     1     -11.401  -0.619  23.418  0.00  0.00    +0.000 HD
ATOM     17  H   UNL     1     -11.853  -1.173  21.095  0.00  0.00    +0.000 HD
ATOM     18  H   UNL     1     -12.123  -1.621  19.105  0.00  0.00    +0.000 HD
ATOM     19  H   UNL     1      -9.172  -4.930  16.932  0.00  0.00    +0.000 HD
ENDROOT
BRANCH  15  20
ATOM     20  C   UNL     1      -7.453  -5.299  18.884  0.00  0.00    +0.000 C 
ATOM     21  H   UNL     1      -6.554  -5.399  19.502  0.00  0.00    +0.000 HD
ATOM     22  H   UNL     1      -7.082  -4.880  17.940  0.00  0.00    +0.000 HD
BRANCH  20  23
ATOM     23  C   UNL     1      -8.087  -6.644  18.582  0.00  0.00    +0.000 A 
ATOM     24  C   UNL     1      -8.387  -7.538  19.620  0.00  0.00    +0.000 A 
ATOM     25  C   UNL     1      -8.870  -8.819  19.343  0.00  0.00    +0.000 A 
ATOM     26  C   UNL     1      -9.072  -9.223  18.023  0.00  0.00    +0.000 A 
ATOM     27 CL   UNL     1      -9.598 -10.844  17.748  0.00  0.00    +0.000 Cl
ATOM     28  C   UNL     1      -8.833  -8.323  16.981  0.00  0.00    +0.000 A 
ATOM     29 CL   UNL     1      -9.082  -8.739  15.321  0.00  0.00    +0.000 Cl
ATOM     30  C   UNL     1      -8.358  -7.036  17.263  0.00  0.00    +0.000 A 
ATOM     31  H   UNL     1      -8.233  -7.249  20.658  0.00  0.00    +0.000 HD
ATOM     32  H   UNL     1      -9.070  -9.501  20.165  0.00  0.00    +0.000 HD
ATOM     33  H   UNL     1      -8.180  -6.349  16.438  0.00  0.00    +0.000 HD
ENDBRANCH  20  23
ENDBRANCH  15  20
BRANCH   4  34
ATOM     34  O   UNL     1      -7.704  -3.143  23.585  0.00  0.00    +0.000 OA
ATOM     35  H   UNL     1      -8.072  -3.668  24.334  0.00  0.00    +0.000 HD
ENDBRANCH   4  34
BRANCH   5  36
ATOM     36  O   UNL     1      -9.403  -1.507  24.832  0.00  0.00    +0.000 OA
ATOM     37  H   UNL     1      -8.889  -0.674  24.799  0.00  0.00    +0.000 HD
ENDBRANCH   5  36
BRANCH  11  38
ATOM     38  O   UNL     1     -12.701  -2.238  16.609  0.00  0.00    +0.000 OA
ATOM     39  H   UNL     1     -13.398  -1.924  17.209  0.00  0.00    +0.000 HD
ENDBRANCH  11  38
BRANCH  12  40
ATOM     40  O   UNL     1     -11.051  -4.053  15.469  0.00  0.00    +0.000 OA
ATOM     41  H   UNL     1     -12.023  -4.119  15.386  0.00  0.00    +0.000 HD
ENDBRANCH  12  40
TORSDOF 6
ENDMDL
