REMARK  Name = 
REMARK  8 active torsions:
REMARK  status: ('A' for Active; 'I' for Inactive)
REMARK    1  A    between atoms: C_1  and  N_2
REMARK    2  A    between atoms: N_2  and  C_3
REMARK    3  A    between atoms: C_3  and  N_5
REMARK    4  A    between atoms: N_5  and  C_6
REMARK    5  A    between atoms: N_5  and  C_7
REMARK    6  A    between atoms: C_11  and  C_12
REMARK    7  A    between atoms: C_13  and  O_14
REMARK    8  A    between atoms: O_14  and  C_15
REMARK                            x       y       z     vdW  Elec       q    Type
REMARK                         _______ _______ _______ _____ _____    ______ ____
ROOT
ATOM      1  C   UNL     1       2.637  -1.262  -0.453  0.00  0.00    +0.000 C 
ATOM      2  C   UNL     1       1.722  -1.914  -1.594  0.00  0.00    +0.000 C 
ATOM      3  C   UNL     1       0.495  -0.912  -1.995  0.00  0.00    +0.000 C 
ATOM      4  O   UNL     1       1.238   0.387  -1.848  0.00  0.00    +0.000 OA
ATOM      5  C   UNL     1       1.351   0.761  -0.453  0.00  0.00    +0.000 C 
ATOM      6  C   UNL     1       1.619  -0.533   0.454  0.00  0.00    +0.000 C 
ATOM      7  N   UNL     1       0.203   1.571  -0.357  0.00  0.00    +0.000 N 
ATOM      8  C   UNL     1      -0.134   2.889  -0.588  0.00  0.00    +0.000 A 
ATOM      9  C   UNL     1       0.454   3.807  -1.484  0.00  0.00    +0.000 A 
ATOM     10  C   UNL     1      -0.178   5.036  -1.634  0.00  0.00    +0.000 A 
ATOM     11  C   UNL     1      -1.320   5.364  -0.881  0.00  0.00    +0.000 A 
ATOM     12  C   UNL     1      -1.895   4.444  -0.002  0.00  0.00    +0.000 A 
ATOM     13  C   UNL     1      -1.347   3.189   0.165  0.00  0.00    +0.000 A 
ATOM     14  C   UNL     1      -1.707   1.955   0.841  0.00  0.00    +0.000 A 
ATOM     15  C   UNL     1      -3.028   1.741   1.263  0.00  0.00    +0.000 A 
ATOM     16  C   UNL     1      -3.767   0.879   0.440  0.00  0.00    +0.000 A 
ATOM     17  C   UNL     1      -2.928   0.124  -0.421  0.00  0.00    +0.000 A 
ATOM     18  C   UNL     1      -2.929  -1.265  -0.271  0.00  0.00    +0.000 A 
ATOM     19  C   UNL     1      -3.581  -2.146   0.588  0.00  0.00    +0.000 A 
ATOM     20  C   UNL     1      -4.360  -3.002  -0.121  0.00  0.00    +0.000 A 
ATOM     21  C   UNL     1      -4.073  -3.182  -1.490  0.00  0.00    +0.000 A 
ATOM     22  C   UNL     1      -2.854  -2.689  -2.106  0.00  0.00    +0.000 A 
ATOM     23  C   UNL     1      -2.094  -1.758  -1.355  0.00  0.00    +0.000 A 
ATOM     24  N   UNL     1      -0.927  -0.875  -1.427  0.00  0.00    +0.000 N 
ATOM     25  C   UNL     1      -1.574   0.179  -0.765  0.00  0.00    +0.000 A 
ATOM     26  C   UNL     1      -0.956   1.118   0.035  0.00  0.00    +0.000 A 
ATOM     27  C   UNL     1      -5.025   0.612   1.066  0.00  0.00    +0.000 C 
ATOM     28  O   UNL     1      -6.114   0.240   0.657  0.00  0.00    +0.000 OA
ATOM     29  N   UNL     1      -4.779   0.963   2.392  0.00  0.00    +0.000 N 
ATOM     30  C   UNL     1      -3.445   1.460   2.647  0.00  0.00    +0.000 C 
ATOM     31  H   UNL     1       3.260  -0.515  -0.963  0.00  0.00    +0.000 HD
ATOM     32  H   UNL     1       2.387  -1.963  -2.474  0.00  0.00    +0.000 HD
ATOM     33  H   UNL     1       1.399  -2.936  -1.391  0.00  0.00    +0.000 HD
ATOM     34  H   UNL     1       0.321  -1.032  -3.072  0.00  0.00    +0.000 HD
ATOM     35  H   UNL     1       2.016  -0.258   1.434  0.00  0.00    +0.000 HD
ATOM     36  H   UNL     1       1.303   3.523  -2.109  0.00  0.00    +0.000 HD
ATOM     37  H   UNL     1       0.243   5.751  -2.348  0.00  0.00    +0.000 HD
ATOM     38  H   UNL     1      -1.776   6.327  -1.044  0.00  0.00    +0.000 HD
ATOM     39  H   UNL     1      -2.829   4.711   0.508  0.00  0.00    +0.000 HD
ATOM     40  H   UNL     1      -3.811  -1.884   1.616  0.00  0.00    +0.000 HD
ATOM     41  H   UNL     1      -5.255  -3.387   0.357  0.00  0.00    +0.000 HD
ATOM     42  H   UNL     1      -4.861  -3.648  -2.082  0.00  0.00    +0.000 HD
ATOM     43  H   UNL     1      -2.709  -2.850  -3.166  0.00  0.00    +0.000 HD
ATOM     44  H   UNL     1      -5.522   0.915   3.070  0.00  0.00    +0.000 HD
ATOM     45  H   UNL     1      -3.419   2.298   3.332  0.00  0.00    +0.000 HD
ATOM     46  H   UNL     1      -2.853   0.607   3.029  0.00  0.00    +0.000 HD
ENDROOT
BRANCH   5  47
ATOM     47  C   UNL     1       2.448   1.750   0.065  0.00  0.00    +0.000 C 
ATOM     48  H   UNL     1       2.922   2.351  -0.703  0.00  0.00    +0.000 HD
ATOM     49  H   UNL     1       2.000   2.428   0.821  0.00  0.00    +0.000 HD
ATOM     50  H   UNL     1       3.227   1.271   0.669  0.00  0.00    +0.000 HD
ENDBRANCH   5  47
BRANCH   1  51
ATOM     51  N   UNL     1       3.662  -2.029   0.320  0.00  0.00    +0.000 N 
BRANCH  51  52
ATOM     52  C   UNL     1       3.186  -3.223   1.010  0.00  0.00    +0.000 C 
ATOM     53  H   UNL     1       2.730  -3.898   0.295  0.00  0.00    +0.000 HD
ATOM     54  H   UNL     1       2.474  -2.960   1.796  0.00  0.00    +0.000 HD
ATOM     55  H   UNL     1       4.039  -3.734   1.476  0.00  0.00    +0.000 HD
ENDBRANCH  51  52
BRANCH  51  56
ATOM     56  C   UNL     1       4.628  -1.257   0.998  0.00  0.00    +0.000 C 
ATOM     57  S   UNL     1       4.784  -1.084   2.665  0.00  0.00    +0.000 S 
BRANCH  56  58
ATOM     58  N   UNL     1       5.522  -0.549   0.234  0.00  0.00    +0.000 N 
ATOM     59  H   UNL     1       6.201  -0.060   0.817  0.00  0.00    +0.000 HD
BRANCH  58  60
ATOM     60  C   UNL     1       6.058  -1.052  -1.013  0.00  0.00    +0.000 C 
ATOM     61  H   UNL     1       5.255  -1.346  -1.693  0.00  0.00    +0.000 HD
ATOM     62  H   UNL     1       6.670  -0.271  -1.468  0.00  0.00    +0.000 HD
ATOM     63  H   UNL     1       6.676  -1.928  -0.794  0.00  0.00    +0.000 HD
ENDBRANCH  58  60
ENDBRANCH  56  58
ENDBRANCH  51  56
ENDBRANCH   1  51
BRANCH   6  64
ATOM     64  O   UNL     1       0.633  -1.558   0.655  0.00  0.00    +0.000 OA
BRANCH  64  65
ATOM     65  C   UNL     1      -0.230  -1.435   1.756  0.00  0.00    +0.000 C 
ATOM     66  H   UNL     1      -1.194  -1.112   1.405  0.00  0.00    +0.000 HD
ATOM     67  H   UNL     1      -0.399  -2.425   2.185  0.00  0.00    +0.000 HD
ATOM     68  H   UNL     1       0.112  -0.720   2.499  0.00  0.00    +0.000 HD
ENDBRANCH  64  65
ENDBRANCH   6  64
TORSDOF 8
