MODEL 1
REMARK VINA RESULT:    -8.108      0.000      0.000
REMARK INTER + INTRA:          -9.985
REMARK INTER:                  -9.530
REMARK INTRA:                  -0.455
REMARK UNBOUND:                -0.455
REMARK  Name = 
REMARK  5 active torsions:
REMARK  status: ('A' for Active; 'I' for Inactive)
REMARK    1  A    between atoms: C_2  and  C_3
REMARK    2  A    between atoms: C_12  and  O_13
REMARK    3  A    between atoms: C_14  and  O_15
REMARK    4  A    between atoms: C_21  and  O_22
REMARK    5  A    between atoms: C_23  and  O_24
REMARK                            x       y       z     vdW  Elec       q    Type
REMARK                         _______ _______ _______ _____ _____    ______ ____
ROOT
ATOM      1  O   UNL     1      -8.511  -8.629  20.772  0.00  0.00    +0.000 OA
ATOM      2  C   UNL     1      -8.478  -7.831  19.838  0.00  0.00    +0.000 C 
ATOM      3  N   UNL     1      -8.953  -8.239  18.579  0.00  0.00    +0.000 N 
ATOM      4  C   UNL     1      -9.529  -7.410  17.625  0.00  0.00    +0.000 A 
ATOM      5  C   UNL     1     -10.055  -6.114  17.653  0.00  0.00    +0.000 A 
ATOM      6  C   UNL     1      -9.839  -5.393  16.484  0.00  0.00    +0.000 A 
ATOM      7  C   UNL     1      -9.207  -5.973  15.382  0.00  0.00    +0.000 A 
ATOM      8  C   UNL     1      -9.072  -7.357  15.282  0.00  0.00    +0.000 A 
ATOM      9  C   UNL     1      -9.355  -8.096  16.438  0.00  0.00    +0.000 A 
ATOM     10  C   UNL     1      -9.580  -9.439  16.837  0.00  0.00    +0.000 A 
ATOM     11  C   UNL     1     -10.181 -10.596  16.316  0.00  0.00    +0.000 A 
ATOM     12  C   UNL     1      -9.956 -11.824  16.964  0.00  0.00    +0.000 A 
ATOM     13  C   UNL     1      -8.965 -11.895  17.944  0.00  0.00    +0.000 A 
ATOM     14  C   UNL     1      -8.395 -10.745  18.479  0.00  0.00    +0.000 A 
ATOM     15  C   UNL     1      -8.933  -9.523  18.067  0.00  0.00    +0.000 A 
ATOM     16  H   UNL     1     -10.416  -5.651  18.565  0.00  0.00    +0.000 HD
ATOM     17  H   UNL     1      -8.625  -7.818  14.404  0.00  0.00    +0.000 HD
ATOM     18  H   UNL     1     -10.895 -10.525  15.502  0.00  0.00    +0.000 HD
ATOM     19  H   UNL     1     -10.518 -12.691  16.669  0.00  0.00    +0.000 HD
ENDROOT
BRANCH   2  20
ATOM     20  C   UNL     1      -7.859  -6.479  20.098  0.00  0.00    +0.000 A 
ATOM     21  C   UNL     1      -6.524  -6.269  19.716  0.00  0.00    +0.000 A 
ATOM     22  C   UNL     1      -5.919  -5.034  19.939  0.00  0.00    +0.000 A 
ATOM     23  C   UNL     1      -6.611  -4.006  20.560  0.00  0.00    +0.000 A 
ATOM     24  C   UNL     1      -7.945  -4.186  20.917  0.00  0.00    +0.000 A 
ATOM     25  C   UNL     1      -8.572  -5.401  20.649  0.00  0.00    +0.000 A 
ATOM     26  H   UNL     1      -5.965  -7.075  19.244  0.00  0.00    +0.000 HD
ATOM     27  H   UNL     1      -4.886  -4.887  19.616  0.00  0.00    +0.000 HD
ATOM     28  H   UNL     1      -6.138  -3.043  20.706  0.00  0.00    +0.000 HD
ATOM     29  H   UNL     1      -8.498  -3.380  21.393  0.00  0.00    +0.000 HD
ATOM     30  H   UNL     1      -9.625  -5.476  20.891  0.00  0.00    +0.000 HD
ENDBRANCH   2  20
BRANCH   6  31
ATOM     31  O   UNL     1     -10.136  -4.063  16.416  0.00  0.00    +0.000 OA
ATOM     32  H   UNL     1     -10.530  -3.818  17.274  0.00  0.00    +0.000 HD
ENDBRANCH   6  31
BRANCH   7  33
ATOM     33  O   UNL     1      -8.687  -5.168  14.409  0.00  0.00    +0.000 OA
ATOM     34  H   UNL     1      -7.966  -4.679  14.857  0.00  0.00    +0.000 HD
ENDBRANCH   7  33
BRANCH  13  35
ATOM     35  O   UNL     1      -8.512 -13.099  18.402  0.00  0.00    +0.000 OA
ATOM     36  H   UNL     1      -9.006 -13.326  19.209  0.00  0.00    +0.000 HD
ENDBRANCH  13  35
BRANCH  14  37
ATOM     37  O   UNL     1      -7.308 -10.830  19.305  0.00  0.00    +0.000 OA
ATOM     38  H   UNL     1      -7.515 -11.566  19.913  0.00  0.00    +0.000 HD
ENDBRANCH  14  37
TORSDOF 5
ENDMDL
MODEL 2
REMARK VINA RESULT:    -7.889      4.460      6.863
REMARK INTER + INTRA:          -9.727
REMARK INTER:                  -9.183
REMARK INTRA:                  -0.544
REMARK UNBOUND:                -0.455
REMARK  Name = 
REMARK  5 active torsions:
REMARK  status: ('A' for Active; 'I' for Inactive)
REMARK    1  A    between atoms: C_2  and  C_3
REMARK    2  A    between atoms: C_12  and  O_13
REMARK    3  A    between atoms: C_14  and  O_15
REMARK    4  A    between atoms: C_21  and  O_22
REMARK    5  A    between atoms: C_23  and  O_24
REMARK                            x       y       z     vdW  Elec       q    Type
REMARK                         _______ _______ _______ _____ _____    ______ ____
ROOT
ATOM      1  O   UNL     1      -7.490  -3.725  23.755  0.00  0.00    +0.000 OA
ATOM      2  C   UNL     1      -8.142  -2.825  23.230  0.00  0.00    +0.000 C 
ATOM      3  N   UNL     1      -8.578  -2.986  21.903  0.00  0.00    +0.000 N 
ATOM      4  C   UNL     1      -9.730  -2.434  21.359  0.00  0.00    +0.000 A 
ATOM      5  C   UNL     1     -10.878  -1.848  21.901  0.00  0.00    +0.000 A 
ATOM      6  C   UNL     1     -11.398  -0.811  21.136  0.00  0.00    +0.000 A 
ATOM      7  C   UNL     1     -10.829  -0.462  19.909  0.00  0.00    +0.000 A 
ATOM      8  C   UNL     1      -9.955  -1.328  19.254  0.00  0.00    +0.000 A 
ATOM      9  C   UNL     1      -9.481  -2.416  19.999  0.00  0.00    +0.000 A 
ATOM     10  C   UNL     1      -8.795  -3.643  19.808  0.00  0.00    +0.000 A 
ATOM     11  C   UNL     1      -8.727  -4.662  18.844  0.00  0.00    +0.000 A 
ATOM     12  C   UNL     1      -7.694  -5.612  18.938  0.00  0.00    +0.000 A 
ATOM     13  C   UNL     1      -6.644  -5.377  19.827  0.00  0.00    +0.000 A 
ATOM     14  C   UNL     1      -6.729  -4.388  20.800  0.00  0.00    +0.000 A 
ATOM     15  C   UNL     1      -7.949  -3.714  20.911  0.00  0.00    +0.000 A 
ATOM     16  H   UNL     1     -11.212  -2.049  22.914  0.00  0.00    +0.000 HD
ATOM     17  H   UNL     1      -9.547  -1.084  18.276  0.00  0.00    +0.000 HD
ATOM     18  H   UNL     1      -9.520  -4.781  18.114  0.00  0.00    +0.000 HD
ATOM     19  H   UNL     1      -7.708  -6.477  18.301  0.00  0.00    +0.000 HD
ENDROOT
BRANCH   2  20
ATOM     20  C   UNL     1      -8.369  -1.568  24.036  0.00  0.00    +0.000 A 
ATOM     21  C   UNL     1      -8.902  -1.690  25.330  0.00  0.00    +0.000 A 
ATOM     22  C   UNL     1      -9.124  -0.553  26.104  0.00  0.00    +0.000 A 
ATOM     23  C   UNL     1      -8.850   0.710  25.604  0.00  0.00    +0.000 A 
ATOM     24  C   UNL     1      -8.293   0.848  24.336  0.00  0.00    +0.000 A 
ATOM     25  C   UNL     1      -8.018  -0.289  23.578  0.00  0.00    +0.000 A 
ATOM     26  H   UNL     1      -9.138  -2.677  25.725  0.00  0.00    +0.000 HD
ATOM     27  H   UNL     1      -9.521  -0.673  27.114  0.00  0.00    +0.000 HD
ATOM     28  H   UNL     1      -9.005   1.585  26.225  0.00  0.00    +0.000 HD
ATOM     29  H   UNL     1      -8.063   1.835  23.942  0.00  0.00    +0.000 HD
ATOM     30  H   UNL     1      -7.532  -0.137  22.621  0.00  0.00    +0.000 HD
ENDBRANCH   2  20
BRANCH   6  31
ATOM     31  O   UNL     1     -12.409  -0.027  21.611  0.00  0.00    +0.000 OA
ATOM     32  H   UNL     1     -12.377   0.809  21.109  0.00  0.00    +0.000 HD
ENDBRANCH   6  31
BRANCH   7  33
ATOM     33  O   UNL     1     -11.112   0.758  19.363  0.00  0.00    +0.000 OA
ATOM     34  H   UNL     1     -11.409   1.301  20.123  0.00  0.00    +0.000 HD
ENDBRANCH   7  33
BRANCH  13  35
ATOM     35  O   UNL     1      -5.491  -6.107  19.764  0.00  0.00    +0.000 OA
ATOM     36  H   UNL     1      -5.510  -6.774  20.472  0.00  0.00    +0.000 HD
ENDBRANCH  13  35
BRANCH  14  37
ATOM     37  O   UNL     1      -5.632  -4.052  21.545  0.00  0.00    +0.000 OA
ATOM     38  H   UNL     1      -5.994  -3.576  22.318  0.00  0.00    +0.000 HD
ENDBRANCH  14  37
TORSDOF 5
ENDMDL
MODEL 3
REMARK VINA RESULT:    -7.834      2.272      6.943
REMARK INTER + INTRA:          -9.663
REMARK INTER:                  -9.096
REMARK INTRA:                  -0.567
REMARK UNBOUND:                -0.455
REMARK  Name = 
REMARK  5 active torsions:
REMARK  status: ('A' for Active; 'I' for Inactive)
REMARK    1  A    between atoms: C_2  and  C_3
REMARK    2  A    between atoms: C_12  and  O_13
REMARK    3  A    between atoms: C_14  and  O_15
REMARK    4  A    between atoms: C_21  and  O_22
REMARK    5  A    between atoms: C_23  and  O_24
REMARK                            x       y       z     vdW  Elec       q    Type
REMARK                         _______ _______ _______ _____ _____    ______ ____
ROOT
ATOM      1  O   UNL     1     -11.911  -5.890  15.944  0.00  0.00    +0.000 OA
ATOM      2  C   UNL     1     -10.894  -6.257  16.529  0.00  0.00    +0.000 C 
ATOM      3  N   UNL     1     -10.330  -5.417  17.505  0.00  0.00    +0.000 N 
ATOM      4  C   UNL     1      -9.614  -5.838  18.617  0.00  0.00    +0.000 A 
ATOM      5  C   UNL     1      -9.455  -7.068  19.264  0.00  0.00    +0.000 A 
ATOM      6  C   UNL     1      -8.189  -7.264  19.802  0.00  0.00    +0.000 A 
ATOM      7  C   UNL     1      -7.213  -6.267  19.736  0.00  0.00    +0.000 A 
ATOM      8  C   UNL     1      -7.557  -4.948  19.441  0.00  0.00    +0.000 A 
ATOM      9  C   UNL     1      -8.857  -4.735  18.964  0.00  0.00    +0.000 A 
ATOM     10  C   UNL     1      -9.761  -3.668  18.724  0.00  0.00    +0.000 A 
ATOM     11  C   UNL     1     -10.096  -2.434  19.303  0.00  0.00    +0.000 A 
ATOM     12  C   UNL     1     -10.909  -1.545  18.575  0.00  0.00    +0.000 A 
ATOM     13  C   UNL     1     -11.153  -1.810  17.227  0.00  0.00    +0.000 A 
ATOM     14  C   UNL     1     -10.848  -3.044  16.666  0.00  0.00    +0.000 A 
ATOM     15  C   UNL     1     -10.385  -4.036  17.535  0.00  0.00    +0.000 A 
ATOM     16  H   UNL     1     -10.182  -7.869  19.179  0.00  0.00    +0.000 HD
ATOM     17  H   UNL     1      -6.809  -4.158  19.437  0.00  0.00    +0.000 HD
ATOM     18  H   UNL     1      -9.831  -2.220  20.333  0.00  0.00    +0.000 HD
ATOM     19  H   UNL     1     -11.293  -0.664  19.054  0.00  0.00    +0.000 HD
ENDROOT
BRANCH   2  20
ATOM     20  C   UNL     1     -10.280  -7.569  16.101  0.00  0.00    +0.000 A 
ATOM     21  C   UNL     1     -10.949  -8.760  16.428  0.00  0.00    +0.000 A 
ATOM     22  C   UNL     1     -10.413  -9.989  16.049  0.00  0.00    +0.000 A 
ATOM     23  C   UNL     1      -9.206 -10.059  15.372  0.00  0.00    +0.000 A 
ATOM     24  C   UNL     1      -8.545  -8.887  15.012  0.00  0.00    +0.000 A 
ATOM     25  C   UNL     1      -9.103  -7.653  15.341  0.00  0.00    +0.000 A 
ATOM     26  H   UNL     1     -11.889  -8.717  16.976  0.00  0.00    +0.000 HD
ATOM     27  H   UNL     1     -10.960 -10.901  16.297  0.00  0.00    +0.000 HD
ATOM     28  H   UNL     1      -8.812 -11.019  15.062  0.00  0.00    +0.000 HD
ATOM     29  H   UNL     1      -7.605  -8.933  14.469  0.00  0.00    +0.000 HD
ATOM     30  H   UNL     1      -8.583  -6.769  14.992  0.00  0.00    +0.000 HD
ENDBRANCH   2  20
BRANCH   6  31
ATOM     31  O   UNL     1      -7.822  -8.476  20.310  0.00  0.00    +0.000 OA
ATOM     32  H   UNL     1      -7.129  -8.305  20.974  0.00  0.00    +0.000 HD
ENDBRANCH   6  31
BRANCH   7  33
ATOM     33  O   UNL     1      -5.903  -6.599  19.931  0.00  0.00    +0.000 OA
ATOM     34  H   UNL     1      -5.819  -6.694  20.903  0.00  0.00    +0.000 HD
ENDBRANCH   7  33
BRANCH  13  35
ATOM     35  O   UNL     1     -11.690  -0.857  16.409  0.00  0.00    +0.000 OA
ATOM     36  H   UNL     1     -12.659  -0.896  16.487  0.00  0.00    +0.000 HD
ENDBRANCH  13  35
BRANCH  14  37
ATOM     37  O   UNL     1     -10.927  -3.230  15.313  0.00  0.00    +0.000 OA
ATOM     38  H   UNL     1     -10.214  -3.866  15.108  0.00  0.00    +0.000 HD
ENDBRANCH  14  37
TORSDOF 5
ENDMDL
MODEL 4
REMARK VINA RESULT:    -7.789      3.301      6.228
REMARK INTER + INTRA:          -9.611
REMARK INTER:                  -9.037
REMARK INTRA:                  -0.574
REMARK UNBOUND:                -0.455
REMARK  Name = 
REMARK  5 active torsions:
REMARK  status: ('A' for Active; 'I' for Inactive)
REMARK    1  A    between atoms: C_2  and  C_3
REMARK    2  A    between atoms: C_12  and  O_13
REMARK    3  A    between atoms: C_14  and  O_15
REMARK    4  A    between atoms: C_21  and  O_22
REMARK    5  A    between atoms: C_23  and  O_24
REMARK                            x       y       z     vdW  Elec       q    Type
REMARK                         _______ _______ _______ _____ _____    ______ ____
ROOT
ATOM      1  O   UNL     1     -10.537  -6.857  15.926  0.00  0.00    +0.000 OA
ATOM      2  C   UNL     1     -10.177  -5.975  16.703  0.00  0.00    +0.000 C 
ATOM      3  N   UNL     1     -10.521  -4.641  16.423  0.00  0.00    +0.000 N 
ATOM      4  C   UNL     1     -10.736  -3.647  17.369  0.00  0.00    +0.000 A 
ATOM      5  C   UNL     1     -10.956  -3.649  18.750  0.00  0.00    +0.000 A 
ATOM      6  C   UNL     1     -10.399  -2.561  19.412  0.00  0.00    +0.000 A 
ATOM      7  C   UNL     1      -9.743  -1.547  18.712  0.00  0.00    +0.000 A 
ATOM      8  C   UNL     1      -9.907  -1.407  17.334  0.00  0.00    +0.000 A 
ATOM      9  C   UNL     1     -10.531  -2.472  16.670  0.00  0.00    +0.000 A 
ATOM     10  C   UNL     1     -11.112  -2.771  15.411  0.00  0.00    +0.000 A 
ATOM     11  C   UNL     1     -11.864  -2.112  14.425  0.00  0.00    +0.000 A 
ATOM     12  C   UNL     1     -12.027  -2.733  13.173  0.00  0.00    +0.000 A 
ATOM     13  C   UNL     1     -11.248  -3.851  12.872  0.00  0.00    +0.000 A 
ATOM     14  C   UNL     1     -10.530  -4.518  13.856  0.00  0.00    +0.000 A 
ATOM     15  C   UNL     1     -10.707  -4.081  15.173  0.00  0.00    +0.000 A 
ATOM     16  H   UNL     1     -11.347  -4.514  19.277  0.00  0.00    +0.000 HD
ATOM     17  H   UNL     1      -9.439  -0.590  16.791  0.00  0.00    +0.000 HD
ATOM     18  H   UNL     1     -12.404  -1.202  14.663  0.00  0.00    +0.000 HD
ATOM     19  H   UNL     1     -12.713  -2.316  12.460  0.00  0.00    +0.000 HD
ENDROOT
BRANCH   2  20
ATOM     20  C   UNL     1      -9.321  -6.387  17.876  0.00  0.00    +0.000 A 
ATOM     21  C   UNL     1      -9.814  -7.370  18.751  0.00  0.00    +0.000 A 
ATOM     22  C   UNL     1      -9.052  -7.777  19.845  0.00  0.00    +0.000 A 
ATOM     23  C   UNL     1      -7.816  -7.205  20.101  0.00  0.00    +0.000 A 
ATOM     24  C   UNL     1      -7.299  -6.252  19.228  0.00  0.00    +0.000 A 
ATOM     25  C   UNL     1      -8.032  -5.880  18.103  0.00  0.00    +0.000 A 
ATOM     26  H   UNL     1     -10.791  -7.813  18.569  0.00  0.00    +0.000 HD
ATOM     27  H   UNL     1      -9.446  -8.556  20.500  0.00  0.00    +0.000 HD
ATOM     28  H   UNL     1      -7.223  -7.547  20.941  0.00  0.00    +0.000 HD
ATOM     29  H   UNL     1      -6.324  -5.809  19.415  0.00  0.00    +0.000 HD
ATOM     30  H   UNL     1      -7.566  -5.178  17.421  0.00  0.00    +0.000 HD
ENDBRANCH   2  20
BRANCH   6  31
ATOM     31  O   UNL     1     -10.376  -2.507  20.776  0.00  0.00    +0.000 OA
ATOM     32  H   UNL     1     -11.148  -1.978  21.050  0.00  0.00    +0.000 HD
ENDBRANCH   6  31
BRANCH   7  33
ATOM     33  O   UNL     1      -8.907  -0.702  19.385  0.00  0.00    +0.000 OA
ATOM     34  H   UNL     1      -8.207  -1.287  19.742  0.00  0.00    +0.000 HD
ENDBRANCH   7  33
BRANCH  13  35
ATOM     35  O   UNL     1     -11.156  -4.320  11.592  0.00  0.00    +0.000 OA
ATOM     36  H   UNL     1     -10.736  -3.636  11.043  0.00  0.00    +0.000 HD
ENDBRANCH  13  35
BRANCH  14  37
ATOM     37  O   UNL     1      -9.637  -5.498  13.520  0.00  0.00    +0.000 OA
ATOM     38  H   UNL     1     -10.005  -5.901  12.710  0.00  0.00    +0.000 HD
ENDBRANCH  14  37
TORSDOF 5
ENDMDL
MODEL 5
REMARK VINA RESULT:    -7.736      5.142      8.618
REMARK INTER + INTRA:          -9.548
REMARK INTER:                  -8.998
REMARK INTRA:                  -0.550
REMARK UNBOUND:                -0.455
REMARK  Name = 
REMARK  5 active torsions:
REMARK  status: ('A' for Active; 'I' for Inactive)
REMARK    1  A    between atoms: C_2  and  C_3
REMARK    2  A    between atoms: C_12  and  O_13
REMARK    3  A    between atoms: C_14  and  O_15
REMARK    4  A    between atoms: C_21  and  O_22
REMARK    5  A    between atoms: C_23  and  O_24
REMARK                            x       y       z     vdW  Elec       q    Type
REMARK                         _______ _______ _______ _____ _____    ______ ____
ROOT
ATOM      1  O   UNL     1      -9.364  -1.061  19.506  0.00  0.00    +0.000 OA
ATOM      2  C   UNL     1      -9.554  -1.031  20.720  0.00  0.00    +0.000 C 
ATOM      3  N   UNL     1      -8.711  -1.781  21.560  0.00  0.00    +0.000 N 
ATOM      4  C   UNL     1      -8.375  -1.455  22.867  0.00  0.00    +0.000 A 
ATOM      5  C   UNL     1      -8.479  -0.293  23.638  0.00  0.00    +0.000 A 
ATOM      6  C   UNL     1      -8.750  -0.529  24.981  0.00  0.00    +0.000 A 
ATOM      7  C   UNL     1      -8.837  -1.829  25.483  0.00  0.00    +0.000 A 
ATOM      8  C   UNL     1      -8.336  -2.910  24.760  0.00  0.00    +0.000 A 
ATOM      9  C   UNL     1      -7.995  -2.662  23.424  0.00  0.00    +0.000 A 
ATOM     10  C   UNL     1      -7.295  -3.275  22.354  0.00  0.00    +0.000 A 
ATOM     11  C   UNL     1      -6.162  -4.085  22.176  0.00  0.00    +0.000 A 
ATOM     12  C   UNL     1      -5.955  -4.692  20.923  0.00  0.00    +0.000 A 
ATOM     13  C   UNL     1      -6.990  -4.668  19.987  0.00  0.00    +0.000 A 
ATOM     14  C   UNL     1      -8.095  -3.841  20.152  0.00  0.00    +0.000 A 
ATOM     15  C   UNL     1      -8.070  -2.963  21.240  0.00  0.00    +0.000 A 
ATOM     16  H   UNL     1      -8.543   0.696  23.196  0.00  0.00    +0.000 HD
ATOM     17  H   UNL     1      -8.356  -3.918  25.168  0.00  0.00    +0.000 HD
ATOM     18  H   UNL     1      -5.404  -4.147  22.949  0.00  0.00    +0.000 HD
ATOM     19  H   UNL     1      -5.028  -5.195  20.723  0.00  0.00    +0.000 HD
ENDROOT
BRANCH   2  20
ATOM     20  C   UNL     1     -10.735  -0.235  21.221  0.00  0.00    +0.000 A 
ATOM     21  C   UNL     1     -11.860  -0.933  21.694  0.00  0.00    +0.000 A 
ATOM     22  C   UNL     1     -12.969  -0.233  22.164  0.00  0.00    +0.000 A 
ATOM     23  C   UNL     1     -12.992   1.153  22.151  0.00  0.00    +0.000 A 
ATOM     24  C   UNL     1     -11.875   1.861  21.715  0.00  0.00    +0.000 A 
ATOM     25  C   UNL     1     -10.742   1.167  21.293  0.00  0.00    +0.000 A 
ATOM     26  H   UNL     1     -11.859  -2.021  21.691  0.00  0.00    +0.000 HD
ATOM     27  H   UNL     1     -13.824  -0.795  22.544  0.00  0.00    +0.000 HD
ATOM     28  H   UNL     1     -13.850   1.685  22.542  0.00  0.00    +0.000 HD
ATOM     29  H   UNL     1     -11.880   2.948  21.714  0.00  0.00    +0.000 HD
ATOM     30  H   UNL     1      -9.877   1.758  21.018  0.00  0.00    +0.000 HD
ENDBRANCH   2  20
BRANCH   6  31
ATOM     31  O   UNL     1      -9.052   0.499  25.826  0.00  0.00    +0.000 OA
ATOM     32  H   UNL     1     -10.024   0.531  25.894  0.00  0.00    +0.000 HD
ENDBRANCH   6  31
BRANCH   7  33
ATOM     33  O   UNL     1      -9.451  -2.041  26.685  0.00  0.00    +0.000 OA
ATOM     34  H   UNL     1      -8.715  -2.239  27.302  0.00  0.00    +0.000 HD
ENDBRANCH   7  33
BRANCH  13  35
ATOM     35  O   UNL     1      -6.957  -5.467  18.880  0.00  0.00    +0.000 OA
ATOM     36  H   UNL     1      -7.644  -6.149  18.973  0.00  0.00    +0.000 HD
ENDBRANCH  13  35
BRANCH  14  37
ATOM     37  O   UNL     1      -9.177  -3.955  19.324  0.00  0.00    +0.000 OA
ATOM     38  H   UNL     1      -8.821  -3.797  18.428  0.00  0.00    +0.000 HD
ENDBRANCH  14  37
TORSDOF 5
ENDMDL
MODEL 6
REMARK VINA RESULT:    -7.617      3.089      4.625
REMARK INTER + INTRA:          -9.407
REMARK INTER:                  -9.439
REMARK INTRA:                   0.031
REMARK UNBOUND:                -0.455
REMARK  Name = 
REMARK  5 active torsions:
REMARK  status: ('A' for Active; 'I' for Inactive)
REMARK    1  A    between atoms: C_2  and  C_3
REMARK    2  A    between atoms: C_12  and  O_13
REMARK    3  A    between atoms: C_14  and  O_15
REMARK    4  A    between atoms: C_21  and  O_22
REMARK    5  A    between atoms: C_23  and  O_24
REMARK                            x       y       z     vdW  Elec       q    Type
REMARK                         _______ _______ _______ _____ _____    ______ ____
ROOT
ATOM      1  O   UNL     1      -8.282  -6.672  19.908  0.00  0.00    +0.000 OA
ATOM      2  C   UNL     1      -8.166  -5.454  19.797  0.00  0.00    +0.000 C 
ATOM      3  N   UNL     1      -9.079  -4.755  18.988  0.00  0.00    +0.000 N 
ATOM      4  C   UNL     1      -9.485  -3.440  19.177  0.00  0.00    +0.000 A 
ATOM      5  C   UNL     1      -9.393  -2.537  20.241  0.00  0.00    +0.000 A 
ATOM      6  C   UNL     1      -9.211  -1.217  19.847  0.00  0.00    +0.000 A 
ATOM      7  C   UNL     1      -9.193  -0.861  18.497  0.00  0.00    +0.000 A 
ATOM      8  C   UNL     1      -9.681  -1.730  17.522  0.00  0.00    +0.000 A 
ATOM      9  C   UNL     1      -9.932  -3.047  17.930  0.00  0.00    +0.000 A 
ATOM     10  C   UNL     1     -10.584  -4.218  17.466  0.00  0.00    +0.000 A 
ATOM     11  C   UNL     1     -11.727  -4.551  16.722  0.00  0.00    +0.000 A 
ATOM     12  C   UNL     1     -11.874  -5.874  16.267  0.00  0.00    +0.000 A 
ATOM     13  C   UNL     1     -10.784  -6.741  16.358  0.00  0.00    +0.000 A 
ATOM     14  C   UNL     1      -9.668  -6.420  17.122  0.00  0.00    +0.000 A 
ATOM     15  C   UNL     1      -9.733  -5.242  17.872  0.00  0.00    +0.000 A 
ATOM     16  H   UNL     1      -9.274  -2.860  21.271  0.00  0.00    +0.000 HD
ATOM     17  H   UNL     1      -9.715  -1.439  16.474  0.00  0.00    +0.000 HD
ATOM     18  H   UNL     1     -12.532  -3.834  16.601  0.00  0.00    +0.000 HD
ATOM     19  H   UNL     1     -12.803  -6.183  15.823  0.00  0.00    +0.000 HD
ENDROOT
BRANCH   2  20
ATOM     20  C   UNL     1      -6.994  -4.799  20.488  0.00  0.00    +0.000 A 
ATOM     21  C   UNL     1      -5.717  -4.938  19.918  0.00  0.00    +0.000 A 
ATOM     22  C   UNL     1      -4.612  -4.347  20.527  0.00  0.00    +0.000 A 
ATOM     23  C   UNL     1      -4.748  -3.640  21.712  0.00  0.00    +0.000 A 
ATOM     24  C   UNL     1      -6.010  -3.466  22.274  0.00  0.00    +0.000 A 
ATOM     25  C   UNL     1      -7.126  -4.009  21.641  0.00  0.00    +0.000 A 
ATOM     26  H   UNL     1      -5.597  -5.507  18.998  0.00  0.00    +0.000 HD
ATOM     27  H   UNL     1      -3.633  -4.452  20.056  0.00  0.00    +0.000 HD
ATOM     28  H   UNL     1      -3.885  -3.165  22.162  0.00  0.00    +0.000 HD
ATOM     29  H   UNL     1      -6.126  -2.900  23.195  0.00  0.00    +0.000 HD
ATOM     30  H   UNL     1      -8.093  -3.800  22.083  0.00  0.00    +0.000 HD
ENDBRANCH   2  20
BRANCH   6  31
ATOM     31  O   UNL     1      -8.931  -0.244  20.763  0.00  0.00    +0.000 OA
ATOM     32  H   UNL     1      -8.134   0.219  20.446  0.00  0.00    +0.000 HD
ENDBRANCH   6  31
BRANCH   7  33
ATOM     33  O   UNL     1      -8.660   0.342  18.130  0.00  0.00    +0.000 OA
ATOM     34  H   UNL     1      -8.635   0.308  17.151  0.00  0.00    +0.000 HD
ENDBRANCH   7  33
BRANCH  13  35
ATOM     35  O   UNL     1     -10.774  -7.932  15.689  0.00  0.00    +0.000 OA
ATOM     36  H   UNL     1      -9.858  -8.259  15.660  0.00  0.00    +0.000 HD
ENDBRANCH  13  35
BRANCH  14  37
ATOM     37  O   UNL     1      -8.541  -7.193  17.062  0.00  0.00    +0.000 OA
ATOM     38  H   UNL     1      -7.936  -6.703  16.471  0.00  0.00    +0.000 HD
ENDBRANCH  14  37
TORSDOF 5
ENDMDL
MODEL 7
REMARK VINA RESULT:    -7.510      4.874      7.939
REMARK INTER + INTRA:          -9.283
REMARK INTER:                  -8.998
REMARK INTRA:                  -0.285
REMARK UNBOUND:                -0.455
REMARK  Name = 
REMARK  5 active torsions:
REMARK  status: ('A' for Active; 'I' for Inactive)
REMARK    1  A    between atoms: C_2  and  C_3
REMARK    2  A    between atoms: C_12  and  O_13
REMARK    3  A    between atoms: C_14  and  O_15
REMARK    4  A    between atoms: C_21  and  O_22
REMARK    5  A    between atoms: C_23  and  O_24
REMARK                            x       y       z     vdW  Elec       q    Type
REMARK                         _______ _______ _______ _____ _____    ______ ____
ROOT
ATOM      1  O   UNL     1      -5.857  -3.995  23.258  0.00  0.00    +0.000 OA
ATOM      2  C   UNL     1      -6.771  -3.804  22.458  0.00  0.00    +0.000 C 
ATOM      3  N   UNL     1      -7.845  -2.979  22.837  0.00  0.00    +0.000 N 
ATOM      4  C   UNL     1      -8.608  -2.200  21.978  0.00  0.00    +0.000 A 
ATOM      5  C   UNL     1      -8.447  -1.763  20.659  0.00  0.00    +0.000 A 
ATOM      6  C   UNL     1      -9.636  -1.678  19.943  0.00  0.00    +0.000 A 
ATOM      7  C   UNL     1     -10.864  -1.952  20.547  0.00  0.00    +0.000 A 
ATOM      8  C   UNL     1     -10.986  -1.989  21.936  0.00  0.00    +0.000 A 
ATOM      9  C   UNL     1      -9.791  -2.005  22.666  0.00  0.00    +0.000 A 
ATOM     10  C   UNL     1      -9.334  -1.838  23.998  0.00  0.00    +0.000 A 
ATOM     11  C   UNL     1      -9.657  -1.063  25.124  0.00  0.00    +0.000 A 
ATOM     12  C   UNL     1      -9.087  -1.402  26.364  0.00  0.00    +0.000 A 
ATOM     13  C   UNL     1      -8.420  -2.622  26.485  0.00  0.00    +0.000 A 
ATOM     14  C   UNL     1      -8.074  -3.370  25.367  0.00  0.00    +0.000 A 
ATOM     15  C   UNL     1      -8.331  -2.796  24.118  0.00  0.00    +0.000 A 
ATOM     16  H   UNL     1      -7.474  -1.691  20.183  0.00  0.00    +0.000 HD
ATOM     17  H   UNL     1     -11.950  -2.153  22.413  0.00  0.00    +0.000 HD
ATOM     18  H   UNL     1     -10.241  -0.155  25.016  0.00  0.00    +0.000 HD
ATOM     19  H   UNL     1      -9.207  -0.740  27.202  0.00  0.00    +0.000 HD
ENDROOT
BRANCH   2  20
ATOM     20  C   UNL     1      -6.705  -4.532  21.137  0.00  0.00    +0.000 A 
ATOM     21  C   UNL     1      -5.446  -4.738  20.548  0.00  0.00    +0.000 A 
ATOM     22  C   UNL     1      -5.345  -5.407  19.330  0.00  0.00    +0.000 A 
ATOM     23  C   UNL     1      -6.479  -5.856  18.671  0.00  0.00    +0.000 A 
ATOM     24  C   UNL     1      -7.732  -5.689  19.255  0.00  0.00    +0.000 A 
ATOM     25  C   UNL     1      -7.834  -5.067  20.498  0.00  0.00    +0.000 A 
ATOM     26  H   UNL     1      -4.551  -4.373  21.049  0.00  0.00    +0.000 HD
ATOM     27  H   UNL     1      -4.355  -5.573  18.901  0.00  0.00    +0.000 HD
ATOM     28  H   UNL     1      -6.385  -6.396  17.737  0.00  0.00    +0.000 HD
ATOM     29  H   UNL     1      -8.624  -6.050  18.750  0.00  0.00    +0.000 HD
ATOM     30  H   UNL     1      -8.822  -5.010  20.940  0.00  0.00    +0.000 HD
ENDBRANCH   2  20
BRANCH   6  31
ATOM     31  O   UNL     1      -9.630  -1.437  18.600  0.00  0.00    +0.000 OA
ATOM     32  H   UNL     1      -9.164  -2.184  18.182  0.00  0.00    +0.000 HD
ENDBRANCH   6  31
BRANCH   7  33
ATOM     33  O   UNL     1     -11.951  -2.218  19.763  0.00  0.00    +0.000 OA
ATOM     34  H   UNL     1     -11.791  -3.123  19.424  0.00  0.00    +0.000 HD
ENDBRANCH   7  33
BRANCH  13  35
ATOM     35  O   UNL     1      -8.095  -3.127  27.712  0.00  0.00    +0.000 OA
ATOM     36  H   UNL     1      -7.537  -3.914  27.582  0.00  0.00    +0.000 HD
ENDBRANCH  13  35
BRANCH  14  37
ATOM     37  O   UNL     1      -7.582  -4.639  25.506  0.00  0.00    +0.000 OA
ATOM     38  H   UNL     1      -7.115  -4.631  26.364  0.00  0.00    +0.000 HD
ENDBRANCH  14  37
TORSDOF 5
ENDMDL
MODEL 8
REMARK VINA RESULT:    -7.318      4.361      7.452
REMARK INTER + INTRA:          -9.056
REMARK INTER:                  -8.602
REMARK INTRA:                  -0.454
REMARK UNBOUND:                -0.455
REMARK  Name = 
REMARK  5 active torsions:
REMARK  status: ('A' for Active; 'I' for Inactive)
REMARK    1  A    between atoms: C_2  and  C_3
REMARK    2  A    between atoms: C_12  and  O_13
REMARK    3  A    between atoms: C_14  and  O_15
REMARK    4  A    between atoms: C_21  and  O_22
REMARK    5  A    between atoms: C_23  and  O_24
REMARK                            x       y       z     vdW  Elec       q    Type
REMARK                         _______ _______ _______ _____ _____    ______ ____
ROOT
ATOM      1  O   UNL     1      -6.255  -3.977  22.560  0.00  0.00    +0.000 OA
ATOM      2  C   UNL     1      -7.105  -3.894  21.676  0.00  0.00    +0.000 C 
ATOM      3  N   UNL     1      -8.181  -3.006  21.848  0.00  0.00    +0.000 N 
ATOM      4  C   UNL     1      -8.861  -2.354  20.829  0.00  0.00    +0.000 A 
ATOM      5  C   UNL     1      -8.597  -2.123  19.475  0.00  0.00    +0.000 A 
ATOM      6  C   UNL     1      -9.730  -2.130  18.669  0.00  0.00    +0.000 A 
ATOM      7  C   UNL     1     -11.005  -2.291  19.216  0.00  0.00    +0.000 A 
ATOM      8  C   UNL     1     -11.225  -2.116  20.582  0.00  0.00    +0.000 A 
ATOM      9  C   UNL     1     -10.084  -2.040  21.392  0.00  0.00    +0.000 A 
ATOM     10  C   UNL     1      -9.717  -1.680  22.714  0.00  0.00    +0.000 A 
ATOM     11  C   UNL     1     -10.099  -0.740  23.684  0.00  0.00    +0.000 A 
ATOM     12  C   UNL     1      -9.626  -0.896  25.000  0.00  0.00    +0.000 A 
ATOM     13  C   UNL     1      -9.001  -2.094  25.350  0.00  0.00    +0.000 A 
ATOM     14  C   UNL     1      -8.597  -3.008  24.384  0.00  0.00    +0.000 A 
ATOM     15  C   UNL     1      -8.751  -2.625  23.048  0.00  0.00    +0.000 A 
ATOM     16  H   UNL     1      -7.592  -2.139  19.066  0.00  0.00    +0.000 HD
ATOM     17  H   UNL     1     -12.224  -2.191  21.006  0.00  0.00    +0.000 HD
ATOM     18  H   UNL     1     -10.650   0.150  23.400  0.00  0.00    +0.000 HD
ATOM     19  H   UNL     1      -9.787  -0.115  25.719  0.00  0.00    +0.000 HD
ENDROOT
BRANCH   2  20
ATOM     20  C   UNL     1      -6.965  -4.815  20.487  0.00  0.00    +0.000 A 
ATOM     21  C   UNL     1      -5.695  -4.970  19.906  0.00  0.00    +0.000 A 
ATOM     22  C   UNL     1      -5.527  -5.812  18.808  0.00  0.00    +0.000 A 
ATOM     23  C   UNL     1      -6.607  -6.486  18.259  0.00  0.00    +0.000 A 
ATOM     24  C   UNL     1      -7.867  -6.368  18.841  0.00  0.00    +0.000 A 
ATOM     25  C   UNL     1      -8.031  -5.569  19.971  0.00  0.00    +0.000 A 
ATOM     26  H   UNL     1      -4.844  -4.431  20.319  0.00  0.00    +0.000 HD
ATOM     27  H   UNL     1      -4.528  -5.932  18.385  0.00  0.00    +0.000 HD
ATOM     28  H   UNL     1      -6.459  -7.155  17.421  0.00  0.00    +0.000 HD
ATOM     29  H   UNL     1      -8.715  -6.904  18.424  0.00  0.00    +0.000 HD
ATOM     30  H   UNL     1      -9.015  -5.553  20.424  0.00  0.00    +0.000 HD
ENDBRANCH   2  20
BRANCH   6  31
ATOM     31  O   UNL     1      -9.624  -2.093  17.309  0.00  0.00    +0.000 OA
ATOM     32  H   UNL     1     -10.479  -1.770  16.969  0.00  0.00    +0.000 HD
ENDBRANCH   6  31
BRANCH   7  33
ATOM     33  O   UNL     1     -12.041  -2.655  18.403  0.00  0.00    +0.000 OA
ATOM     34  H   UNL     1     -12.520  -3.341  18.912  0.00  0.00    +0.000 HD
ENDBRANCH   7  33
BRANCH  13  35
ATOM     35  O   UNL     1      -8.776  -2.414  26.659  0.00  0.00    +0.000 OA
ATOM     36  H   UNL     1      -9.127  -1.697  27.215  0.00  0.00    +0.000 HD
ENDBRANCH  13  35
BRANCH  14  37
ATOM     37  O   UNL     1      -8.149  -4.248  24.746  0.00  0.00    +0.000 OA
ATOM     38  H   UNL     1      -8.296  -4.805  23.957  0.00  0.00    +0.000 HD
ENDBRANCH  14  37
TORSDOF 5
ENDMDL
MODEL 9
REMARK VINA RESULT:    -7.171      6.022      9.471
REMARK INTER + INTRA:          -8.883
REMARK INTER:                  -8.300
REMARK INTRA:                  -0.584
REMARK UNBOUND:                -0.455
REMARK  Name = 
REMARK  5 active torsions:
REMARK  status: ('A' for Active; 'I' for Inactive)
REMARK    1  A    between atoms: C_2  and  C_3
REMARK    2  A    between atoms: C_12  and  O_13
REMARK    3  A    between atoms: C_14  and  O_15
REMARK    4  A    between atoms: C_21  and  O_22
REMARK    5  A    between atoms: C_23  and  O_24
REMARK                            x       y       z     vdW  Elec       q    Type
REMARK                         _______ _______ _______ _____ _____    ______ ____
ROOT
ATOM      1  O   UNL     1     -11.253   1.512  22.643  0.00  0.00    +0.000 OA
ATOM      2  C   UNL     1     -10.989   0.377  22.252  0.00  0.00    +0.000 C 
ATOM      3  N   UNL     1     -11.088   0.090  20.879  0.00  0.00    +0.000 N 
ATOM      4  C   UNL     1     -10.329  -0.847  20.192  0.00  0.00    +0.000 A 
ATOM      5  C   UNL     1      -9.153  -1.547  20.481  0.00  0.00    +0.000 A 
ATOM      6  C   UNL     1      -9.122  -2.837  19.965  0.00  0.00    +0.000 A 
ATOM      7  C   UNL     1     -10.167  -3.326  19.178  0.00  0.00    +0.000 A 
ATOM      8  C   UNL     1     -11.100  -2.460  18.608  0.00  0.00    +0.000 A 
ATOM      9  C   UNL     1     -11.090  -1.139  19.075  0.00  0.00    +0.000 A 
ATOM     10  C   UNL     1     -11.620   0.133  18.738  0.00  0.00    +0.000 A 
ATOM     11  C   UNL     1     -11.918   0.865  17.577  0.00  0.00    +0.000 A 
ATOM     12  C   UNL     1     -12.689   2.035  17.696  0.00  0.00    +0.000 A 
ATOM     13  C   UNL     1     -13.330   2.296  18.909  0.00  0.00    +0.000 A 
ATOM     14  C   UNL     1     -13.010   1.589  20.062  0.00  0.00    +0.000 A 
ATOM     15  C   UNL     1     -11.949   0.683  19.973  0.00  0.00    +0.000 A 
ATOM     16  H   UNL     1      -8.425  -1.191  21.204  0.00  0.00    +0.000 HD
ATOM     17  H   UNL     1     -11.886  -2.830  17.955  0.00  0.00    +0.000 HD
ATOM     18  H   UNL     1     -11.465   0.598  16.628  0.00  0.00    +0.000 HD
ATOM     19  H   UNL     1     -12.806   2.683  16.848  0.00  0.00    +0.000 HD
ENDROOT
BRANCH   2  20
ATOM     20  C   UNL     1     -10.641  -0.657  23.296  0.00  0.00    +0.000 A 
ATOM     21  C   UNL     1      -9.553  -0.407  24.149  0.00  0.00    +0.000 A 
ATOM     22  C   UNL     1      -9.202  -1.336  25.126  0.00  0.00    +0.000 A 
ATOM     23  C   UNL     1      -9.900  -2.527  25.255  0.00  0.00    +0.000 A 
ATOM     24  C   UNL     1     -11.000  -2.778  24.439  0.00  0.00    +0.000 A 
ATOM     25  C   UNL     1     -11.388  -1.828  23.496  0.00  0.00    +0.000 A 
ATOM     26  H   UNL     1      -8.987   0.517  24.044  0.00  0.00    +0.000 HD
ATOM     27  H   UNL     1      -8.365  -1.112  25.790  0.00  0.00    +0.000 HD
ATOM     28  H   UNL     1      -9.633  -3.231  26.033  0.00  0.00    +0.000 HD
ATOM     29  H   UNL     1     -11.560  -3.704  24.543  0.00  0.00    +0.000 HD
ATOM     30  H   UNL     1     -12.284  -2.040  22.923  0.00  0.00    +0.000 HD
ENDBRANCH   2  20
BRANCH   6  31
ATOM     31  O   UNL     1      -8.125  -3.704  20.304  0.00  0.00    +0.000 OA
ATOM     32  H   UNL     1      -8.473  -4.604  20.162  0.00  0.00    +0.000 HD
ENDBRANCH   6  31
BRANCH   7  33
ATOM     33  O   UNL     1     -10.292  -4.674  18.994  0.00  0.00    +0.000 OA
ATOM     34  H   UNL     1     -11.024  -4.765  18.349  0.00  0.00    +0.000 HD
ENDBRANCH   7  33
BRANCH  13  35
ATOM     35  O   UNL     1     -14.304   3.250  18.999  0.00  0.00    +0.000 OA
ATOM     36  H   UNL     1     -15.170   2.807  18.980  0.00  0.00    +0.000 HD
ENDBRANCH  13  35
BRANCH  14  37
ATOM     37  O   UNL     1     -13.763   1.732  21.195  0.00  0.00    +0.000 OA
ATOM     38  H   UNL     1     -13.449   1.025  21.791  0.00  0.00    +0.000 HD
ENDBRANCH  14  37
TORSDOF 5
ENDMDL
