REMARK  Name = 
REMARK  6 active torsions:
REMARK  status: ('A' for Active; 'I' for Inactive)
REMARK    1  A    between atoms: C_1  and  O_2
REMARK    2  A    between atoms: O_2  and  C_3
REMARK    3  A    between atoms: C_4  and  N_5
REMARK    4  A    between atoms: N_5  and  C_6
REMARK    5  A    between atoms: C_7  and  C_9
REMARK    6  A    between atoms: C_18  and  C_19
REMARK                            x       y       z     vdW  Elec       q    Type
REMARK                         _______ _______ _______ _____ _____    ______ ____
ROOT
ATOM      1  C   UNL     1       1.785  -0.156   0.279  0.00  0.00    +0.000 C 
ATOM      2  C   UNL     1       2.200   1.359   0.287  0.00  0.00    +0.000 C 
ATOM      3  C   UNL     1       0.991   2.245  -0.093  0.00  0.00    +0.000 C 
ATOM      4  C   UNL     1      -0.376   1.699   0.315  0.00  0.00    +0.000 C 
ATOM      5  O   UNL     1      -0.150   0.870   1.471  0.00  0.00    +0.000 OA
ATOM      6  C   UNL     1       0.579  -0.373   1.229  0.00  0.00    +0.000 C 
ATOM      7  N   UNL     1      -0.400  -1.348   0.736  0.00  0.00    +0.000 N 
ATOM      8  C   UNL     1      -0.765  -2.594   1.329  0.00  0.00    +0.000 A 
ATOM      9  C   UNL     1      -0.103  -3.832   1.329  0.00  0.00    +0.000 A 
ATOM     10  C   UNL     1      -0.769  -4.943   1.872  0.00  0.00    +0.000 A 
ATOM     11  C   UNL     1      -2.028  -4.833   2.460  0.00  0.00    +0.000 A 
ATOM     12  C   UNL     1      -2.697  -3.619   2.487  0.00  0.00    +0.000 A 
ATOM     13  C   UNL     1      -2.111  -2.502   1.874  0.00  0.00    +0.000 A 
ATOM     14  C   UNL     1      -2.645  -1.262   1.479  0.00  0.00    +0.000 A 
ATOM     15  C   UNL     1      -4.015  -1.070   1.396  0.00  0.00    +0.000 A 
ATOM     16  C   UNL     1      -4.471  -0.687   0.136  0.00  0.00    +0.000 A 
ATOM     17  C   UNL     1      -3.436  -0.026  -0.560  0.00  0.00    +0.000 A 
ATOM     18  C   UNL     1      -3.619   1.355  -0.735  0.00  0.00    +0.000 A 
ATOM     19  C   UNL     1      -4.679   2.252  -0.589  0.00  0.00    +0.000 A 
ATOM     20  C   UNL     1      -4.978   2.894  -1.766  0.00  0.00    +0.000 A 
ATOM     21  C   UNL     1      -3.948   3.085  -2.684  0.00  0.00    +0.000 A 
ATOM     22  C   UNL     1      -2.596   2.715  -2.391  0.00  0.00    +0.000 A 
ATOM     23  C   UNL     1      -2.405   1.827  -1.320  0.00  0.00    +0.000 A 
ATOM     24  N   UNL     1      -1.293   1.104  -0.711  0.00  0.00    +0.000 N 
ATOM     25  C   UNL     1      -2.040  -0.018  -0.405  0.00  0.00    +0.000 A 
ATOM     26  C   UNL     1      -1.655  -0.898   0.574  0.00  0.00    +0.000 A 
ATOM     27  C   UNL     1      -5.889  -0.572   0.163  0.00  0.00    +0.000 C 
ATOM     28  O   UNL     1      -6.749  -0.494  -0.701  0.00  0.00    +0.000 OA
ATOM     29  N   UNL     1      -6.156  -0.584   1.531  0.00  0.00    +0.000 N 
ATOM     30  C   UNL     1      -4.994  -0.641   2.396  0.00  0.00    +0.000 C 
ATOM     31  H   UNL     1       2.614  -0.780   0.674  0.00  0.00    +0.000 HD
ATOM     32  H   UNL     1       2.478   1.583   1.329  0.00  0.00    +0.000 HD
ATOM     33  H   UNL     1       0.948   2.545  -1.133  0.00  0.00    +0.000 HD
ATOM     34  H   UNL     1       1.142   3.165   0.502  0.00  0.00    +0.000 HD
ATOM     35  H   UNL     1      -0.965   2.547   0.695  0.00  0.00    +0.000 HD
ATOM     36  H   UNL     1       0.858  -3.964   0.840  0.00  0.00    +0.000 HD
ATOM     37  H   UNL     1      -0.309  -5.926   1.810  0.00  0.00    +0.000 HD
ATOM     38  H   UNL     1      -2.531  -5.711   2.854  0.00  0.00    +0.000 HD
ATOM     39  H   UNL     1      -3.706  -3.550   2.870  0.00  0.00    +0.000 HD
ATOM     40  H   UNL     1      -5.339   2.257   0.270  0.00  0.00    +0.000 HD
ATOM     41  H   UNL     1      -5.991   3.256  -1.936  0.00  0.00    +0.000 HD
ATOM     42  H   UNL     1      -4.197   3.579  -3.621  0.00  0.00    +0.000 HD
ATOM     43  H   UNL     1      -1.805   2.989  -3.069  0.00  0.00    +0.000 HD
ATOM     44  H   UNL     1      -7.088  -0.408   1.856  0.00  0.00    +0.000 HD
ATOM     45  H   UNL     1      -4.756   0.396   2.687  0.00  0.00    +0.000 HD
ATOM     46  H   UNL     1      -5.112  -1.291   3.252  0.00  0.00    +0.000 HD
ENDROOT
BRANCH   6  47
ATOM     47  C   UNL     1       1.046  -0.766   2.650  0.00  0.00    +0.000 C 
ATOM     48  H   UNL     1       1.583  -1.719   2.660  0.00  0.00    +0.000 HD
ATOM     49  H   UNL     1       1.689   0.005   3.085  0.00  0.00    +0.000 HD
ATOM     50  H   UNL     1       0.185  -0.856   3.329  0.00  0.00    +0.000 HD
ENDBRANCH   6  47
BRANCH   2  51
ATOM     51  N   UNL     1       3.470   1.623  -0.475  0.00  0.00    +0.000 N 
ATOM     52  C   UNL     1       4.608   0.820  -0.242  0.00  0.00    +0.000 C 
ATOM     53  O   UNL     1       4.675   0.015   0.712  0.00  0.00    +0.000 OA
BRANCH  52  54
ATOM     54  C   UNL     1       5.762   0.829  -1.180  0.00  0.00    +0.000 A 
ATOM     55  C   UNL     1       6.279  -0.378  -1.627  0.00  0.00    +0.000 A 
ATOM     56  N   UNL     1       7.338  -0.443  -2.475  0.00  0.00    +0.000 NA
ATOM     57  C   UNL     1       7.865   0.750  -2.837  0.00  0.00    +0.000 A 
ATOM     58  C   UNL     1       7.345   1.955  -2.394  0.00  0.00    +0.000 A 
ATOM     59  N   UNL     1       6.287   2.022  -1.559  0.00  0.00    +0.000 NA
ATOM     60  H   UNL     1       5.847  -1.328  -1.328  0.00  0.00    +0.000 HD
ATOM     61  H   UNL     1       8.722   0.712  -3.503  0.00  0.00    +0.000 HD
ATOM     62  H   UNL     1       7.770   2.903  -2.701  0.00  0.00    +0.000 HD
ENDBRANCH  52  54
BRANCH  51  63
ATOM     63  C   UNL     1       3.508   2.675  -1.484  0.00  0.00    +0.000 C 
ATOM     64  H   UNL     1       2.696   3.392  -1.377  0.00  0.00    +0.000 HD
ATOM     65  H   UNL     1       4.407   3.280  -1.364  0.00  0.00    +0.000 HD
ATOM     66  H   UNL     1       3.482   2.212  -2.471  0.00  0.00    +0.000 HD
ENDBRANCH  51  63
ENDBRANCH   2  51
BRANCH   1  67
ATOM     67  O   UNL     1       1.594  -0.528  -1.094  0.00  0.00    +0.000 OA
BRANCH  67  68
ATOM     68  C   UNL     1       1.729  -1.927  -1.332  0.00  0.00    +0.000 C 
ATOM     69  H   UNL     1       0.741  -2.389  -1.359  0.00  0.00    +0.000 HD
ATOM     70  H   UNL     1       2.354  -2.431  -0.586  0.00  0.00    +0.000 HD
ATOM     71  H   UNL     1       2.189  -2.071  -2.312  0.00  0.00    +0.000 HD
ENDBRANCH  67  68
ENDBRANCH   1  67
TORSDOF 6
