MODEL 1
REMARK VINA RESULT:   -10.020      0.000      0.000
REMARK INTER + INTRA:         -11.191
REMARK INTER:                 -11.191
REMARK INTRA:                   0.000
REMARK UNBOUND:                 0.000
REMARK  Name = 
REMARK  4 active torsions:
REMARK  status: ('A' for Active; 'I' for Inactive)
REMARK    1  A    between atoms: O_1  and  C_2
REMARK    2  A    between atoms: C_7  and  O_8
REMARK    3  A    between atoms: C_9  and  O_10
REMARK    4  A    between atoms: C_16  and  O_17
REMARK                            x       y       z     vdW  Elec       q    Type
REMARK                         _______ _______ _______ _____ _____    ______ ____
ROOT
ATOM      1  C   UNL     1      -8.924  -7.685  19.037  0.00  0.00    +0.000 A 
ATOM      2  C   UNL     1      -8.897  -8.975  19.576  0.00  0.00    +0.000 A 
ATOM      3  C   UNL     1      -8.853 -10.046  18.671  0.00  0.00    +0.000 A 
ATOM      4  N   UNL     1      -8.821 -11.403  18.901  0.00  0.00    +0.000 N 
ATOM      5  C   UNL     1      -8.784 -12.109  17.721  0.00  0.00    +0.000 A 
ATOM      6  C   UNL     1      -8.745 -13.484  17.452  0.00  0.00    +0.000 A 
ATOM      7  C   UNL     1      -8.715 -13.897  16.118  0.00  0.00    +0.000 A 
ATOM      8  C   UNL     1      -8.721 -12.988  15.073  0.00  0.00    +0.000 A 
ATOM      9  C   UNL     1      -8.758 -11.617  15.348  0.00  0.00    +0.000 A 
ATOM     10  C   UNL     1      -8.791 -11.166  16.688  0.00  0.00    +0.000 A 
ATOM     11  C   UNL     1      -8.835  -9.866  17.288  0.00  0.00    +0.000 A 
ATOM     12  C   UNL     1      -8.863  -8.552  16.771  0.00  0.00    +0.000 A 
ATOM     13  C   UNL     1      -8.907  -7.475  17.660  0.00  0.00    +0.000 A 
ATOM     14  H   UNL     1      -8.909  -9.147  20.645  0.00  0.00    +0.000 HD
ATOM     15  H   UNL     1      -8.827 -11.811  19.823  0.00  0.00    +0.000 HD
ATOM     16  H   UNL     1      -8.696 -13.340  14.047  0.00  0.00    +0.000 HD
ATOM     17  H   UNL     1      -8.762 -10.904  14.529  0.00  0.00    +0.000 HD
ATOM     18  H   UNL     1      -8.849  -8.398  15.698  0.00  0.00    +0.000 HD
ENDROOT
BRANCH   1  19
ATOM     19  O   UNL     1      -8.968  -6.599  19.870  0.00  0.00    +0.000 OA
ATOM     20  H   UNL     1      -8.821  -5.792  19.353  0.00  0.00    +0.000 HD
ENDBRANCH   1  19
BRANCH   6  21
ATOM     21  O   UNL     1      -8.737 -14.466  18.418  0.00  0.00    +0.000 OA
ATOM     22  H   UNL     1      -7.827 -14.573  18.735  0.00  0.00    +0.000 HD
ENDBRANCH   6  21
BRANCH   7  23
ATOM     23  O   UNL     1      -8.681 -15.233  15.825  0.00  0.00    +0.000 OA
ATOM     24  H   UNL     1      -7.754 -15.496  15.990  0.00  0.00    +0.000 HD
ENDBRANCH   7  23
BRANCH  13  25
ATOM     25  O   UNL     1      -8.935  -6.194  17.180  0.00  0.00    +0.000 OA
ATOM     26  H   UNL     1      -9.849  -5.961  16.953  0.00  0.00    +0.000 HD
ENDBRANCH  13  25
TORSDOF 4
ENDMDL
MODEL 2
REMARK VINA RESULT:    -9.437      1.263      6.106
REMARK INTER + INTRA:         -10.540
REMARK INTER:                 -10.540
REMARK INTRA:                   0.000
REMARK UNBOUND:                 0.000
REMARK  Name = 
REMARK  4 active torsions:
REMARK  status: ('A' for Active; 'I' for Inactive)
REMARK    1  A    between atoms: O_1  and  C_2
REMARK    2  A    between atoms: C_7  and  O_8
REMARK    3  A    between atoms: C_9  and  O_10
REMARK    4  A    between atoms: C_16  and  O_17
REMARK                            x       y       z     vdW  Elec       q    Type
REMARK                         _______ _______ _______ _____ _____    ______ ____
ROOT
ATOM      1  C   UNL     1      -8.811 -13.970  16.265  0.00  0.00    +0.000 A 
ATOM      2  C   UNL     1      -8.905 -12.896  15.376  0.00  0.00    +0.000 A 
ATOM      3  C   UNL     1      -8.945 -11.607  15.930  0.00  0.00    +0.000 A 
ATOM      4  N   UNL     1      -9.037 -10.378  15.316  0.00  0.00    +0.000 N 
ATOM      5  C   UNL     1      -9.048  -9.359  16.239  0.00  0.00    +0.000 A 
ATOM      6  C   UNL     1      -9.128  -7.966  16.096  0.00  0.00    +0.000 A 
ATOM      7  C   UNL     1      -9.119  -7.181  17.252  0.00  0.00    +0.000 A 
ATOM      8  C   UNL     1      -9.032  -7.743  18.514  0.00  0.00    +0.000 A 
ATOM      9  C   UNL     1      -8.950  -9.133  18.650  0.00  0.00    +0.000 A 
ATOM     10  C   UNL     1      -8.959  -9.957  17.500  0.00  0.00    +0.000 A 
ATOM     11  C   UNL     1      -8.895 -11.374  17.303  0.00  0.00    +0.000 A 
ATOM     12  C   UNL     1      -8.800 -12.478  18.179  0.00  0.00    +0.000 A 
ATOM     13  C   UNL     1      -8.760 -13.767  17.643  0.00  0.00    +0.000 A 
ATOM     14  H   UNL     1      -8.946 -13.044  14.304  0.00  0.00    +0.000 HD
ATOM     15  H   UNL     1      -9.090 -10.259  14.316  0.00  0.00    +0.000 HD
ATOM     16  H   UNL     1      -9.025  -7.106  19.393  0.00  0.00    +0.000 HD
ATOM     17  H   UNL     1      -8.882  -9.574  19.640  0.00  0.00    +0.000 HD
ATOM     18  H   UNL     1      -8.760 -12.311  19.250  0.00  0.00    +0.000 HD
ENDROOT
BRANCH   1  19
ATOM     19  O   UNL     1      -8.769 -15.251  15.784  0.00  0.00    +0.000 OA
ATOM     20  H   UNL     1      -7.913 -15.649  16.007  0.00  0.00    +0.000 HD
ENDBRANCH   1  19
BRANCH   6  21
ATOM     21  O   UNL     1      -9.218  -7.311  14.888  0.00  0.00    +0.000 OA
ATOM     22  H   UNL     1      -9.413  -7.965  14.201  0.00  0.00    +0.000 HD
ENDBRANCH   6  21
BRANCH   7  23
ATOM     23  O   UNL     1      -9.199  -5.820  17.144  0.00  0.00    +0.000 OA
ATOM     24  H   UNL     1      -9.238  -5.652  16.182  0.00  0.00    +0.000 HD
ENDBRANCH   7  23
BRANCH  13  25
ATOM     25  O   UNL     1      -8.668 -14.851  18.474  0.00  0.00    +0.000 OA
ATOM     26  H   UNL     1      -8.005 -14.669  19.158  0.00  0.00    +0.000 HD
ENDBRANCH  13  25
TORSDOF 4
ENDMDL
MODEL 3
REMARK VINA RESULT:    -9.193      0.916      5.683
REMARK INTER + INTRA:         -10.268
REMARK INTER:                 -10.268
REMARK INTRA:                   0.000
REMARK UNBOUND:                 0.000
REMARK  Name = 
REMARK  4 active torsions:
REMARK  status: ('A' for Active; 'I' for Inactive)
REMARK    1  A    between atoms: O_1  and  C_2
REMARK    2  A    between atoms: C_7  and  O_8
REMARK    3  A    between atoms: C_9  and  O_10
REMARK    4  A    between atoms: C_16  and  O_17
REMARK                            x       y       z     vdW  Elec       q    Type
REMARK                         _______ _______ _______ _____ _____    ______ ____
ROOT
ATOM      1  C   UNL     1      -8.847 -14.258  16.646  0.00  0.00    +0.000 A 
ATOM      2  C   UNL     1      -8.859 -13.519  17.833  0.00  0.00    +0.000 A 
ATOM      3  C   UNL     1      -8.896 -12.122  17.717  0.00  0.00    +0.000 A 
ATOM      4  N   UNL     1      -8.913 -11.150  18.692  0.00  0.00    +0.000 N 
ATOM      5  C   UNL     1      -8.948  -9.890  18.141  0.00  0.00    +0.000 A 
ATOM      6  C   UNL     1      -8.974  -8.614  18.720  0.00  0.00    +0.000 A 
ATOM      7  C   UNL     1      -9.006  -7.503  17.873  0.00  0.00    +0.000 A 
ATOM      8  C   UNL     1      -9.014  -7.637  16.495  0.00  0.00    +0.000 A 
ATOM      9  C   UNL     1      -8.990  -8.914  15.922  0.00  0.00    +0.000 A 
ATOM     10  C   UNL     1      -8.956 -10.059  16.752  0.00  0.00    +0.000 A 
ATOM     11  C   UNL     1      -8.921 -11.466  16.487  0.00  0.00    +0.000 A 
ATOM     12  C   UNL     1      -8.910 -12.236  15.304  0.00  0.00    +0.000 A 
ATOM     13  C   UNL     1      -8.872 -13.629  15.402  0.00  0.00    +0.000 A 
ATOM     14  H   UNL     1      -8.840 -13.999  18.804  0.00  0.00    +0.000 HD
ATOM     15  H   UNL     1      -8.899 -11.352  19.680  0.00  0.00    +0.000 HD
ATOM     16  H   UNL     1      -9.040  -6.755  15.863  0.00  0.00    +0.000 HD
ATOM     17  H   UNL     1      -8.996  -9.020  14.842  0.00  0.00    +0.000 HD
ATOM     18  H   UNL     1      -8.929 -11.739  14.340  0.00  0.00    +0.000 HD
ENDROOT
BRANCH   1  19
ATOM     19  O   UNL     1      -8.810 -15.626  16.694  0.00  0.00    +0.000 OA
ATOM     20  H   UNL     1      -8.440 -15.906  17.545  0.00  0.00    +0.000 HD
ENDBRANCH   1  19
BRANCH   6  21
ATOM     21  O   UNL     1      -8.969  -8.373  20.076  0.00  0.00    +0.000 OA
ATOM     22  H   UNL     1      -9.773  -7.881  20.301  0.00  0.00    +0.000 HD
ENDBRANCH   6  21
BRANCH   7  23
ATOM     23  O   UNL     1      -9.029  -6.245  18.409  0.00  0.00    +0.000 OA
ATOM     24  H   UNL     1      -8.453  -6.303  19.196  0.00  0.00    +0.000 HD
ENDBRANCH   7  23
BRANCH  13  25
ATOM     25  O   UNL     1      -8.859 -14.395  14.268  0.00  0.00    +0.000 OA
ATOM     26  H   UNL     1      -9.485 -15.128  14.374  0.00  0.00    +0.000 HD
ENDBRANCH  13  25
TORSDOF 4
ENDMDL
MODEL 4
REMARK VINA RESULT:    -8.754      1.122      2.368
REMARK INTER + INTRA:          -9.777
REMARK INTER:                  -9.777
REMARK INTRA:                   0.000
REMARK UNBOUND:                 0.000
REMARK  Name = 
REMARK  4 active torsions:
REMARK  status: ('A' for Active; 'I' for Inactive)
REMARK    1  A    between atoms: O_1  and  C_2
REMARK    2  A    between atoms: C_7  and  O_8
REMARK    3  A    between atoms: C_9  and  O_10
REMARK    4  A    between atoms: C_16  and  O_17
REMARK                            x       y       z     vdW  Elec       q    Type
REMARK                         _______ _______ _______ _____ _____    ______ ____
ROOT
ATOM      1  C   UNL     1      -8.862  -7.468  17.639  0.00  0.00    +0.000 A 
ATOM      2  C   UNL     1      -8.874  -8.310  16.524  0.00  0.00    +0.000 A 
ATOM      3  C   UNL     1      -8.853  -9.692  16.765  0.00  0.00    +0.000 A 
ATOM      4  N   UNL     1      -8.857 -10.748  15.881  0.00  0.00    +0.000 N 
ATOM      5  C   UNL     1      -8.829 -11.954  16.544  0.00  0.00    +0.000 A 
ATOM      6  C   UNL     1      -8.819 -13.277  16.082  0.00  0.00    +0.000 A 
ATOM      7  C   UNL     1      -8.786 -14.307  17.025  0.00  0.00    +0.000 A 
ATOM      8  C   UNL     1      -8.765 -14.049  18.385  0.00  0.00    +0.000 A 
ATOM      9  C   UNL     1      -8.777 -12.726  18.840  0.00  0.00    +0.000 A 
ATOM     10  C   UNL     1      -8.808 -11.660  17.911  0.00  0.00    +0.000 A 
ATOM     11  C   UNL     1      -8.823 -10.235  18.048  0.00  0.00    +0.000 A 
ATOM     12  C   UNL     1      -8.812  -9.361  19.158  0.00  0.00    +0.000 A 
ATOM     13  C   UNL     1      -8.831  -7.982  18.934  0.00  0.00    +0.000 A 
ATOM     14  H   UNL     1      -8.898  -7.920  15.514  0.00  0.00    +0.000 HD
ATOM     15  H   UNL     1      -8.875 -10.635  14.879  0.00  0.00    +0.000 HD
ATOM     16  H   UNL     1      -8.741 -14.871  19.094  0.00  0.00    +0.000 HD
ATOM     17  H   UNL     1      -8.760 -12.524  19.907  0.00  0.00    +0.000 HD
ATOM     18  H   UNL     1      -8.788  -9.769  20.162  0.00  0.00    +0.000 HD
ENDROOT
BRANCH   1  19
ATOM     19  O   UNL     1      -8.880  -6.110  17.468  0.00  0.00    +0.000 OA
ATOM     20  H   UNL     1      -8.933  -5.678  18.335  0.00  0.00    +0.000 HD
ENDBRANCH   1  19
BRANCH   6  21
ATOM     21  O   UNL     1      -8.838 -13.639  14.753  0.00  0.00    +0.000 OA
ATOM     22  H   UNL     1      -7.974 -13.429  14.368  0.00  0.00    +0.000 HD
ENDBRANCH   6  21
BRANCH   7  23
ATOM     23  O   UNL     1      -8.773 -15.608  16.604  0.00  0.00    +0.000 OA
ATOM     24  H   UNL     1      -7.862 -15.752  16.279  0.00  0.00    +0.000 HD
ENDBRANCH   7  23
BRANCH  13  25
ATOM     25  O   UNL     1      -8.820  -7.117  19.995  0.00  0.00    +0.000 OA
ATOM     26  H   UNL     1      -9.471  -6.415  19.837  0.00  0.00    +0.000 HD
ENDBRANCH  13  25
TORSDOF 4
ENDMDL
MODEL 5
REMARK VINA RESULT:    -8.731      1.533      6.316
REMARK INTER + INTRA:          -9.752
REMARK INTER:                  -9.752
REMARK INTRA:                   0.000
REMARK UNBOUND:                 0.000
REMARK  Name = 
REMARK  4 active torsions:
REMARK  status: ('A' for Active; 'I' for Inactive)
REMARK    1  A    between atoms: O_1  and  C_2
REMARK    2  A    between atoms: C_7  and  O_8
REMARK    3  A    between atoms: C_9  and  O_10
REMARK    4  A    between atoms: C_16  and  O_17
REMARK                            x       y       z     vdW  Elec       q    Type
REMARK                         _______ _______ _______ _____ _____    ______ ____
ROOT
ATOM      1  C   UNL     1      -8.951 -12.118  15.851  0.00  0.00    +0.000 A 
ATOM      2  C   UNL     1      -9.127 -10.813  15.383  0.00  0.00    +0.000 A 
ATOM      3  C   UNL     1      -9.060  -9.778  16.328  0.00  0.00    +0.000 A 
ATOM      4  N   UNL     1      -9.194  -8.417  16.167  0.00  0.00    +0.000 N 
ATOM      5  C   UNL     1      -9.059  -7.757  17.367  0.00  0.00    +0.000 A 
ATOM      6  C   UNL     1      -9.117  -6.397  17.700  0.00  0.00    +0.000 A 
ATOM      7  C   UNL     1      -8.938  -6.034  19.037  0.00  0.00    +0.000 A 
ATOM      8  C   UNL     1      -8.706  -6.978  20.023  0.00  0.00    +0.000 A 
ATOM      9  C   UNL     1      -8.647  -8.334  19.685  0.00  0.00    +0.000 A 
ATOM     10  C   UNL     1      -8.826  -8.735  18.340  0.00  0.00    +0.000 A 
ATOM     11  C   UNL     1      -8.828 -10.008  17.684  0.00  0.00    +0.000 A 
ATOM     12  C   UNL     1      -8.653 -11.336  18.130  0.00  0.00    +0.000 A 
ATOM     13  C   UNL     1      -8.718 -12.377  17.200  0.00  0.00    +0.000 A 
ATOM     14  H   UNL     1      -9.309 -10.601  14.336  0.00  0.00    +0.000 HD
ATOM     15  H   UNL     1      -9.371  -7.977  15.278  0.00  0.00    +0.000 HD
ATOM     16  H   UNL     1      -8.569  -6.665  21.053  0.00  0.00    +0.000 HD
ATOM     17  H   UNL     1      -8.465  -9.075  20.457  0.00  0.00    +0.000 HD
ATOM     18  H   UNL     1      -8.472 -11.529  19.181  0.00  0.00    +0.000 HD
ENDROOT
BRANCH   1  19
ATOM     19  O   UNL     1      -9.007 -13.170  14.976  0.00  0.00    +0.000 OA
ATOM     20  H   UNL     1      -8.829 -13.994  15.454  0.00  0.00    +0.000 HD
ENDBRANCH   1  19
BRANCH   6  21
ATOM     21  O   UNL     1      -9.342  -5.382  16.795  0.00  0.00    +0.000 OA
ATOM     22  H   UNL     1     -10.195  -5.542  16.366  0.00  0.00    +0.000 HD
ENDBRANCH   6  21
BRANCH   7  23
ATOM     23  O   UNL     1      -8.993  -4.715  19.392  0.00  0.00    +0.000 OA
ATOM     24  H   UNL     1      -8.064  -4.411  19.353  0.00  0.00    +0.000 HD
ENDBRANCH   7  23
BRANCH  13  25
ATOM     25  O   UNL     1      -8.552 -13.672  17.612  0.00  0.00    +0.000 OA
ATOM     26  H   UNL     1      -7.691 -13.994  17.302  0.00  0.00    +0.000 HD
ENDBRANCH  13  25
TORSDOF 4
ENDMDL
MODEL 6
REMARK VINA RESULT:    -8.506      1.277      1.701
REMARK INTER + INTRA:          -9.501
REMARK INTER:                  -9.501
REMARK INTRA:                   0.000
REMARK UNBOUND:                 0.000
REMARK  Name = 
REMARK  4 active torsions:
REMARK  status: ('A' for Active; 'I' for Inactive)
REMARK    1  A    between atoms: O_1  and  C_2
REMARK    2  A    between atoms: C_7  and  O_8
REMARK    3  A    between atoms: C_9  and  O_10
REMARK    4  A    between atoms: C_16  and  O_17
REMARK                            x       y       z     vdW  Elec       q    Type
REMARK                         _______ _______ _______ _____ _____    ______ ____
ROOT
ATOM      1  C   UNL     1      -8.911  -6.010  19.350  0.00  0.00    +0.000 A 
ATOM      2  C   UNL     1      -8.727  -7.280  19.907  0.00  0.00    +0.000 A 
ATOM      3  C   UNL     1      -8.801  -8.377  19.037  0.00  0.00    +0.000 A 
ATOM      4  N   UNL     1      -8.665  -9.724  19.291  0.00  0.00    +0.000 N 
ATOM      5  C   UNL     1      -8.812 -10.466  18.143  0.00  0.00    +0.000 A 
ATOM      6  C   UNL     1      -8.761 -11.847  17.906  0.00  0.00    +0.000 A 
ATOM      7  C   UNL     1      -8.957 -12.303  16.600  0.00  0.00    +0.000 A 
ATOM      8  C   UNL     1      -9.196 -11.430  15.552  0.00  0.00    +0.000 A 
ATOM      9  C   UNL     1      -9.244 -10.053  15.794  0.00  0.00    +0.000 A 
ATOM     10  C   UNL     1      -9.052  -9.559  17.105  0.00  0.00    +0.000 A 
ATOM     11  C   UNL     1      -9.045  -8.243  17.671  0.00  0.00    +0.000 A 
ATOM     12  C   UNL     1      -9.227  -6.950  17.135  0.00  0.00    +0.000 A 
ATOM     13  C   UNL     1      -9.157  -5.846  17.989  0.00  0.00    +0.000 A 
ATOM     14  H   UNL     1      -8.535  -7.417  20.964  0.00  0.00    +0.000 HD
ATOM     15  H   UNL     1      -8.483 -10.101  20.208  0.00  0.00    +0.000 HD
ATOM     16  H   UNL     1      -9.343 -11.815  14.548  0.00  0.00    +0.000 HD
ATOM     17  H   UNL     1      -9.432  -9.368  14.972  0.00  0.00    +0.000 HD
ATOM     18  H   UNL     1      -9.418  -6.831  16.074  0.00  0.00    +0.000 HD
ENDROOT
BRANCH   1  19
ATOM     19  O   UNL     1      -8.852  -4.900  20.150  0.00  0.00    +0.000 OA
ATOM     20  H   UNL     1      -9.634  -4.874  20.721  0.00  0.00    +0.000 HD
ENDBRANCH   1  19
BRANCH   6  21
ATOM     21  O   UNL     1      -8.530 -12.796  18.878  0.00  0.00    +0.000 OA
ATOM     22  H   UNL     1      -7.994 -13.504  18.490  0.00  0.00    +0.000 HD
ENDBRANCH   6  21
BRANCH   7  23
ATOM     23  O   UNL     1      -8.915 -13.645  16.340  0.00  0.00    +0.000 OA
ATOM     24  H   UNL     1      -8.888 -14.065  17.221  0.00  0.00    +0.000 HD
ENDBRANCH   7  23
BRANCH  13  25
ATOM     25  O   UNL     1      -9.331  -4.583  17.490  0.00  0.00    +0.000 OA
ATOM     26  H   UNL     1      -9.042  -4.567  16.564  0.00  0.00    +0.000 HD
ENDBRANCH  13  25
TORSDOF 4
ENDMDL
MODEL 7
REMARK VINA RESULT:    -8.498      1.481      2.610
REMARK INTER + INTRA:          -9.492
REMARK INTER:                  -9.492
REMARK INTRA:                   0.000
REMARK UNBOUND:                 0.000
REMARK  Name = 
REMARK  4 active torsions:
REMARK  status: ('A' for Active; 'I' for Inactive)
REMARK    1  A    between atoms: O_1  and  C_2
REMARK    2  A    between atoms: C_7  and  O_8
REMARK    3  A    between atoms: C_9  and  O_10
REMARK    4  A    between atoms: C_16  and  O_17
REMARK                            x       y       z     vdW  Elec       q    Type
REMARK                         _______ _______ _______ _____ _____    ______ ____
ROOT
ATOM      1  C   UNL     1      -9.189  -6.200  17.828  0.00  0.00    +0.000 A 
ATOM      2  C   UNL     1      -9.320  -7.025  16.708  0.00  0.00    +0.000 A 
ATOM      3  C   UNL     1      -9.135  -8.402  16.902  0.00  0.00    +0.000 A 
ATOM      4  N   UNL     1      -9.198  -9.442  16.001  0.00  0.00    +0.000 N 
ATOM      5  C   UNL     1      -8.950 -10.648  16.614  0.00  0.00    +0.000 A 
ATOM      6  C   UNL     1      -8.903 -11.959  16.120  0.00  0.00    +0.000 A 
ATOM      7  C   UNL     1      -8.616 -12.994  17.013  0.00  0.00    +0.000 A 
ATOM      8  C   UNL     1      -8.383 -12.753  18.357  0.00  0.00    +0.000 A 
ATOM      9  C   UNL     1      -8.433 -11.443  18.845  0.00  0.00    +0.000 A 
ATOM     10  C   UNL     1      -8.718 -10.373  17.966  0.00  0.00    +0.000 A 
ATOM     11  C   UNL     1      -8.835  -8.956  18.145  0.00  0.00    +0.000 A 
ATOM     12  C   UNL     1      -8.709  -8.100  19.261  0.00  0.00    +0.000 A 
ATOM     13  C   UNL     1      -8.889  -6.726  19.083  0.00  0.00    +0.000 A 
ATOM     14  H   UNL     1      -9.553  -6.625  15.728  0.00  0.00    +0.000 HD
ATOM     15  H   UNL     1      -9.400  -9.318  15.022  0.00  0.00    +0.000 HD
ATOM     16  H   UNL     1      -8.164 -13.579  19.026  0.00  0.00    +0.000 HD
ATOM     17  H   UNL     1      -8.249 -11.254  19.898  0.00  0.00    +0.000 HD
ATOM     18  H   UNL     1      -8.476  -8.517  20.233  0.00  0.00    +0.000 HD
ENDROOT
BRANCH   1  19
ATOM     19  O   UNL     1      -9.357  -4.847  17.702  0.00  0.00    +0.000 OA
ATOM     20  H   UNL     1      -8.803  -4.522  16.976  0.00  0.00    +0.000 HD
ENDBRANCH   1  19
BRANCH   6  21
ATOM     21  O   UNL     1      -9.120 -12.303  14.804  0.00  0.00    +0.000 OA
ATOM     22  H   UNL     1      -8.902 -13.241  14.695  0.00  0.00    +0.000 HD
ENDBRANCH   6  21
BRANCH   7  23
ATOM     23  O   UNL     1      -8.561 -14.283  16.559  0.00  0.00    +0.000 OA
ATOM     24  H   UNL     1      -7.781 -14.303  15.970  0.00  0.00    +0.000 HD
ENDBRANCH   7  23
BRANCH  13  25
ATOM     25  O   UNL     1      -8.771  -5.878  20.151  0.00  0.00    +0.000 OA
ATOM     26  H   UNL     1      -9.009  -4.981  19.870  0.00  0.00    +0.000 HD
ENDBRANCH  13  25
TORSDOF 4
ENDMDL
MODEL 8
REMARK VINA RESULT:    -8.281      2.413      6.480
REMARK INTER + INTRA:          -9.249
REMARK INTER:                  -9.249
REMARK INTRA:                   0.000
REMARK UNBOUND:                 0.000
REMARK  Name = 
REMARK  4 active torsions:
REMARK  status: ('A' for Active; 'I' for Inactive)
REMARK    1  A    between atoms: O_1  and  C_2
REMARK    2  A    between atoms: C_7  and  O_8
REMARK    3  A    between atoms: C_9  and  O_10
REMARK    4  A    between atoms: C_16  and  O_17
REMARK                            x       y       z     vdW  Elec       q    Type
REMARK                         _______ _______ _______ _____ _____    ______ ____
ROOT
ATOM      1  C   UNL     1      -8.922 -11.624  16.689  0.00  0.00    +0.000 A 
ATOM      2  C   UNL     1      -9.580 -10.758  15.810  0.00  0.00    +0.000 A 
ATOM      3  C   UNL     1      -9.871  -9.469  16.281  0.00  0.00    +0.000 A 
ATOM      4  N   UNL     1     -10.502  -8.416  15.655  0.00  0.00    +0.000 N 
ATOM      5  C   UNL     1     -10.585  -7.321  16.484  0.00  0.00    +0.000 A 
ATOM      6  C   UNL     1     -11.131  -6.044  16.296  0.00  0.00    +0.000 A 
ATOM      7  C   UNL     1     -11.060  -5.132  17.353  0.00  0.00    +0.000 A 
ATOM      8  C   UNL     1     -10.469  -5.461  18.561  0.00  0.00    +0.000 A 
ATOM      9  C   UNL     1      -9.925  -6.737  18.741  0.00  0.00    +0.000 A 
ATOM     10  C   UNL     1      -9.981  -7.684  17.692  0.00  0.00    +0.000 A 
ATOM     11  C   UNL     1      -9.533  -9.038  17.563  0.00  0.00    +0.000 A 
ATOM     12  C   UNL     1      -8.869  -9.933  18.430  0.00  0.00    +0.000 A 
ATOM     13  C   UNL     1      -8.572 -11.221  17.976  0.00  0.00    +0.000 A 
ATOM     14  H   UNL     1      -9.855 -11.063  14.808  0.00  0.00    +0.000 HD
ATOM     15  H   UNL     1     -10.853  -8.460  14.712  0.00  0.00    +0.000 HD
ATOM     16  H   UNL     1     -10.429  -4.730  19.362  0.00  0.00    +0.000 HD
ATOM     17  H   UNL     1      -9.462  -6.996  19.689  0.00  0.00    +0.000 HD
ATOM     18  H   UNL     1      -8.600  -9.611  19.429  0.00  0.00    +0.000 HD
ENDROOT
BRANCH   1  19
ATOM     19  O   UNL     1      -8.611 -12.896  16.287  0.00  0.00    +0.000 OA
ATOM     20  H   UNL     1      -7.746 -13.143  16.648  0.00  0.00    +0.000 HD
ENDBRANCH   1  19
BRANCH   6  21
ATOM     21  O   UNL     1     -11.739  -5.619  15.135  0.00  0.00    +0.000 OA
ATOM     22  H   UNL     1     -11.787  -4.651  15.154  0.00  0.00    +0.000 HD
ENDBRANCH   6  21
BRANCH   7  23
ATOM     23  O   UNL     1     -11.587  -3.879  17.200  0.00  0.00    +0.000 OA
ATOM     24  H   UNL     1     -11.399  -3.646  16.270  0.00  0.00    +0.000 HD
ENDBRANCH   7  23
BRANCH  13  25
ATOM     25  O   UNL     1      -7.929 -12.105  18.800  0.00  0.00    +0.000 OA
ATOM     26  H   UNL     1      -7.040 -11.768  18.992  0.00  0.00    +0.000 HD
ENDBRANCH  13  25
TORSDOF 4
ENDMDL
MODEL 9
REMARK VINA RESULT:    -7.777      4.298      6.997
REMARK INTER + INTRA:          -8.686
REMARK INTER:                  -8.686
REMARK INTRA:                   0.000
REMARK UNBOUND:                 0.000
REMARK  Name = 
REMARK  4 active torsions:
REMARK  status: ('A' for Active; 'I' for Inactive)
REMARK    1  A    between atoms: O_1  and  C_2
REMARK    2  A    between atoms: C_7  and  O_8
REMARK    3  A    between atoms: C_9  and  O_10
REMARK    4  A    between atoms: C_16  and  O_17
REMARK                            x       y       z     vdW  Elec       q    Type
REMARK                         _______ _______ _______ _____ _____    ______ ____
ROOT
ATOM      1  C   UNL     1     -10.512  -7.811  16.485  0.00  0.00    +0.000 A 
ATOM      2  C   UNL     1     -10.697  -7.104  17.676  0.00  0.00    +0.000 A 
ATOM      3  C   UNL     1      -9.552  -6.572  18.289  0.00  0.00    +0.000 A 
ATOM      4  N   UNL     1      -9.424  -5.843  19.451  0.00  0.00    +0.000 N 
ATOM      5  C   UNL     1      -8.110  -5.517  19.692  0.00  0.00    +0.000 A 
ATOM      6  C   UNL     1      -7.498  -4.801  20.730  0.00  0.00    +0.000 A 
ATOM      7  C   UNL     1      -6.110  -4.637  20.693  0.00  0.00    +0.000 A 
ATOM      8  C   UNL     1      -5.342  -5.160  19.667  0.00  0.00    +0.000 A 
ATOM      9  C   UNL     1      -5.959  -5.873  18.633  0.00  0.00    +0.000 A 
ATOM     10  C   UNL     1      -7.361  -6.057  18.642  0.00  0.00    +0.000 A 
ATOM     11  C   UNL     1      -8.272  -6.723  17.759  0.00  0.00    +0.000 A 
ATOM     12  C   UNL     1      -8.114  -7.441  16.553  0.00  0.00    +0.000 A 
ATOM     13  C   UNL     1      -9.244  -7.978  15.931  0.00  0.00    +0.000 A 
ATOM     14  H   UNL     1     -11.678  -6.970  18.114  0.00  0.00    +0.000 HD
ATOM     15  H   UNL     1     -10.204  -5.592  20.038  0.00  0.00    +0.000 HD
ATOM     16  H   UNL     1      -4.267  -5.015  19.666  0.00  0.00    +0.000 HD
ATOM     17  H   UNL     1      -5.357  -6.283  17.828  0.00  0.00    +0.000 HD
ATOM     18  H   UNL     1      -7.124  -7.566  16.130  0.00  0.00    +0.000 HD
ENDROOT
BRANCH   1  19
ATOM     19  O   UNL     1     -11.591  -8.355  15.840  0.00  0.00    +0.000 OA
ATOM     20  H   UNL     1     -11.371  -9.254  15.550  0.00  0.00    +0.000 HD
ENDBRANCH   1  19
BRANCH   6  21
ATOM     21  O   UNL     1      -8.171  -4.242  21.794  0.00  0.00    +0.000 OA
ATOM     22  H   UNL     1      -7.525  -3.801  22.365  0.00  0.00    +0.000 HD
ENDBRANCH   6  21
BRANCH   7  23
ATOM     23  O   UNL     1      -5.485  -3.946  21.694  0.00  0.00    +0.000 OA
ATOM     24  H   UNL     1      -6.113  -3.976  22.443  0.00  0.00    +0.000 HD
ENDBRANCH   7  23
BRANCH  13  25
ATOM     25  O   UNL     1      -9.113  -8.678  14.762  0.00  0.00    +0.000 OA
ATOM     26  H   UNL     1      -8.936  -8.056  14.040  0.00  0.00    +0.000 HD
ENDBRANCH  13  25
TORSDOF 4
ENDMDL
