
 OpenBabel01112422213D

 72 79  0  0  1  0  0  0  0  0999 V2000
    2.6006   -3.8663    0.6709 C   0  0  0  0  0  0  0  0  0  0  0  0
    2.5009   -2.5039    0.2664 O   0  0  0  0  0  0  0  0  0  0  0  0
    1.7189   -1.6437    1.1054 C   0  0  1  0  0  0  0  0  0  0  0  0
    1.5876   -0.1524    0.6490 C   0  0  1  0  0  0  0  0  0  0  0  0
    2.8976    0.2697   -0.0047 N   0  0  0  0  0  0  0  0  0  0  0  0
    3.2939   -0.3453   -1.2689 C   0  0  0  0  0  0  0  0  0  0  0  0
    3.9117    0.5061    0.9631 C   0  0  0  0  0  0  0  0  0  0  0  0
    3.6916    1.1433    1.9873 O   0  0  0  0  0  0  0  0  0  0  0  0
    5.2926   -0.1946    0.7910 C   0  0  0  0  0  0  0  0  0  0  0  0
    6.1587    0.0427    2.0422 C   0  0  0  0  0  0  0  0  0  0  0  0
    7.5217   -0.6071    1.9593 C   0  0  0  0  0  0  0  0  0  0  0  0
    7.9539   -1.2429    1.0141 O   0  0  0  0  0  0  0  0  0  0  0  0
    8.2505   -0.4101    3.0905 O   0  0  0  0  0  0  0  0  0  0  0  0
    0.0450    0.3374    0.2324 C   0  0  0  0  0  0  0  0  0  0  0  0
   -1.1095   -0.1819    1.3630 C   0  0  2  0  0  0  0  0  0  0  0  0
   -0.3044   -1.0287    2.1152 O   0  0  0  0  0  0  0  0  0  0  0  0
    0.3017   -2.1387    1.3355 C   0  0  2  0  0  0  0  0  0  0  0  0
    0.3047   -3.0432    2.6012 C   0  0  0  0  0  0  0  0  0  0  0  0
   -0.3654   -2.4889   -0.0213 N   0  0  0  0  0  0  0  0  0  0  0  0
    0.0389   -2.4676   -1.4560 C   0  0  0  0  0  0  0  0  0  0  0  0
    1.1350   -2.9853   -2.1927 C   0  0  0  0  0  0  0  0  0  0  0  0
    1.1640   -2.9329   -3.6133 C   0  0  0  0  0  0  0  0  0  0  0  0
    0.1624   -2.3463   -4.3594 C   0  0  0  0  0  0  0  0  0  0  0  0
   -0.9071   -1.7983   -3.7222 C   0  0  0  0  0  0  0  0  0  0  0  0
   -1.0092   -1.8919   -2.3220 C   0  0  0  0  0  0  0  0  0  0  0  0
   -2.0854   -1.6679   -1.5211 C   0  0  0  0  0  0  0  0  0  0  0  0
   -3.3561   -1.2245   -1.9394 C   0  0  0  0  0  0  0  0  0  0  0  0
   -4.4049   -1.8184   -1.2507 C   0  0  0  0  0  0  0  0  0  0  0  0
   -3.9755   -2.2062    0.0742 C   0  0  0  0  0  0  0  0  0  0  0  0
   -4.6071   -1.4273    1.0876 C   0  0  0  0  0  0  0  0  0  0  0  0
   -5.9001   -0.9045    1.2807 C   0  0  0  0  0  0  0  0  0  0  0  0
   -6.0864   -0.0276    2.3386 C   0  0  0  0  0  0  0  0  0  0  0  0
   -5.1164    0.0546    3.3388 C   0  0  0  0  0  0  0  0  0  0  0  0
   -3.9465   -0.7039    3.3128 C   0  0  0  0  0  0  0  0  0  0  0  0
   -3.5795   -0.9716    1.9962 C   0  0  0  0  0  0  0  0  0  0  0  0
   -2.3473   -0.9768    1.3355 N   0  0  0  0  0  0  0  0  0  0  0  0
   -2.6289   -2.0443    0.5579 C   0  0  0  0  0  0  0  0  0  0  0  0
   -1.6745   -2.2311   -0.3431 C   0  0  0  0  0  0  0  0  0  0  0  0
   -5.6283   -1.3733   -1.8389 C   0  0  0  0  0  0  0  0  0  0  0  0
   -6.7796   -1.6764   -1.7234 O   0  0  0  0  0  0  0  0  0  0  0  0
   -5.2158   -0.3246   -2.6807 N   0  0  0  0  0  0  0  0  0  0  0  0
   -3.8077   -0.0063   -2.6189 C   0  0  0  0  0  0  0  0  0  0  0  0
    3.2526   -3.9575    1.5388 H   0  0  0  0  0  0  0  0  0  0  0  0
    3.0229   -4.4492   -0.1509 H   0  0  0  0  0  0  0  0  0  0  0  0
    1.6223   -4.3146    0.8483 H   0  0  0  0  0  0  0  0  0  0  0  0
    2.2888   -1.5878    2.0429 H   0  0  0  0  0  0  0  0  0  0  0  0
    1.6202    0.4134    1.5908 H   0  0  0  0  0  0  0  0  0  0  0  0
    2.4536   -0.4547   -1.9428 H   0  0  0  0  0  0  0  0  0  0  0  0
    3.7870   -1.3087   -1.1142 H   0  0  0  0  0  0  0  0  0  0  0  0
    4.0610    0.2885   -1.7463 H   0  0  0  0  0  0  0  0  0  0  0  0
    5.1338   -1.2668    0.6902 H   0  0  0  0  0  0  0  0  0  0  0  0
    5.8043    0.1729   -0.0954 H   0  0  0  0  0  0  0  0  0  0  0  0
    6.3162    1.1107    2.1989 H   0  0  0  0  0  0  0  0  0  0  0  0
    5.6620   -0.3804    2.9221 H   0  0  0  0  0  0  0  0  0  0  0  0
    7.7816    0.1056    3.7776 H   0  0  0  0  0  0  0  0  0  0  0  0
    0.0392    1.4370    0.2708 H   0  0  0  0  0  0  0  0  0  0  0  0
   -0.2018    0.1181   -0.8040 H   0  0  0  0  0  0  0  0  0  0  0  0
   -1.3886    0.7166    1.9256 H   0  0  0  0  0  0  0  0  0  0  0  0
    0.8227   -3.9901    2.5704 H   0  0  0  0  0  0  0  0  0  0  0  0
   -0.6968   -3.1691    3.0225 H   0  0  0  0  0  0  0  0  0  0  0  0
    0.8302   -2.4748    3.4044 H   0  0  0  0  0  0  0  0  0  0  0  0
    1.9337   -3.5294   -1.7242 H   0  0  0  0  0  0  0  0  0  0  0  0
    1.9933   -3.4020   -4.1379 H   0  0  0  0  0  0  0  0  0  0  0  0
    0.1744   -2.3660   -5.4501 H   0  0  0  0  0  0  0  0  0  0  0  0
   -1.7571   -1.4152   -4.2974 H   0  0  0  0  0  0  0  0  0  0  0  0
   -6.7063   -1.0901    0.5802 H   0  0  0  0  0  0  0  0  0  0  0  0
   -6.9999    0.5432    2.4003 H   0  0  0  0  0  0  0  0  0  0  0  0
   -5.3314    0.6432    4.2407 H   0  0  0  0  0  0  0  0  0  0  0  0
   -4.1463   -1.6485    3.8913 H   0  0  0  0  0  0  0  0  0  0  0  0
   -5.9364    0.2677   -3.1097 H   0  0  0  0  0  0  0  0  0  0  0  0
   -3.7025    0.8569   -1.9392 H   0  0  0  0  0  0  0  0  0  0  0  0
   -3.3844    0.2292   -3.5934 H   0  0  0  0  0  0  0  0  0  0  0  0
  1  2  1  0  0  0  0
  1 43  1  0  0  0  0
  1 44  1  0  0  0  0
  1 45  1  0  0  0  0
  3  4  1  0  0  0  0
  3 17  1  0  0  0  0
  3  2  1  0  0  0  0
  3 46  1  1  0  0  0
  4 14  1  0  0  0  0
  4  5  1  0  0  0  0
  4 47  1  1  0  0  0
  5  6  1  0  0  0  0
  5  7  1  0  0  0  0
  6 48  1  0  0  0  0
  6 49  1  0  0  0  0
  6 50  1  0  0  0  0
  7  8  2  0  0  0  0
  7  9  1  0  0  0  0
  9 10  1  0  0  0  0
  9 51  1  0  0  0  0
  9 52  1  0  0  0  0
 10 11  1  0  0  0  0
 10 53  1  0  0  0  0
 10 54  1  0  0  0  0
 11 12  2  0  0  0  0
 11 13  1  0  0  0  0
 13 55  1  0  0  0  0
 14 15  1  0  0  0  0
 14 56  1  0  0  0  0
 14 57  1  0  0  0  0
 15 16  1  0  0  0  0
 15 36  1  0  0  0  0
 15 58  1  1  0  0  0
 16 17  1  0  0  0  0
 17 19  1  0  0  0  0
 17 18  1  1  0  0  0
 18 59  1  0  0  0  0
 18 60  1  0  0  0  0
 18 61  1  0  0  0  0
 19 20  1  0  0  0  0
 19 38  1  0  0  0  0
 20 21  1  0  0  0  0
 20 25  2  0  0  0  0
 21 22  2  0  0  0  0
 21 62  1  0  0  0  0
 22 23  1  0  0  0  0
 22 63  1  0  0  0  0
 23 24  2  0  0  0  0
 23 64  1  0  0  0  0
 24 25  1  0  0  0  0
 24 65  1  0  0  0  0
 25 26  1  0  0  0  0
 26 27  1  0  0  0  0
 26 38  2  0  0  0  0
 27 28  2  0  0  0  0
 27 42  1  0  0  0  0
 28 29  1  0  0  0  0
 28 39  1  0  0  0  0
 29 30  1  0  0  0  0
 29 37  2  0  0  0  0
 30 31  1  0  0  0  0
 30 35  2  0  0  0  0
 31 32  2  0  0  0  0
 31 66  1  0  0  0  0
 32 33  1  0  0  0  0
 32 67  1  0  0  0  0
 33 34  2  0  0  0  0
 33 68  1  0  0  0  0
 34 35  1  0  0  0  0
 34 69  1  0  0  0  0
 35 36  1  0  0  0  0
 36 37  1  0  0  0  0
 37 38  1  0  0  0  0
 39 41  1  0  0  0  0
 39 40  2  0  0  0  0
 41 42  1  0  0  0  0
 41 70  1  0  0  0  0
 42 71  1  0  0  0  0
 42 72  1  0  0  0  0
M  END
$$$$
