
 OpenBabel01112422363D

 52 57  0  0  0  0  0  0  0  0999 V2000
    3.1529    1.8574   -0.3850 C   0  0  0  0  0  0  0  0  0  0  0  0
    2.6444    0.4324   -0.3039 C   0  0  0  0  0  0  0  0  0  0  0  0
    3.6780   -0.5749   -0.1618 N   0  0  0  0  0  0  0  0  0  0  0  0
    4.1029   -0.8394    1.1541 C   0  0  0  0  0  0  0  0  0  0  0  0
    4.7632   -2.0387    1.0384 C   0  0  0  0  0  0  0  0  0  0  0  0
    5.5214   -1.7414   -0.1258 C   0  0  0  0  0  0  0  0  0  0  0  0
    6.8492   -1.9999   -0.4410 C   0  0  0  0  0  0  0  0  0  0  0  0
    7.3101   -1.6422   -1.6924 C   0  0  0  0  0  0  0  0  0  0  0  0
    6.4349   -1.2338   -2.7116 C   0  0  0  0  0  0  0  0  0  0  0  0
    5.0413   -0.9714   -2.4239 C   0  0  0  0  0  0  0  0  0  0  0  0
    4.2360   -0.7331   -3.5519 C   0  0  0  0  0  0  0  0  0  0  0  0
    4.7092   -0.6748   -4.9091 C   0  0  0  0  0  0  0  0  0  0  0  0
    6.0924   -0.8958   -5.1195 C   0  0  0  0  0  0  0  0  0  0  0  0
    6.7082   -0.9582   -6.3789 C   0  0  0  0  0  0  0  0  0  0  0  0
    6.3738   -0.8536   -7.7483 C   0  0  0  0  0  0  0  0  0  0  0  0
    7.3577   -0.9742   -8.7408 C   0  0  0  0  0  0  0  0  0  0  0  0
    8.6802   -1.2031   -8.3992 C   0  0  0  0  0  0  0  0  0  0  0  0
    9.0447   -1.3334   -7.0613 C   0  0  0  0  0  0  0  0  0  0  0  0
    8.0521   -1.2132   -6.0643 C   0  0  0  0  0  0  0  0  0  0  0  0
    8.1650   -1.3022   -4.6742 N   0  0  0  0  0  0  0  0  0  0  0  0
    9.4586   -1.4811   -4.0246 C   0  0  0  0  0  0  0  0  0  0  0  0
    9.7690   -2.9475   -3.7014 C   0  0  0  0  0  0  0  0  0  0  0  0
   11.0430   -3.0693   -2.8775 C   0  0  0  0  0  0  0  0  0  0  0  0
   12.1341   -2.4864   -3.5737 O   0  0  0  0  0  0  0  0  0  0  0  0
    6.9231   -1.1480   -4.0546 C   0  0  0  0  0  0  0  0  0  0  0  0
    3.6034   -0.4518   -5.7976 C   0  0  0  0  0  0  0  0  0  0  0  0
    3.4420   -0.4186   -7.0228 O   0  0  0  0  0  0  0  0  0  0  0  0
    2.5505   -0.3162   -4.9389 N   0  0  0  0  0  0  0  0  0  0  0  0
    2.8007   -0.6703   -3.6394 C   0  0  0  0  0  0  0  0  0  0  0  0
    1.8845   -0.9679   -2.8865 O   0  0  0  0  0  0  0  0  0  0  0  0
    4.6679   -1.0603   -1.0328 C   0  0  0  0  0  0  0  0  0  0  0  0
    2.3648    2.5068   -0.7785 H   0  0  0  0  0  0  0  0  0  0  0  0
    4.0364    1.9460   -1.0209 H   0  0  0  0  0  0  0  0  0  0  0  0
    3.4116    2.2298    0.6134 H   0  0  0  0  0  0  0  0  0  0  0  0
    1.9893    0.1839   -1.1235 H   0  0  0  0  0  0  0  0  0  0  0  0
    2.0102    0.3477    0.5924 H   0  0  0  0  0  0  0  0  0  0  0  0
    4.3884    0.0363    1.7306 H   0  0  0  0  0  0  0  0  0  0  0  0
    4.1877   -2.9650    1.0654 H   0  0  0  0  0  0  0  0  0  0  0  0
    7.5251   -2.4053    0.3053 H   0  0  0  0  0  0  0  0  0  0  0  0
    8.3677   -1.7709   -1.8293 H   0  0  0  0  0  0  0  0  0  0  0  0
    5.3583   -0.6808   -8.0804 H   0  0  0  0  0  0  0  0  0  0  0  0
    7.0766   -0.8835   -9.7874 H   0  0  0  0  0  0  0  0  0  0  0  0
    9.4363   -1.2826   -9.1759 H   0  0  0  0  0  0  0  0  0  0  0  0
   10.0850   -1.5199   -6.8130 H   0  0  0  0  0  0  0  0  0  0  0  0
    9.4904   -0.8231   -3.1520 H   0  0  0  0  0  0  0  0  0  0  0  0
   10.2296   -1.0760   -4.6871 H   0  0  0  0  0  0  0  0  0  0  0  0
    9.8850   -3.5030   -4.6396 H   0  0  0  0  0  0  0  0  0  0  0  0
    8.9451   -3.4274   -3.1618 H   0  0  0  0  0  0  0  0  0  0  0  0
   11.2783   -4.1183   -2.6713 H   0  0  0  0  0  0  0  0  0  0  0  0
   10.9374   -2.5540   -1.9169 H   0  0  0  0  0  0  0  0  0  0  0  0
   12.2620   -2.9900   -4.3966 H   0  0  0  0  0  0  0  0  0  0  0  0
    1.6111   -0.3178   -5.2978 H   0  0  0  0  0  0  0  0  0  0  0  0
  1  2  1  0  0  0  0
  1 32  1  0  0  0  0
  1 33  1  0  0  0  0
  1 34  1  0  0  0  0
  2  3  1  0  0  0  0
  2 35  1  0  0  0  0
  2 36  1  0  0  0  0
  3  4  1  0  0  0  0
  3 31  1  0  0  0  0
  4  5  2  0  0  0  0
  4 37  1  0  0  0  0
  5  6  1  0  0  0  0
  5 38  1  0  0  0  0
  6  7  1  0  0  0  0
  6 31  2  0  0  0  0
  7  8  2  0  0  0  0
  7 39  1  0  0  0  0
  8  9  1  0  0  0  0
  8 40  1  0  0  0  0
  9 10  1  0  0  0  0
  9 25  2  0  0  0  0
 10 11  2  0  0  0  0
 10 31  1  0  0  0  0
 11 12  1  0  0  0  0
 11 29  1  0  0  0  0
 12 13  2  0  0  0  0
 12 26  1  0  0  0  0
 13 14  1  0  0  0  0
 13 25  1  0  0  0  0
 14 15  1  0  0  0  0
 14 19  2  0  0  0  0
 15 16  2  0  0  0  0
 15 41  1  0  0  0  0
 16 17  1  0  0  0  0
 16 42  1  0  0  0  0
 17 18  2  0  0  0  0
 17 43  1  0  0  0  0
 18 19  1  0  0  0  0
 18 44  1  0  0  0  0
 19 20  1  0  0  0  0
 20 21  1  0  0  0  0
 20 25  1  0  0  0  0
 21 22  1  0  0  0  0
 21 45  1  0  0  0  0
 21 46  1  0  0  0  0
 22 23  1  0  0  0  0
 22 47  1  0  0  0  0
 22 48  1  0  0  0  0
 23 24  1  0  0  0  0
 23 49  1  0  0  0  0
 23 50  1  0  0  0  0
 24 51  1  0  0  0  0
 26 27  2  0  0  0  0
 26 28  1  0  0  0  0
 28 29  1  0  0  0  0
 28 52  1  0  0  0  0
 29 30  2  0  0  0  0
M  END
$$$$
