MODEL 1
REMARK VINA RESULT:    -9.993      0.000      0.000
REMARK INTER + INTRA:         -13.580
REMARK INTER:                 -12.914
REMARK INTRA:                  -0.667
REMARK UNBOUND:                -0.667
REMARK  Name = 
REMARK  7 active torsions:
REMARK  status: ('A' for Active; 'I' for Inactive)
REMARK    1  A    between atoms: C_2  and  C_3
REMARK    2  A    between atoms: C_3  and  C_4
REMARK    3  A    between atoms: C_4  and  C_5
REMARK    4  A    between atoms: C_14  and  O_15
REMARK    5  A    between atoms: C_16  and  O_17
REMARK    6  A    between atoms: C_23  and  O_24
REMARK    7  A    between atoms: C_25  and  O_26
REMARK                            x       y       z     vdW  Elec       q    Type
REMARK                         _______ _______ _______ _____ _____    ______ ____
ROOT
ATOM      1  O   UNL     1     -11.091  -6.830  19.178  0.00  0.00    +0.000 OA
ATOM      2  C   UNL     1     -10.057  -7.390  18.873  0.00  0.00    +0.000 C 
ATOM      3  N   UNL     1      -9.915  -7.865  17.552  0.00  0.00    +0.000 N 
ATOM      4  C   UNL     1     -10.232  -7.090  16.442  0.00  0.00    +0.000 A 
ATOM      5  C   UNL     1     -10.973  -5.913  16.259  0.00  0.00    +0.000 A 
ATOM      6  C   UNL     1     -10.525  -5.081  15.235  0.00  0.00    +0.000 A 
ATOM      7  C   UNL     1      -9.404  -5.403  14.476  0.00  0.00    +0.000 A 
ATOM      8  C   UNL     1      -8.896  -6.698  14.473  0.00  0.00    +0.000 A 
ATOM      9  C   UNL     1      -9.410  -7.589  15.427  0.00  0.00    +0.000 A 
ATOM     10  C   UNL     1      -9.411  -8.978  15.687  0.00  0.00    +0.000 A 
ATOM     11  C   UNL     1      -9.421 -10.162  14.931  0.00  0.00    +0.000 A 
ATOM     12  C   UNL     1      -9.230 -11.386  15.572  0.00  0.00    +0.000 A 
ATOM     13  C   UNL     1      -8.821 -11.385  16.898  0.00  0.00    +0.000 A 
ATOM     14  C   UNL     1      -8.847 -10.223  17.674  0.00  0.00    +0.000 A 
ATOM     15  C   UNL     1      -9.344  -9.055  17.089  0.00  0.00    +0.000 A 
ATOM     16  H   UNL     1     -11.754  -5.616  16.949  0.00  0.00    +0.000 HD
ATOM     17  H   UNL     1      -8.052  -6.967  13.841  0.00  0.00    +0.000 HD
ATOM     18  H   UNL     1      -9.680 -10.133  13.874  0.00  0.00    +0.000 HD
ATOM     19  H   UNL     1      -9.350 -12.313  15.019  0.00  0.00    +0.000 HD
ENDROOT
BRANCH   2  20
ATOM     20  C   UNL     1      -8.767  -7.365  19.641  0.00  0.00    +0.000 C 
ATOM     21  H   UNL     1      -8.442  -8.407  19.818  0.00  0.00    +0.000 HD
ATOM     22  H   UNL     1      -8.855  -6.886  20.582  0.00  0.00    +0.000 HD
BRANCH  20  23
ATOM     23  C   UNL     1      -7.682  -6.632  18.836  0.00  0.00    +0.000 C 
ATOM     24  H   UNL     1      -8.136  -6.053  18.024  0.00  0.00    +0.000 HD
ATOM     25  H   UNL     1      -6.994  -7.341  18.355  0.00  0.00    +0.000 HD
BRANCH  23  26
ATOM     26  C   UNL     1      -6.910  -5.703  19.741  0.00  0.00    +0.000 A 
ATOM     27  C   UNL     1      -7.589  -4.862  20.630  0.00  0.00    +0.000 A 
ATOM     28  C   UNL     1      -6.879  -3.981  21.446  0.00  0.00    +0.000 A 
ATOM     29  C   UNL     1      -5.488  -3.926  21.363  0.00  0.00    +0.000 A 
ATOM     30  C   UNL     1      -4.804  -4.738  20.466  0.00  0.00    +0.000 A 
ATOM     31  C   UNL     1      -5.515  -5.620  19.645  0.00  0.00    +0.000 A 
ATOM     32  H   UNL     1      -8.674  -4.887  20.688  0.00  0.00    +0.000 HD
ATOM     33  H   UNL     1      -7.412  -3.337  22.137  0.00  0.00    +0.000 HD
ATOM     34  H   UNL     1      -4.936  -3.244  22.005  0.00  0.00    +0.000 HD
ATOM     35  H   UNL     1      -3.724  -4.683  20.390  0.00  0.00    +0.000 HD
ATOM     36  H   UNL     1      -4.974  -6.237  18.931  0.00  0.00    +0.000 HD
ENDBRANCH  23  26
ENDBRANCH  20  23
ENDBRANCH   2  20
BRANCH   6  37
ATOM     37  O   UNL     1     -11.140  -3.886  14.979  0.00  0.00    +0.000 OA
ATOM     38  H   UNL     1     -10.489  -3.194  15.198  0.00  0.00    +0.000 HD
ENDBRANCH   6  37
BRANCH   7  39
ATOM     39  O   UNL     1      -8.790  -4.434  13.738  0.00  0.00    +0.000 OA
ATOM     40  H   UNL     1      -8.803  -4.783  12.824  0.00  0.00    +0.000 HD
ENDBRANCH   7  39
BRANCH  13  41
ATOM     41  O   UNL     1      -8.409 -12.528  17.530  0.00  0.00    +0.000 OA
ATOM     42  H   UNL     1      -8.016 -12.276  18.383  0.00  0.00    +0.000 HD
ENDBRANCH  13  41
BRANCH  14  43
ATOM     43  O   UNL     1      -8.364 -10.297  18.946  0.00  0.00    +0.000 OA
ATOM     44  H   UNL     1      -7.456  -9.931  18.884  0.00  0.00    +0.000 HD
ENDBRANCH  14  43
TORSDOF 7
ENDMDL
MODEL 2
REMARK VINA RESULT:    -9.692      3.151      7.171
REMARK INTER + INTRA:         -13.192
REMARK INTER:                 -12.663
REMARK INTRA:                  -0.529
REMARK UNBOUND:                -0.667
REMARK  Name = 
REMARK  7 active torsions:
REMARK  status: ('A' for Active; 'I' for Inactive)
REMARK    1  A    between atoms: C_2  and  C_3
REMARK    2  A    between atoms: C_3  and  C_4
REMARK    3  A    between atoms: C_4  and  C_5
REMARK    4  A    between atoms: C_14  and  O_15
REMARK    5  A    between atoms: C_16  and  O_17
REMARK    6  A    between atoms: C_23  and  O_24
REMARK    7  A    between atoms: C_25  and  O_26
REMARK                            x       y       z     vdW  Elec       q    Type
REMARK                         _______ _______ _______ _____ _____    ______ ____
ROOT
ATOM      1  O   UNL     1      -9.862  -3.830  18.116  0.00  0.00    +0.000 OA
ATOM      2  C   UNL     1      -9.263  -4.573  18.868  0.00  0.00    +0.000 C 
ATOM      3  N   UNL     1      -8.481  -4.002  19.894  0.00  0.00    +0.000 N 
ATOM      4  C   UNL     1      -8.953  -2.982  20.713  0.00  0.00    +0.000 A 
ATOM      5  C   UNL     1     -10.034  -2.092  20.631  0.00  0.00    +0.000 A 
ATOM      6  C   UNL     1     -10.597  -1.727  21.851  0.00  0.00    +0.000 A 
ATOM      7  C   UNL     1     -10.119  -2.238  23.054  0.00  0.00    +0.000 A 
ATOM      8  C   UNL     1      -8.873  -2.852  23.120  0.00  0.00    +0.000 A 
ATOM      9  C   UNL     1      -8.235  -3.135  21.902  0.00  0.00    +0.000 A 
ATOM     10  C   UNL     1      -6.952  -3.509  21.441  0.00  0.00    +0.000 A 
ATOM     11  C   UNL     1      -5.620  -3.257  21.803  0.00  0.00    +0.000 A 
ATOM     12  C   UNL     1      -4.594  -3.978  21.191  0.00  0.00    +0.000 A 
ATOM     13  C   UNL     1      -4.929  -5.070  20.404  0.00  0.00    +0.000 A 
ATOM     14  C   UNL     1      -6.245  -5.309  20.000  0.00  0.00    +0.000 A 
ATOM     15  C   UNL     1      -7.224  -4.384  20.375  0.00  0.00    +0.000 A 
ATOM     16  H   UNL     1     -10.477  -1.817  19.681  0.00  0.00    +0.000 HD
ATOM     17  H   UNL     1      -8.472  -3.207  24.068  0.00  0.00    +0.000 HD
ATOM     18  H   UNL     1      -5.382  -2.436  22.477  0.00  0.00    +0.000 HD
ATOM     19  H   UNL     1      -3.557  -3.714  21.377  0.00  0.00    +0.000 HD
ENDROOT
BRANCH   2  20
ATOM     20  C   UNL     1      -9.500  -6.045  19.047  0.00  0.00    +0.000 C 
ATOM     21  H   UNL     1     -10.118  -6.195  19.951  0.00  0.00    +0.000 HD
ATOM     22  H   UNL     1      -8.604  -6.597  19.168  0.00  0.00    +0.000 HD
BRANCH  20  23
ATOM     23  C   UNL     1     -10.247  -6.616  17.830  0.00  0.00    +0.000 C 
ATOM     24  H   UNL     1      -9.991  -6.051  16.927  0.00  0.00    +0.000 HD
ATOM     25  H   UNL     1     -11.335  -6.521  17.949  0.00  0.00    +0.000 HD
BRANCH  23  26
ATOM     26  C   UNL     1      -9.877  -8.066  17.634  0.00  0.00    +0.000 A 
ATOM     27  C   UNL     1     -10.343  -8.765  16.516  0.00  0.00    +0.000 A 
ATOM     28  C   UNL     1     -10.027 -10.113  16.347  0.00  0.00    +0.000 A 
ATOM     29  C   UNL     1      -9.257 -10.771  17.306  0.00  0.00    +0.000 A 
ATOM     30  C   UNL     1      -8.809 -10.094  18.434  0.00  0.00    +0.000 A 
ATOM     31  C   UNL     1      -9.128  -8.742  18.606  0.00  0.00    +0.000 A 
ATOM     32  H   UNL     1     -10.957  -8.264  15.772  0.00  0.00    +0.000 HD
ATOM     33  H   UNL     1     -10.387 -10.647  15.474  0.00  0.00    +0.000 HD
ATOM     34  H   UNL     1      -9.006 -11.820  17.169  0.00  0.00    +0.000 HD
ATOM     35  H   UNL     1      -8.225 -10.609  19.188  0.00  0.00    +0.000 HD
ATOM     36  H   UNL     1      -8.791  -8.225  19.501  0.00  0.00    +0.000 HD
ENDBRANCH  23  26
ENDBRANCH  20  23
ENDBRANCH   2  20
BRANCH   6  37
ATOM     37  O   UNL     1     -11.681  -0.893  21.905  0.00  0.00    +0.000 OA
ATOM     38  H   UNL     1     -12.357  -1.289  21.326  0.00  0.00    +0.000 HD
ENDBRANCH   6  37
BRANCH   7  39
ATOM     39  O   UNL     1     -10.888  -2.147  24.177  0.00  0.00    +0.000 OA
ATOM     40  H   UNL     1     -10.463  -2.759  24.811  0.00  0.00    +0.000 HD
ENDBRANCH   7  39
BRANCH  13  41
ATOM     41  O   UNL     1      -3.985  -5.950  19.945  0.00  0.00    +0.000 OA
ATOM     42  H   UNL     1      -4.213  -6.187  19.030  0.00  0.00    +0.000 HD
ENDBRANCH  13  41
BRANCH  14  43
ATOM     43  O   UNL     1      -6.496  -6.442  19.284  0.00  0.00    +0.000 OA
ATOM     44  H   UNL     1      -6.550  -6.136  18.354  0.00  0.00    +0.000 HD
ENDBRANCH  14  43
TORSDOF 7
ENDMDL
MODEL 3
REMARK VINA RESULT:    -9.193      3.273      6.757
REMARK INTER + INTRA:         -12.547
REMARK INTER:                 -12.070
REMARK INTRA:                  -0.477
REMARK UNBOUND:                -0.667
REMARK  Name = 
REMARK  7 active torsions:
REMARK  status: ('A' for Active; 'I' for Inactive)
REMARK    1  A    between atoms: C_2  and  C_3
REMARK    2  A    between atoms: C_3  and  C_4
REMARK    3  A    between atoms: C_4  and  C_5
REMARK    4  A    between atoms: C_14  and  O_15
REMARK    5  A    between atoms: C_16  and  O_17
REMARK    6  A    between atoms: C_23  and  O_24
REMARK    7  A    between atoms: C_25  and  O_26
REMARK                            x       y       z     vdW  Elec       q    Type
REMARK                         _______ _______ _______ _____ _____    ______ ____
ROOT
ATOM      1  O   UNL     1     -11.480  -6.607  17.043  0.00  0.00    +0.000 OA
ATOM      2  C   UNL     1     -10.768  -5.933  16.326  0.00  0.00    +0.000 C 
ATOM      3  N   UNL     1     -11.166  -4.611  16.036  0.00  0.00    +0.000 N 
ATOM      4  C   UNL     1     -11.603  -3.730  17.020  0.00  0.00    +0.000 A 
ATOM      5  C   UNL     1     -12.042  -3.891  18.342  0.00  0.00    +0.000 A 
ATOM      6  C   UNL     1     -11.736  -2.839  19.203  0.00  0.00    +0.000 A 
ATOM      7  C   UNL     1     -11.024  -1.727  18.764  0.00  0.00    +0.000 A 
ATOM      8  C   UNL     1     -10.888  -1.460  17.407  0.00  0.00    +0.000 A 
ATOM      9  C   UNL     1     -11.290  -2.465  16.514  0.00  0.00    +0.000 A 
ATOM     10  C   UNL     1     -11.562  -2.610  15.135  0.00  0.00    +0.000 A 
ATOM     11  C   UNL     1     -12.104  -1.819  14.109  0.00  0.00    +0.000 A 
ATOM     12  C   UNL     1     -12.041  -2.269  12.790  0.00  0.00    +0.000 A 
ATOM     13  C   UNL     1     -11.256  -3.376  12.503  0.00  0.00    +0.000 A 
ATOM     14  C   UNL     1     -10.747  -4.197  13.512  0.00  0.00    +0.000 A 
ATOM     15  C   UNL     1     -11.087  -3.899  14.835  0.00  0.00    +0.000 A 
ATOM     16  H   UNL     1     -12.469  -4.823  18.693  0.00  0.00    +0.000 HD
ATOM     17  H   UNL     1     -10.377  -0.563  17.060  0.00  0.00    +0.000 HD
ATOM     18  H   UNL     1     -12.661  -0.915  14.352  0.00  0.00    +0.000 HD
ATOM     19  H   UNL     1     -12.556  -1.723  12.004  0.00  0.00    +0.000 HD
ENDROOT
BRANCH   2  20
ATOM     20  C   UNL     1      -9.342  -6.222  15.956  0.00  0.00    +0.000 C 
ATOM     21  H   UNL     1      -8.769  -5.277  15.995  0.00  0.00    +0.000 HD
ATOM     22  H   UNL     1      -9.241  -6.626  14.982  0.00  0.00    +0.000 HD
BRANCH  20  23
ATOM     23  C   UNL     1      -8.726  -7.222  16.948  0.00  0.00    +0.000 C 
ATOM     24  H   UNL     1      -9.171  -7.095  17.942  0.00  0.00    +0.000 HD
ATOM     25  H   UNL     1      -7.649  -7.047  17.075  0.00  0.00    +0.000 HD
BRANCH  23  26
ATOM     26  C   UNL     1      -8.964  -8.633  16.471  0.00  0.00    +0.000 A 
ATOM     27  C   UNL     1      -9.193  -9.659  17.394  0.00  0.00    +0.000 A 
ATOM     28  C   UNL     1      -9.383 -10.970  16.957  0.00  0.00    +0.000 A 
ATOM     29  C   UNL     1      -9.328 -11.262  15.594  0.00  0.00    +0.000 A 
ATOM     30  C   UNL     1      -9.075 -10.256  14.668  0.00  0.00    +0.000 A 
ATOM     31  C   UNL     1      -8.882  -8.941  15.107  0.00  0.00    +0.000 A 
ATOM     32  H   UNL     1      -9.222  -9.442  18.458  0.00  0.00    +0.000 HD
ATOM     33  H   UNL     1      -9.567 -11.759  17.678  0.00  0.00    +0.000 HD
ATOM     34  H   UNL     1      -9.483 -12.283  15.255  0.00  0.00    +0.000 HD
ATOM     35  H   UNL     1      -9.015 -10.486  13.611  0.00  0.00    +0.000 HD
ATOM     36  H   UNL     1      -8.664  -8.164  14.378  0.00  0.00    +0.000 HD
ENDBRANCH  23  26
ENDBRANCH  20  23
ENDBRANCH   2  20
BRANCH   6  37
ATOM     37  O   UNL     1     -12.076  -2.891  20.527  0.00  0.00    +0.000 OA
ATOM     38  H   UNL     1     -11.348  -2.459  21.011  0.00  0.00    +0.000 HD
ENDBRANCH   6  37
BRANCH   7  39
ATOM     39  O   UNL     1     -10.444  -0.896  19.679  0.00  0.00    +0.000 OA
ATOM     40  H   UNL     1     -11.179  -0.330  19.990  0.00  0.00    +0.000 HD
ENDBRANCH   7  39
BRANCH  13  41
ATOM     41  O   UNL     1     -10.973  -3.749  11.216  0.00  0.00    +0.000 OA
ATOM     42  H   UNL     1     -10.027  -3.590  11.058  0.00  0.00    +0.000 HD
ENDBRANCH  13  41
BRANCH  14  43
ATOM     43  O   UNL     1      -9.929  -5.224  13.145  0.00  0.00    +0.000 OA
ATOM     44  H   UNL     1     -10.540  -5.916  12.814  0.00  0.00    +0.000 HD
ENDBRANCH  14  43
TORSDOF 7
ENDMDL
MODEL 4
REMARK VINA RESULT:    -8.933      1.969      5.718
REMARK INTER + INTRA:         -12.211
REMARK INTER:                 -12.048
REMARK INTRA:                  -0.163
REMARK UNBOUND:                -0.667
REMARK  Name = 
REMARK  7 active torsions:
REMARK  status: ('A' for Active; 'I' for Inactive)
REMARK    1  A    between atoms: C_2  and  C_3
REMARK    2  A    between atoms: C_3  and  C_4
REMARK    3  A    between atoms: C_4  and  C_5
REMARK    4  A    between atoms: C_14  and  O_15
REMARK    5  A    between atoms: C_16  and  O_17
REMARK    6  A    between atoms: C_23  and  O_24
REMARK    7  A    between atoms: C_25  and  O_26
REMARK                            x       y       z     vdW  Elec       q    Type
REMARK                         _______ _______ _______ _____ _____    ______ ____
ROOT
ATOM      1  O   UNL     1      -8.500  -8.060  14.330  0.00  0.00    +0.000 OA
ATOM      2  C   UNL     1      -9.200  -8.047  15.322  0.00  0.00    +0.000 C 
ATOM      3  N   UNL     1      -9.259  -6.863  16.087  0.00  0.00    +0.000 N 
ATOM      4  C   UNL     1      -9.444  -5.610  15.513  0.00  0.00    +0.000 A 
ATOM      5  C   UNL     1      -9.331  -5.115  14.205  0.00  0.00    +0.000 A 
ATOM      6  C   UNL     1     -10.212  -4.087  13.880  0.00  0.00    +0.000 A 
ATOM      7  C   UNL     1     -11.146  -3.614  14.797  0.00  0.00    +0.000 A 
ATOM      8  C   UNL     1     -11.019  -3.900  16.152  0.00  0.00    +0.000 A 
ATOM      9  C   UNL     1     -10.061  -4.859  16.517  0.00  0.00    +0.000 A 
ATOM     10  C   UNL     1      -9.411  -5.315  17.685  0.00  0.00    +0.000 A 
ATOM     11  C   UNL     1      -8.956  -4.755  18.890  0.00  0.00    +0.000 A 
ATOM     12  C   UNL     1      -8.509  -5.595  19.911  0.00  0.00    +0.000 A 
ATOM     13  C   UNL     1      -8.729  -6.959  19.792  0.00  0.00    +0.000 A 
ATOM     14  C   UNL     1      -9.140  -7.535  18.588  0.00  0.00    +0.000 A 
ATOM     15  C   UNL     1      -9.284  -6.700  17.476  0.00  0.00    +0.000 A 
ATOM     16  H   UNL     1      -8.695  -5.590  13.467  0.00  0.00    +0.000 HD
ATOM     17  H   UNL     1     -11.717  -3.490  16.880  0.00  0.00    +0.000 HD
ATOM     18  H   UNL     1      -8.854  -3.675  18.987  0.00  0.00    +0.000 HD
ATOM     19  H   UNL     1      -8.049  -5.173  20.800  0.00  0.00    +0.000 HD
ENDROOT
BRANCH   2  20
ATOM     20  C   UNL     1     -10.274  -9.037  15.671  0.00  0.00    +0.000 C 
ATOM     21  H   UNL     1     -11.257  -8.587  15.439  0.00  0.00    +0.000 HD
ATOM     22  H   UNL     1     -10.271  -9.306  16.696  0.00  0.00    +0.000 HD
BRANCH  20  23
ATOM     23  C   UNL     1     -10.104 -10.322  14.844  0.00  0.00    +0.000 C 
ATOM     24  H   UNL     1      -9.509 -10.120  13.946  0.00  0.00    +0.000 HD
ATOM     25  H   UNL     1     -11.072 -10.698  14.486  0.00  0.00    +0.000 HD
BRANCH  23  26
ATOM     26  C   UNL     1      -9.416 -11.379  15.672  0.00  0.00    +0.000 A 
ATOM     27  C   UNL     1      -8.804 -12.472  15.049  0.00  0.00    +0.000 A 
ATOM     28  C   UNL     1      -8.194 -13.466  15.813  0.00  0.00    +0.000 A 
ATOM     29  C   UNL     1      -8.209 -13.379  17.206  0.00  0.00    +0.000 A 
ATOM     30  C   UNL     1      -8.838 -12.312  17.837  0.00  0.00    +0.000 A 
ATOM     31  C   UNL     1      -9.452 -11.315  17.071  0.00  0.00    +0.000 A 
ATOM     32  H   UNL     1      -8.801 -12.555  13.966  0.00  0.00    +0.000 HD
ATOM     33  H   UNL     1      -7.715 -14.307  15.323  0.00  0.00    +0.000 HD
ATOM     34  H   UNL     1      -7.727 -14.152  17.800  0.00  0.00    +0.000 HD
ATOM     35  H   UNL     1      -8.865 -12.254  18.919  0.00  0.00    +0.000 HD
ATOM     36  H   UNL     1      -9.959 -10.494  17.573  0.00  0.00    +0.000 HD
ENDBRANCH  23  26
ENDBRANCH  20  23
ENDBRANCH   2  20
BRANCH   6  37
ATOM     37  O   UNL     1     -10.228  -3.542  12.625  0.00  0.00    +0.000 OA
ATOM     38  H   UNL     1     -10.493  -2.611  12.737  0.00  0.00    +0.000 HD
ENDBRANCH   6  37
BRANCH   7  39
ATOM     39  O   UNL     1     -12.204  -2.873  14.359  0.00  0.00    +0.000 OA
ATOM     40  H   UNL     1     -12.829  -2.876  15.112  0.00  0.00    +0.000 HD
ENDBRANCH   7  39
BRANCH  13  41
ATOM     41  O   UNL     1      -8.516  -7.821  20.835  0.00  0.00    +0.000 OA
ATOM     42  H   UNL     1      -7.640  -7.628  21.211  0.00  0.00    +0.000 HD
ENDBRANCH  13  41
BRANCH  14  43
ATOM     43  O   UNL     1      -9.398  -8.874  18.577  0.00  0.00    +0.000 OA
ATOM     44  H   UNL     1      -8.834  -9.237  19.292  0.00  0.00    +0.000 HD
ENDBRANCH  14  43
TORSDOF 7
ENDMDL
MODEL 5
REMARK VINA RESULT:    -8.818      2.807      6.179
REMARK INTER + INTRA:         -12.063
REMARK INTER:                 -11.513
REMARK INTRA:                  -0.550
REMARK UNBOUND:                -0.667
REMARK  Name = 
REMARK  7 active torsions:
REMARK  status: ('A' for Active; 'I' for Inactive)
REMARK    1  A    between atoms: C_2  and  C_3
REMARK    2  A    between atoms: C_3  and  C_4
REMARK    3  A    between atoms: C_4  and  C_5
REMARK    4  A    between atoms: C_14  and  O_15
REMARK    5  A    between atoms: C_16  and  O_17
REMARK    6  A    between atoms: C_23  and  O_24
REMARK    7  A    between atoms: C_25  and  O_26
REMARK                            x       y       z     vdW  Elec       q    Type
REMARK                         _______ _______ _______ _____ _____    ______ ____
ROOT
ATOM      1  O   UNL     1      -8.416  -7.142  15.495  0.00  0.00    +0.000 OA
ATOM      2  C   UNL     1      -9.222  -6.752  16.316  0.00  0.00    +0.000 C 
ATOM      3  N   UNL     1      -9.598  -5.393  16.294  0.00  0.00    +0.000 N 
ATOM      4  C   UNL     1      -9.948  -4.733  15.120  0.00  0.00    +0.000 A 
ATOM      5  C   UNL     1      -9.772  -5.017  13.758  0.00  0.00    +0.000 A 
ATOM      6  C   UNL     1     -10.787  -4.561  12.920  0.00  0.00    +0.000 A 
ATOM      7  C   UNL     1     -11.899  -3.893  13.424  0.00  0.00    +0.000 A 
ATOM      8  C   UNL     1     -11.886  -3.360  14.708  0.00  0.00    +0.000 A 
ATOM      9  C   UNL     1     -10.814  -3.720  15.539  0.00  0.00    +0.000 A 
ATOM     10  C   UNL     1     -10.238  -3.308  16.761  0.00  0.00    +0.000 A 
ATOM     11  C   UNL     1     -10.048  -2.098  17.449  0.00  0.00    +0.000 A 
ATOM     12  C   UNL     1      -9.577  -2.122  18.762  0.00  0.00    +0.000 A 
ATOM     13  C   UNL     1      -9.516  -3.340  19.424  0.00  0.00    +0.000 A 
ATOM     14  C   UNL     1      -9.660  -4.553  18.745  0.00  0.00    +0.000 A 
ATOM     15  C   UNL     1      -9.824  -4.513  17.357  0.00  0.00    +0.000 A 
ATOM     16  H   UNL     1      -8.972  -5.657  13.406  0.00  0.00    +0.000 HD
ATOM     17  H   UNL     1     -12.734  -2.791  15.088  0.00  0.00    +0.000 HD
ATOM     18  H   UNL     1     -10.167  -1.149  16.928  0.00  0.00    +0.000 HD
ATOM     19  H   UNL     1      -9.318  -1.194  19.263  0.00  0.00    +0.000 HD
ENDROOT
BRANCH   2  20
ATOM     20  C   UNL     1     -10.121  -7.607  17.162  0.00  0.00    +0.000 C 
ATOM     21  H   UNL     1     -10.895  -6.961  17.617  0.00  0.00    +0.000 HD
ATOM     22  H   UNL     1      -9.606  -8.100  17.945  0.00  0.00    +0.000 HD
BRANCH  20  23
ATOM     23  C   UNL     1     -10.806  -8.678  16.298  0.00  0.00    +0.000 C 
ATOM     24  H   UNL     1     -10.918  -8.321  15.268  0.00  0.00    +0.000 HD
ATOM     25  H   UNL     1     -11.823  -8.890  16.656  0.00  0.00    +0.000 HD
BRANCH  23  26
ATOM     26  C   UNL     1      -9.986  -9.944  16.302  0.00  0.00    +0.000 A 
ATOM     27  C   UNL     1      -9.556 -10.499  17.512  0.00  0.00    +0.000 A 
ATOM     28  C   UNL     1      -8.773 -11.653  17.518  0.00  0.00    +0.000 A 
ATOM     29  C   UNL     1      -8.404 -12.248  16.311  0.00  0.00    +0.000 A 
ATOM     30  C   UNL     1      -8.804 -11.692  15.102  0.00  0.00    +0.000 A 
ATOM     31  C   UNL     1      -9.587 -10.532  15.095  0.00  0.00    +0.000 A 
ATOM     32  H   UNL     1      -9.825 -10.033  18.456  0.00  0.00    +0.000 HD
ATOM     33  H   UNL     1      -8.448 -12.081  18.461  0.00  0.00    +0.000 HD
ATOM     34  H   UNL     1      -7.799 -13.151  16.318  0.00  0.00    +0.000 HD
ATOM     35  H   UNL     1      -8.503 -12.144  14.164  0.00  0.00    +0.000 HD
ATOM     36  H   UNL     1      -9.879 -10.092  14.144  0.00  0.00    +0.000 HD
ENDBRANCH  23  26
ENDBRANCH  20  23
ENDBRANCH   2  20
BRANCH   6  37
ATOM     37  O   UNL     1     -10.753  -4.805  11.574  0.00  0.00    +0.000 OA
ATOM     38  H   UNL     1     -10.255  -4.067  11.177  0.00  0.00    +0.000 HD
ENDBRANCH   6  37
BRANCH   7  39
ATOM     39  O   UNL     1     -13.018  -3.771  12.652  0.00  0.00    +0.000 OA
ATOM     40  H   UNL     1     -13.693  -4.302  13.121  0.00  0.00    +0.000 HD
ENDBRANCH   7  39
BRANCH  13  41
ATOM     41  O   UNL     1      -9.271  -3.422  20.768  0.00  0.00    +0.000 OA
ATOM     42  H   UNL     1      -8.809  -4.261  20.940  0.00  0.00    +0.000 HD
ENDBRANCH  13  41
BRANCH  14  43
ATOM     43  O   UNL     1      -9.654  -5.699  19.482  0.00  0.00    +0.000 OA
ATOM     44  H   UNL     1     -10.233  -5.500  20.248  0.00  0.00    +0.000 HD
ENDBRANCH  14  43
TORSDOF 7
ENDMDL
MODEL 6
REMARK VINA RESULT:    -8.202      3.455      6.522
REMARK INTER + INTRA:         -11.267
REMARK INTER:                 -10.749
REMARK INTRA:                  -0.518
REMARK UNBOUND:                -0.667
REMARK  Name = 
REMARK  7 active torsions:
REMARK  status: ('A' for Active; 'I' for Inactive)
REMARK    1  A    between atoms: C_2  and  C_3
REMARK    2  A    between atoms: C_3  and  C_4
REMARK    3  A    between atoms: C_4  and  C_5
REMARK    4  A    between atoms: C_14  and  O_15
REMARK    5  A    between atoms: C_16  and  O_17
REMARK    6  A    between atoms: C_23  and  O_24
REMARK    7  A    between atoms: C_25  and  O_26
REMARK                            x       y       z     vdW  Elec       q    Type
REMARK                         _______ _______ _______ _____ _____    ______ ____
ROOT
ATOM      1  O   UNL     1     -11.480  -4.734  18.764  0.00  0.00    +0.000 OA
ATOM      2  C   UNL     1     -10.705  -4.693  17.830  0.00  0.00    +0.000 C 
ATOM      3  N   UNL     1     -10.687  -3.537  17.021  0.00  0.00    +0.000 N 
ATOM      4  C   UNL     1     -10.659  -2.253  17.555  0.00  0.00    +0.000 A 
ATOM      5  C   UNL     1     -10.920  -1.724  18.827  0.00  0.00    +0.000 A 
ATOM      6  C   UNL     1     -10.161  -0.609  19.175  0.00  0.00    +0.000 A 
ATOM      7  C   UNL     1      -9.200  -0.088  18.315  0.00  0.00    +0.000 A 
ATOM      8  C   UNL     1      -9.191  -0.432  16.967  0.00  0.00    +0.000 A 
ATOM      9  C   UNL     1     -10.030  -1.485  16.571  0.00  0.00    +0.000 A 
ATOM     10  C   UNL     1     -10.539  -2.039  15.375  0.00  0.00    +0.000 A 
ATOM     11  C   UNL     1     -10.942  -1.566  14.116  0.00  0.00    +0.000 A 
ATOM     12  C   UNL     1     -11.230  -2.478  13.100  0.00  0.00    +0.000 A 
ATOM     13  C   UNL     1     -10.902  -3.813  13.294  0.00  0.00    +0.000 A 
ATOM     14  C   UNL     1     -10.542  -4.306  14.550  0.00  0.00    +0.000 A 
ATOM     15  C   UNL     1     -10.563  -3.422  15.633  0.00  0.00    +0.000 A 
ATOM     16  H   UNL     1     -11.571  -2.227  19.533  0.00  0.00    +0.000 HD
ATOM     17  H   UNL     1      -8.474   0.013  16.280  0.00  0.00    +0.000 HD
ATOM     18  H   UNL     1     -11.129  -0.504  13.966  0.00  0.00    +0.000 HD
ATOM     19  H   UNL     1     -11.651  -2.131  12.161  0.00  0.00    +0.000 HD
ENDROOT
BRANCH   2  20
ATOM     20  C   UNL     1      -9.524  -5.595  17.608  0.00  0.00    +0.000 C 
ATOM     21  H   UNL     1      -8.601  -4.992  17.689  0.00  0.00    +0.000 HD
ATOM     22  H   UNL     1      -9.531  -6.057  16.655  0.00  0.00    +0.000 HD
BRANCH  20  23
ATOM     23  C   UNL     1      -9.493  -6.703  18.673  0.00  0.00    +0.000 C 
ATOM     24  H   UNL     1     -10.344  -6.599  19.355  0.00  0.00    +0.000 HD
ATOM     25  H   UNL     1      -8.593  -6.631  19.298  0.00  0.00    +0.000 HD
BRANCH  23  26
ATOM     26  C   UNL     1      -9.548  -8.057  18.008  0.00  0.00    +0.000 A 
ATOM     27  C   UNL     1     -10.328  -8.246  16.862  0.00  0.00    +0.000 A 
ATOM     28  C   UNL     1     -10.404  -9.503  16.262  0.00  0.00    +0.000 A 
ATOM     29  C   UNL     1      -9.713 -10.580  16.817  0.00  0.00    +0.000 A 
ATOM     30  C   UNL     1      -8.955 -10.410  17.970  0.00  0.00    +0.000 A 
ATOM     31  C   UNL     1      -8.880  -9.150  18.574  0.00  0.00    +0.000 A 
ATOM     32  H   UNL     1     -10.882  -7.416  16.432  0.00  0.00    +0.000 HD
ATOM     33  H   UNL     1     -11.006  -9.640  15.370  0.00  0.00    +0.000 HD
ATOM     34  H   UNL     1      -9.768 -11.557  16.344  0.00  0.00    +0.000 HD
ATOM     35  H   UNL     1      -8.432 -11.251  18.411  0.00  0.00    +0.000 HD
ATOM     36  H   UNL     1      -8.302  -9.031  19.487  0.00  0.00    +0.000 HD
ENDBRANCH  23  26
ENDBRANCH  20  23
ENDBRANCH   2  20
BRANCH   6  37
ATOM     37  O   UNL     1     -10.295  -0.021  20.404  0.00  0.00    +0.000 OA
ATOM     38  H   UNL     1     -11.240   0.201  20.496  0.00  0.00    +0.000 HD
ENDBRANCH   6  37
BRANCH   7  39
ATOM     39  O   UNL     1      -8.249   0.760  18.803  0.00  0.00    +0.000 OA
ATOM     40  H   UNL     1      -8.495   1.634  18.436  0.00  0.00    +0.000 HD
ENDBRANCH   7  39
BRANCH  13  41
ATOM     41  O   UNL     1     -10.954  -4.726  12.275  0.00  0.00    +0.000 OA
ATOM     42  H   UNL     1     -11.880  -4.805  11.988  0.00  0.00    +0.000 HD
ENDBRANCH  13  41
BRANCH  14  43
ATOM     43  O   UNL     1     -10.171  -5.614  14.638  0.00  0.00    +0.000 OA
ATOM     44  H   UNL     1      -9.695  -5.790  13.799  0.00  0.00    +0.000 HD
ENDBRANCH  14  43
TORSDOF 7
ENDMDL
MODEL 7
REMARK VINA RESULT:    -8.191      2.956      5.444
REMARK INTER + INTRA:         -11.252
REMARK INTER:                 -10.563
REMARK INTRA:                  -0.689
REMARK UNBOUND:                -0.667
REMARK  Name = 
REMARK  7 active torsions:
REMARK  status: ('A' for Active; 'I' for Inactive)
REMARK    1  A    between atoms: C_2  and  C_3
REMARK    2  A    between atoms: C_3  and  C_4
REMARK    3  A    between atoms: C_4  and  C_5
REMARK    4  A    between atoms: C_14  and  O_15
REMARK    5  A    between atoms: C_16  and  O_17
REMARK    6  A    between atoms: C_23  and  O_24
REMARK    7  A    between atoms: C_25  and  O_26
REMARK                            x       y       z     vdW  Elec       q    Type
REMARK                         _______ _______ _______ _____ _____    ______ ____
ROOT
ATOM      1  O   UNL     1     -10.906  -6.382  18.774  0.00  0.00    +0.000 OA
ATOM      2  C   UNL     1     -10.263  -5.797  17.925  0.00  0.00    +0.000 C 
ATOM      3  N   UNL     1     -10.796  -4.611  17.376  0.00  0.00    +0.000 N 
ATOM      4  C   UNL     1     -11.335  -3.600  18.164  0.00  0.00    +0.000 A 
ATOM      5  C   UNL     1     -11.767  -3.533  19.497  0.00  0.00    +0.000 A 
ATOM      6  C   UNL     1     -11.583  -2.301  20.121  0.00  0.00    +0.000 A 
ATOM      7  C   UNL     1     -10.990  -1.232  19.456  0.00  0.00    +0.000 A 
ATOM      8  C   UNL     1     -10.869  -1.236  18.070  0.00  0.00    +0.000 A 
ATOM      9  C   UNL     1     -11.153  -2.440  17.407  0.00  0.00    +0.000 A 
ATOM     10  C   UNL     1     -11.395  -2.891  16.090  0.00  0.00    +0.000 A 
ATOM     11  C   UNL     1     -12.009  -2.389  14.931  0.00  0.00    +0.000 A 
ATOM     12  C   UNL     1     -11.885  -3.090  13.731  0.00  0.00    +0.000 A 
ATOM     13  C   UNL     1     -10.984  -4.142  13.667  0.00  0.00    +0.000 A 
ATOM     14  C   UNL     1     -10.399  -4.680  14.816  0.00  0.00    +0.000 A 
ATOM     15  C   UNL     1     -10.783  -4.156  16.054  0.00  0.00    +0.000 A 
ATOM     16  H   UNL     1     -12.096  -4.414  20.036  0.00  0.00    +0.000 HD
ATOM     17  H   UNL     1     -10.454  -0.380  17.541  0.00  0.00    +0.000 HD
ATOM     18  H   UNL     1     -12.661  -1.519  14.991  0.00  0.00    +0.000 HD
ATOM     19  H   UNL     1     -12.448  -2.774  12.857  0.00  0.00    +0.000 HD
ENDROOT
BRANCH   2  20
ATOM     20  C   UNL     1      -8.810  -6.002  17.604  0.00  0.00    +0.000 C 
ATOM     21  H   UNL     1      -8.331  -5.012  17.495  0.00  0.00    +0.000 HD
ATOM     22  H   UNL     1      -8.658  -6.541  16.705  0.00  0.00    +0.000 HD
BRANCH  20  23
ATOM     23  C   UNL     1      -8.118  -6.772  18.741  0.00  0.00    +0.000 C 
ATOM     24  H   UNL     1      -7.527  -7.600  18.335  0.00  0.00    +0.000 HD
ATOM     25  H   UNL     1      -8.852  -7.228  19.419  0.00  0.00    +0.000 HD
BRANCH  23  26
ATOM     26  C   UNL     1      -7.214  -5.844  19.514  0.00  0.00    +0.000 A 
ATOM     27  C   UNL     1      -5.828  -5.899  19.332  0.00  0.00    +0.000 A 
ATOM     28  C   UNL     1      -4.987  -5.063  20.067  0.00  0.00    +0.000 A 
ATOM     29  C   UNL     1      -5.531  -4.179  20.999  0.00  0.00    +0.000 A 
ATOM     30  C   UNL     1      -6.904  -4.132  21.208  0.00  0.00    +0.000 A 
ATOM     31  C   UNL     1      -7.748  -4.973  20.472  0.00  0.00    +0.000 A 
ATOM     32  H   UNL     1      -5.396  -6.597  18.619  0.00  0.00    +0.000 HD
ATOM     33  H   UNL     1      -3.914  -5.108  19.916  0.00  0.00    +0.000 HD
ATOM     34  H   UNL     1      -4.874  -3.523  21.566  0.00  0.00    +0.000 HD
ATOM     35  H   UNL     1      -7.325  -3.458  21.944  0.00  0.00    +0.000 HD
ATOM     36  H   UNL     1      -8.819  -4.945  20.656  0.00  0.00    +0.000 HD
ENDBRANCH  23  26
ENDBRANCH  20  23
ENDBRANCH   2  20
BRANCH   6  37
ATOM     37  O   UNL     1     -11.929  -2.117  21.431  0.00  0.00    +0.000 OA
ATOM     38  H   UNL     1     -11.161  -2.406  21.957  0.00  0.00    +0.000 HD
ENDBRANCH   6  37
BRANCH   7  39
ATOM     39  O   UNL     1     -10.511  -0.176  20.174  0.00  0.00    +0.000 OA
ATOM     40  H   UNL     1     -11.312   0.246  20.545  0.00  0.00    +0.000 HD
ENDBRANCH   7  39
BRANCH  13  41
ATOM     41  O   UNL     1     -10.649  -4.738  12.480  0.00  0.00    +0.000 OA
ATOM     42  H   UNL     1     -10.061  -4.135  11.995  0.00  0.00    +0.000 HD
ENDBRANCH  13  41
BRANCH  14  43
ATOM     43  O   UNL     1      -9.473  -5.668  14.656  0.00  0.00    +0.000 OA
ATOM     44  H   UNL     1      -9.816  -6.206  13.912  0.00  0.00    +0.000 HD
ENDBRANCH  14  43
TORSDOF 7
ENDMDL
MODEL 8
REMARK VINA RESULT:    -8.044      2.573      3.810
REMARK INTER + INTRA:         -11.061
REMARK INTER:                 -10.472
REMARK INTRA:                  -0.589
REMARK UNBOUND:                -0.667
REMARK  Name = 
REMARK  7 active torsions:
REMARK  status: ('A' for Active; 'I' for Inactive)
REMARK    1  A    between atoms: C_2  and  C_3
REMARK    2  A    between atoms: C_3  and  C_4
REMARK    3  A    between atoms: C_4  and  C_5
REMARK    4  A    between atoms: C_14  and  O_15
REMARK    5  A    between atoms: C_16  and  O_17
REMARK    6  A    between atoms: C_23  and  O_24
REMARK    7  A    between atoms: C_25  and  O_26
REMARK                            x       y       z     vdW  Elec       q    Type
REMARK                         _______ _______ _______ _____ _____    ______ ____
ROOT
ATOM      1  O   UNL     1     -11.613  -3.269  18.883  0.00  0.00    +0.000 OA
ATOM      2  C   UNL     1     -10.521  -3.802  18.860  0.00  0.00    +0.000 C 
ATOM      3  N   UNL     1     -10.317  -4.878  17.971  0.00  0.00    +0.000 N 
ATOM      4  C   UNL     1     -10.710  -4.831  16.638  0.00  0.00    +0.000 A 
ATOM      5  C   UNL     1     -11.576  -4.002  15.910  0.00  0.00    +0.000 A 
ATOM      6  C   UNL     1     -11.216  -3.786  14.582  0.00  0.00    +0.000 A 
ATOM      7  C   UNL     1     -10.061  -4.345  14.043  0.00  0.00    +0.000 A 
ATOM      8  C   UNL     1      -9.412  -5.394  14.685  0.00  0.00    +0.000 A 
ATOM      9  C   UNL     1      -9.831  -5.703  15.989  0.00  0.00    +0.000 A 
ATOM     10  C   UNL     1      -9.680  -6.745  16.931  0.00  0.00    +0.000 A 
ATOM     11  C   UNL     1      -9.553  -8.143  16.900  0.00  0.00    +0.000 A 
ATOM     12  C   UNL     1      -9.233  -8.828  18.073  0.00  0.00    +0.000 A 
ATOM     13  C   UNL     1      -8.835  -8.096  19.182  0.00  0.00    +0.000 A 
ATOM     14  C   UNL     1      -8.996  -6.709  19.243  0.00  0.00    +0.000 A 
ATOM     15  C   UNL     1      -9.615  -6.072  18.164  0.00  0.00    +0.000 A 
ATOM     16  H   UNL     1     -12.390  -3.468  16.385  0.00  0.00    +0.000 HD
ATOM     17  H   UNL     1      -8.539  -5.869  14.242  0.00  0.00    +0.000 HD
ATOM     18  H   UNL     1      -9.806  -8.695  15.997  0.00  0.00    +0.000 HD
ATOM     19  H   UNL     1      -9.244  -9.914  18.088  0.00  0.00    +0.000 HD
ENDROOT
BRANCH   2  20
ATOM     20  C   UNL     1      -9.247  -3.253  19.436  0.00  0.00    +0.000 C 
ATOM     21  H   UNL     1      -8.532  -3.083  18.610  0.00  0.00    +0.000 HD
ATOM     22  H   UNL     1      -8.793  -3.909  20.133  0.00  0.00    +0.000 HD
BRANCH  20  23
ATOM     23  C   UNL     1      -9.516  -1.917  20.148  0.00  0.00    +0.000 C 
ATOM     24  H   UNL     1     -10.440  -1.464  19.771  0.00  0.00    +0.000 HD
ATOM     25  H   UNL     1      -8.718  -1.190  19.946  0.00  0.00    +0.000 HD
BRANCH  23  26
ATOM     26  C   UNL     1      -9.641  -2.143  21.635  0.00  0.00    +0.000 A 
ATOM     27  C   UNL     1      -8.613  -2.781  22.337  0.00  0.00    +0.000 A 
ATOM     28  C   UNL     1      -8.737  -3.018  23.706  0.00  0.00    +0.000 A 
ATOM     29  C   UNL     1      -9.900  -2.632  24.374  0.00  0.00    +0.000 A 
ATOM     30  C   UNL     1     -10.939  -2.021  23.682  0.00  0.00    +0.000 A 
ATOM     31  C   UNL     1     -10.815  -1.785  22.308  0.00  0.00    +0.000 A 
ATOM     32  H   UNL     1      -7.711  -3.098  21.821  0.00  0.00    +0.000 HD
ATOM     33  H   UNL     1      -7.933  -3.507  24.246  0.00  0.00    +0.000 HD
ATOM     34  H   UNL     1      -9.993  -2.811  25.442  0.00  0.00    +0.000 HD
ATOM     35  H   UNL     1     -11.849  -1.737  24.197  0.00  0.00    +0.000 HD
ATOM     36  H   UNL     1     -11.641  -1.326  21.770  0.00  0.00    +0.000 HD
ENDBRANCH  23  26
ENDBRANCH  20  23
ENDBRANCH   2  20
BRANCH   6  37
ATOM     37  O   UNL     1     -11.957  -2.967  13.775  0.00  0.00    +0.000 OA
ATOM     38  H   UNL     1     -12.451  -3.554  13.174  0.00  0.00    +0.000 HD
ENDBRANCH   6  37
BRANCH   7  39
ATOM     39  O   UNL     1      -9.553  -3.847  12.879  0.00  0.00    +0.000 OA
ATOM     40  H   UNL     1      -9.576  -4.607  12.262  0.00  0.00    +0.000 HD
ENDBRANCH   7  39
BRANCH  13  41
ATOM     41  O   UNL     1      -8.304  -8.695  20.293  0.00  0.00    +0.000 OA
ATOM     42  H   UNL     1      -9.004  -8.759  20.965  0.00  0.00    +0.000 HD
ENDBRANCH  13  41
BRANCH  14  43
ATOM     43  O   UNL     1      -8.516  -6.061  20.342  0.00  0.00    +0.000 OA
ATOM     44  H   UNL     1      -8.469  -5.121  20.069  0.00  0.00    +0.000 HD
ENDBRANCH  14  43
TORSDOF 7
ENDMDL
MODEL 9
REMARK VINA RESULT:    -7.864      3.180      7.078
REMARK INTER + INTRA:         -10.830
REMARK INTER:                 -10.035
REMARK INTRA:                  -0.795
REMARK UNBOUND:                -0.667
REMARK  Name = 
REMARK  7 active torsions:
REMARK  status: ('A' for Active; 'I' for Inactive)
REMARK    1  A    between atoms: C_2  and  C_3
REMARK    2  A    between atoms: C_3  and  C_4
REMARK    3  A    between atoms: C_4  and  C_5
REMARK    4  A    between atoms: C_14  and  O_15
REMARK    5  A    between atoms: C_16  and  O_17
REMARK    6  A    between atoms: C_23  and  O_24
REMARK    7  A    between atoms: C_25  and  O_26
REMARK                            x       y       z     vdW  Elec       q    Type
REMARK                         _______ _______ _______ _____ _____    ______ ____
ROOT
ATOM      1  O   UNL     1     -12.677  -3.967  17.461  0.00  0.00    +0.000 OA
ATOM      2  C   UNL     1     -11.535  -3.555  17.489  0.00  0.00    +0.000 C 
ATOM      3  N   UNL     1     -10.540  -4.373  18.064  0.00  0.00    +0.000 N 
ATOM      4  C   UNL     1     -10.416  -5.724  17.760  0.00  0.00    +0.000 A 
ATOM      5  C   UNL     1     -11.262  -6.664  17.152  0.00  0.00    +0.000 A 
ATOM      6  C   UNL     1     -10.618  -7.651  16.409  0.00  0.00    +0.000 A 
ATOM      7  C   UNL     1      -9.233  -7.669  16.273  0.00  0.00    +0.000 A 
ATOM      8  C   UNL     1      -8.425  -6.930  17.130  0.00  0.00    +0.000 A 
ATOM      9  C   UNL     1      -9.062  -6.002  17.968  0.00  0.00    +0.000 A 
ATOM     10  C   UNL     1      -8.760  -5.221  19.106  0.00  0.00    +0.000 A 
ATOM     11  C   UNL     1      -7.967  -5.352  20.258  0.00  0.00    +0.000 A 
ATOM     12  C   UNL     1      -7.783  -4.249  21.092  0.00  0.00    +0.000 A 
ATOM     13  C   UNL     1      -8.205  -3.004  20.650  0.00  0.00    +0.000 A 
ATOM     14  C   UNL     1      -9.029  -2.862  19.531  0.00  0.00    +0.000 A 
ATOM     15  C   UNL     1      -9.462  -4.023  18.884  0.00  0.00    +0.000 A 
ATOM     16  H   UNL     1     -12.339  -6.550  17.155  0.00  0.00    +0.000 HD
ATOM     17  H   UNL     1      -7.339  -6.981  17.061  0.00  0.00    +0.000 HD
ATOM     18  H   UNL     1      -7.588  -6.329  20.552  0.00  0.00    +0.000 HD
ATOM     19  H   UNL     1      -7.269  -4.367  22.042  0.00  0.00    +0.000 HD
ENDROOT
BRANCH   2  20
ATOM     20  C   UNL     1     -10.980  -2.406  16.696  0.00  0.00    +0.000 C 
ATOM     21  H   UNL     1     -10.179  -1.925  17.288  0.00  0.00    +0.000 HD
ATOM     22  H   UNL     1     -11.707  -1.670  16.471  0.00  0.00    +0.000 HD
BRANCH  20  23
ATOM     23  C   UNL     1     -10.389  -2.910  15.370  0.00  0.00    +0.000 C 
ATOM     24  H   UNL     1     -10.187  -3.985  15.427  0.00  0.00    +0.000 HD
ATOM     25  H   UNL     1      -9.423  -2.432  15.156  0.00  0.00    +0.000 HD
BRANCH  23  26
ATOM     26  C   UNL     1     -11.355  -2.642  14.242  0.00  0.00    +0.000 A 
ATOM     27  C   UNL     1     -11.543  -3.596  13.236  0.00  0.00    +0.000 A 
ATOM     28  C   UNL     1     -12.413  -3.338  12.176  0.00  0.00    +0.000 A 
ATOM     29  C   UNL     1     -13.085  -2.117  12.111  0.00  0.00    +0.000 A 
ATOM     30  C   UNL     1     -12.886  -1.152  13.090  0.00  0.00    +0.000 A 
ATOM     31  C   UNL     1     -12.012  -1.408  14.153  0.00  0.00    +0.000 A 
ATOM     32  H   UNL     1     -11.011  -4.543  13.271  0.00  0.00    +0.000 HD
ATOM     33  H   UNL     1     -12.559  -4.086  11.403  0.00  0.00    +0.000 HD
ATOM     34  H   UNL     1     -13.767  -1.921  11.288  0.00  0.00    +0.000 HD
ATOM     35  H   UNL     1     -13.395  -0.197  13.030  0.00  0.00    +0.000 HD
ATOM     36  H   UNL     1     -11.846  -0.639  14.904  0.00  0.00    +0.000 HD
ENDBRANCH  23  26
ENDBRANCH  20  23
ENDBRANCH   2  20
BRANCH   6  37
ATOM     37  O   UNL     1     -11.331  -8.605  15.737  0.00  0.00    +0.000 OA
ATOM     38  H   UNL     1     -12.266  -8.336  15.797  0.00  0.00    +0.000 HD
ENDBRANCH   6  37
BRANCH   7  39
ATOM     39  O   UNL     1      -8.664  -8.412  15.280  0.00  0.00    +0.000 OA
ATOM     40  H   UNL     1      -8.270  -9.177  15.747  0.00  0.00    +0.000 HD
ENDBRANCH   7  39
BRANCH  13  41
ATOM     41  O   UNL     1      -7.872  -1.850  21.309  0.00  0.00    +0.000 OA
ATOM     42  H   UNL     1      -8.016  -1.994  22.260  0.00  0.00    +0.000 HD
ENDBRANCH  13  41
BRANCH  14  43
ATOM     43  O   UNL     1      -9.341  -1.599  19.126  0.00  0.00    +0.000 OA
ATOM     44  H   UNL     1      -8.850  -1.484  18.285  0.00  0.00    +0.000 HD
ENDBRANCH  14  43
TORSDOF 7
ENDMDL
