REMARK  Name = 
REMARK  13 active torsions:
REMARK  status: ('A' for Active; 'I' for Inactive)
REMARK    1  A    between atoms: C_2  and  C_34
REMARK    2  A    between atoms: N_3  and  C_4
REMARK    3  A    between atoms: C_10  and  O_11
REMARK    4  A    between atoms: O_11  and  C_12
REMARK    5  A    between atoms: C_12  and  C_14
REMARK    6  A    between atoms: C_16  and  O_17
REMARK    7  A    between atoms: C_18  and  C_19
REMARK    8  A    between atoms: C_19  and  C_21
REMARK    9  A    between atoms: C_22  and  O_23
REMARK   10  A    between atoms: C_27  and  C_28
REMARK   11  A    between atoms: C_28  and  O_30
REMARK   12  A    between atoms: C_31  and  O_32
REMARK   13  A    between atoms: C_37  and  O_38
REMARK                            x       y       z     vdW  Elec       q    Type
REMARK                         _______ _______ _______ _____ _____    ______ ____
ROOT
ATOM      1  C   UNL     1       3.121  -2.287   1.189  0.00  0.00    +0.000 C 
ATOM      2  C   UNL     1       2.005  -3.169   1.800  0.00  0.00    +0.000 C 
ATOM      3  N   UNL     1       2.303  -3.587   3.176  0.00  0.00    +0.000 NA
ATOM      4  C   UNL     1       2.009  -2.648   4.248  0.00  0.00    +0.000 C 
ATOM      5  C   UNL     1       2.023  -1.145   3.976  0.00  0.00    +0.000 C 
ATOM      6  C   UNL     1       3.220  -0.649   3.170  0.00  0.00    +0.000 C 
ATOM      7  C   UNL     1       3.064  -0.819   1.656  0.00  0.00    +0.000 C 
ATOM      8  H   UNL     1       4.083  -2.692   1.540  0.00  0.00    +0.000 HD
ATOM      9  H   UNL     1       1.933  -4.094   1.215  0.00  0.00    +0.000 HD
ATOM     10  H   UNL     1       1.017  -2.699   1.738  0.00  0.00    +0.000 HD
ATOM     11  H   UNL     1       3.262  -3.924   3.245  0.00  0.00    +0.000 HD
ATOM     12  H   UNL     1       2.717  -2.851   5.062  0.00  0.00    +0.000 HD
ATOM     13  H   UNL     1       1.024  -2.902   4.660  0.00  0.00    +0.000 HD
ATOM     14  H   UNL     1       2.041  -0.637   4.950  0.00  0.00    +0.000 HD
ATOM     15  H   UNL     1       1.080  -0.844   3.507  0.00  0.00    +0.000 HD
ATOM     16  H   UNL     1       4.148  -1.119   3.517  0.00  0.00    +0.000 HD
ATOM     17  H   UNL     1       3.318   0.427   3.367  0.00  0.00    +0.000 HD
ATOM     18  H   UNL     1       3.904  -0.288   1.191  0.00  0.00    +0.000 HD
ENDROOT
BRANCH   1  21
ATOM     19  O   UNL     1       1.077  -2.543  -0.917  0.00  0.00    +0.000 OA
ATOM     20  C   UNL     1       2.262  -2.416  -1.199  0.00  0.00    +0.000 C 
ATOM     21  N   UNL     1       3.280  -2.367  -0.273  0.00  0.00    +0.000 N 
ATOM     22  H   UNL     1       4.159  -2.001  -0.615  0.00  0.00    +0.000 HD
BRANCH  20  23
ATOM     23  C   UNL     1       2.692  -2.245  -2.624  0.00  0.00    +0.000 A 
ATOM     24  C   UNL     1       1.783  -1.694  -3.538  0.00  0.00    +0.000 A 
ATOM     25  C   UNL     1       2.157  -1.460  -4.868  0.00  0.00    +0.000 A 
ATOM     26  C   UNL     1       3.447  -1.791  -5.279  0.00  0.00    +0.000 A 
ATOM     27  C   UNL     1       4.351  -2.366  -4.393  0.00  0.00    +0.000 A 
ATOM     28  C   UNL     1       3.973  -2.605  -3.070  0.00  0.00    +0.000 A 
ATOM     29  H   UNL     1       0.772  -1.432  -3.217  0.00  0.00    +0.000 HD
ATOM     30  H   UNL     1       1.443  -1.017  -5.556  0.00  0.00    +0.000 HD
ATOM     31  H   UNL     1       5.350  -2.627  -4.735  0.00  0.00    +0.000 HD
ATOM     32  H   UNL     1       4.689  -3.086  -2.407  0.00  0.00    +0.000 HD
BRANCH  26  33
ATOM     33  O   UNL     1       3.869  -1.562  -6.555  0.00  0.00    +0.000 OA
ATOM     34  H   UNL     1       3.143  -1.156  -7.057  0.00  0.00    +0.000 HD
ENDBRANCH  26  33
ENDBRANCH  20  23
ENDBRANCH   1  21
BRANCH   7  35
ATOM     35  O   UNL     1       1.807  -0.227   1.273  0.00  0.00    +0.000 OA
BRANCH  35  36
ATOM     36  C   UNL     1       1.840   0.736   0.332  0.00  0.00    +0.000 C 
ATOM     37  O   UNL     1       2.836   1.175  -0.218  0.00  0.00    +0.000 OA
BRANCH  36  38
ATOM     38  C   UNL     1       0.470   1.223   0.046  0.00  0.00    +0.000 A 
ATOM     39  C   UNL     1       0.347   2.350  -0.774  0.00  0.00    +0.000 A 
ATOM     40  C   UNL     1      -0.917   2.817  -1.126  0.00  0.00    +0.000 A 
ATOM     41  C   UNL     1      -2.079   2.172  -0.665  0.00  0.00    +0.000 A 
ATOM     42  C   UNL     1      -1.944   1.042   0.155  0.00  0.00    +0.000 A 
ATOM     43  C   UNL     1      -0.680   0.581   0.525  0.00  0.00    +0.000 A 
ATOM     44  H   UNL     1       1.243   2.855  -1.128  0.00  0.00    +0.000 HD
ATOM     45  H   UNL     1      -0.603  -0.300   1.159  0.00  0.00    +0.000 HD
BRANCH  40  46
ATOM     46  O   UNL     1      -1.003   3.925  -1.924  0.00  0.00    +0.000 OA
ATOM     47  H   UNL     1      -0.120   4.182  -2.236  0.00  0.00    +0.000 HD
ENDBRANCH  40  46
BRANCH  41  48
ATOM     48  C   UNL     1      -3.399   2.655  -1.124  0.00  0.00    +0.000 C 
ATOM     49  O   UNL     1      -3.535   2.916  -2.323  0.00  0.00    +0.000 OA
BRANCH  48  50
ATOM     50  C   UNL     1      -4.640   2.657  -0.296  0.00  0.00    +0.000 A 
ATOM     51  C   UNL     1      -5.839   2.358  -0.980  0.00  0.00    +0.000 A 
ATOM     52  C   UNL     1      -7.067   2.304  -0.324  0.00  0.00    +0.000 A 
ATOM     53  C   UNL     1      -7.130   2.547   1.040  0.00  0.00    +0.000 A 
ATOM     54  C   UNL     1      -5.962   2.842   1.744  0.00  0.00    +0.000 A 
ATOM     55  C   UNL     1      -4.714   2.889   1.091  0.00  0.00    +0.000 A 
ATOM     56  H   UNL     1      -7.970   2.084  -0.889  0.00  0.00    +0.000 HD
ATOM     57  H   UNL     1      -8.092   2.529   1.549  0.00  0.00    +0.000 HD
ATOM     58  H   UNL     1      -6.048   3.069   2.806  0.00  0.00    +0.000 HD
BRANCH  51  59
ATOM     59  O   UNL     1      -5.891   2.074  -2.323  0.00  0.00    +0.000 OA
ATOM     60  H   UNL     1      -5.044   2.377  -2.730  0.00  0.00    +0.000 HD
ENDBRANCH  51  59
BRANCH  55  61
ATOM     61  C   UNL     1      -3.533   3.249   1.909  0.00  0.00    +0.000 C 
ATOM     62  O   UNL     1      -2.660   4.008   1.531  0.00  0.00    +0.000 OA
BRANCH  61  63
ATOM     63  O   UNL     1      -3.517   2.665   3.132  0.00  0.00    +0.000 OA
ATOM     64  H   UNL     1      -4.176   1.959   3.278  0.00  0.00    +0.000 HD
ENDBRANCH  61  63
ENDBRANCH  55  61
ENDBRANCH  48  50
ENDBRANCH  41  48
BRANCH  42  65
ATOM     65  O   UNL     1      -3.003   0.317   0.635  0.00  0.00    +0.000 OA
ATOM     66  H   UNL     1      -3.695   0.268  -0.049  0.00  0.00    +0.000 HD
ENDBRANCH  42  65
ENDBRANCH  36  38
ENDBRANCH  35  36
ENDBRANCH   7  35
TORSDOF 13
