REMARK  Name = 
REMARK  2 active torsions:
REMARK  status: ('A' for Active; 'I' for Inactive)
REMARK    1  A    between atoms: C_26  and  C_27
REMARK    2  A    between atoms: C_27  and  O_28
REMARK                            x       y       z     vdW  Elec       q    Type
REMARK                         _______ _______ _______ _____ _____    ______ ____
ROOT
ATOM      1  O   UNL     1      -2.769   2.931  -3.109  0.00  0.00    +0.000 OA
ATOM      2  C   UNL     1      -1.884   2.877  -2.265  0.00  0.00    +0.000 C 
ATOM      3  N   UNL     1      -1.107   3.960  -1.920  0.00  0.00    +0.000 N 
ATOM      4  C   UNL     1      -0.191   3.785  -0.910  0.00  0.00    +0.000 C 
ATOM      5  O   UNL     1       0.428   4.701  -0.400  0.00  0.00    +0.000 OA
ATOM      6  C   UNL     1      -0.284   2.377  -0.668  0.00  0.00    +0.000 A 
ATOM      7  C   UNL     1      -1.384   1.827  -1.427  0.00  0.00    +0.000 A 
ATOM      8  C   UNL     1      -1.829   0.496  -1.130  0.00  0.00    +0.000 A 
ATOM      9  C   UNL     1      -2.905  -0.285  -1.586  0.00  0.00    +0.000 A 
ATOM     10  C   UNL     1      -3.849  -0.356  -2.631  0.00  0.00    +0.000 A 
ATOM     11  C   UNL     1      -4.817  -1.390  -2.625  0.00  0.00    +0.000 A 
ATOM     12  C   UNL     1      -4.920  -2.296  -1.569  0.00  0.00    +0.000 A 
ATOM     13  C   UNL     1      -3.994  -2.270  -0.542  0.00  0.00    +0.000 A 
ATOM     14  C   UNL     1      -2.977  -1.317  -0.621  0.00  0.00    +0.000 A 
ATOM     15  N   UNL     1      -1.882  -1.220   0.200  0.00  0.00    +0.000 N 
ATOM     16  C   UNL     1      -1.110  -0.185  -0.203  0.00  0.00    +0.000 A 
ATOM     17  C   UNL     1       0.110   0.216   0.266  0.00  0.00    +0.000 A 
ATOM     18  C   UNL     1       0.513   1.502   0.113  0.00  0.00    +0.000 A 
ATOM     19  C   UNL     1       1.679   1.793   0.812  0.00  0.00    +0.000 A 
ATOM     20  C   UNL     1       2.519   2.876   1.119  0.00  0.00    +0.000 A 
ATOM     21  C   UNL     1       3.665   2.658   1.904  0.00  0.00    +0.000 A 
ATOM     22  C   UNL     1       3.990   1.386   2.380  0.00  0.00    +0.000 A 
ATOM     23  C   UNL     1       3.181   0.289   2.084  0.00  0.00    +0.000 A 
ATOM     24  C   UNL     1       2.038   0.535   1.320  0.00  0.00    +0.000 A 
ATOM     25  N   UNL     1       1.112  -0.428   0.920  0.00  0.00    +0.000 N 
ATOM     26  C   UNL     1       1.333  -1.844   1.221  0.00  0.00    +0.000 C 
ATOM     27  C   UNL     1       2.829  -2.110   1.571  0.00  0.00    +0.000 C 
ATOM     28  C   UNL     1       3.432  -1.107   2.565  0.00  0.00    +0.000 C 
ATOM     29  H   UNL     1      -1.266   4.883  -2.298  0.00  0.00    +0.000 HD
ATOM     30  H   UNL     1      -3.806   0.323  -3.479  0.00  0.00    +0.000 HD
ATOM     31  H   UNL     1      -5.509  -1.492  -3.459  0.00  0.00    +0.000 HD
ATOM     32  H   UNL     1      -5.704  -3.048  -1.552  0.00  0.00    +0.000 HD
ATOM     33  H   UNL     1      -4.035  -2.982   0.277  0.00  0.00    +0.000 HD
ATOM     34  H   UNL     1      -1.688  -1.841   0.970  0.00  0.00    +0.000 HD
ATOM     35  H   UNL     1       2.299   3.881   0.777  0.00  0.00    +0.000 HD
ATOM     36  H   UNL     1       4.309   3.501   2.144  0.00  0.00    +0.000 HD
ATOM     37  H   UNL     1       4.888   1.255   2.980  0.00  0.00    +0.000 HD
ATOM     38  H   UNL     1       0.718  -2.041   2.109  0.00  0.00    +0.000 HD
ATOM     39  H   UNL     1       3.426  -2.075   0.649  0.00  0.00    +0.000 HD
ATOM     40  H   UNL     1       2.932  -3.126   1.973  0.00  0.00    +0.000 HD
ATOM     41  H   UNL     1       4.508  -1.295   2.650  0.00  0.00    +0.000 HD
ATOM     42  H   UNL     1       2.978  -1.236   3.553  0.00  0.00    +0.000 HD
ENDROOT
BRANCH  26  43
ATOM     43  C   UNL     1       0.936  -2.849   0.112  0.00  0.00    +0.000 C 
ATOM     44  H   UNL     1      -0.117  -2.828  -0.155  0.00  0.00    +0.000 HD
ATOM     45  H   UNL     1       1.119  -3.867   0.476  0.00  0.00    +0.000 HD
BRANCH  43  46
ATOM     46  O   UNL     1       1.690  -2.694  -1.084  0.00  0.00    +0.000 OA
ATOM     47  H   UNL     1       1.399  -1.867  -1.510  0.00  0.00    +0.000 HD
ENDBRANCH  43  46
ENDBRANCH  26  43
TORSDOF 2
