REMARK  Name = 
REMARK  6 active torsions:
REMARK  status: ('A' for Active; 'I' for Inactive)
REMARK    1  A    between atoms: C_1  and  N_2
REMARK    2  A    between atoms: N_2  and  C_3
REMARK    3  A    between atoms: C_7  and  C_8
REMARK    4  A    between atoms: C_9  and  O_10
REMARK    5  A    between atoms: O_10  and  C_11
REMARK    6  A    between atoms: C_35  and  O_36
REMARK                            x       y       z     vdW  Elec       q    Type
REMARK                         _______ _______ _______ _____ _____    ______ ____
ROOT
ATOM      1  C   UNL     1       2.343  -1.766   1.738  0.00  0.00    +0.000 C 
ATOM      2  C   UNL     1       1.043  -1.174   2.281  0.00  0.00    +0.000 C 
ATOM      3  C   UNL     1       0.921   0.316   2.061  0.00  0.00    +0.000 C 
ATOM      4  O   UNL     1       1.771   0.811   1.024  0.00  0.00    +0.000 OA
ATOM      5  C   UNL     1       1.861  -0.064  -0.138  0.00  0.00    +0.000 C 
ATOM      6  C   UNL     1       2.789  -1.223   0.313  0.00  0.00    +0.000 C 
ATOM      7  N   UNL     1       0.510  -0.454  -0.568  0.00  0.00    +0.000 N 
ATOM      8  C   UNL     1       0.133  -1.162  -1.720  0.00  0.00    +0.000 A 
ATOM      9  C   UNL     1       0.379  -2.505  -2.037  0.00  0.00    +0.000 A 
ATOM     10  C   UNL     1       0.069  -2.949  -3.316  0.00  0.00    +0.000 A 
ATOM     11  C   UNL     1      -0.482  -2.081  -4.254  0.00  0.00    +0.000 A 
ATOM     12  C   UNL     1      -0.900  -0.788  -3.894  0.00  0.00    +0.000 A 
ATOM     13  C   UNL     1      -0.695  -0.331  -2.575  0.00  0.00    +0.000 A 
ATOM     14  C   UNL     1      -1.190   0.721  -1.748  0.00  0.00    +0.000 A 
ATOM     15  C   UNL     1      -2.265   1.602  -1.937  0.00  0.00    +0.000 A 
ATOM     16  C   UNL     1      -2.756   2.208  -0.736  0.00  0.00    +0.000 A 
ATOM     17  C   UNL     1      -2.033   1.867   0.427  0.00  0.00    +0.000 A 
ATOM     18  C   UNL     1      -2.154   2.275   1.784  0.00  0.00    +0.000 A 
ATOM     19  C   UNL     1      -2.715   3.347   2.499  0.00  0.00    +0.000 A 
ATOM     20  C   UNL     1      -2.633   3.362   3.903  0.00  0.00    +0.000 A 
ATOM     21  C   UNL     1      -2.136   2.278   4.619  0.00  0.00    +0.000 A 
ATOM     22  C   UNL     1      -1.499   1.233   3.961  0.00  0.00    +0.000 A 
ATOM     23  C   UNL     1      -1.358   1.350   2.578  0.00  0.00    +0.000 A 
ATOM     24  N   UNL     1      -0.442   0.701   1.758  0.00  0.00    +0.000 N 
ATOM     25  C   UNL     1      -0.954   1.011   0.565  0.00  0.00    +0.000 A 
ATOM     26  C   UNL     1      -0.485   0.447  -0.594  0.00  0.00    +0.000 A 
ATOM     27  C   UNL     1      -3.926   2.952  -1.049  0.00  0.00    +0.000 C 
ATOM     28  O   UNL     1      -4.749   3.548  -0.370  0.00  0.00    +0.000 OA
ATOM     29  N   UNL     1      -3.983   2.891  -2.442  0.00  0.00    +0.000 N 
ATOM     30  C   UNL     1      -3.039   2.018  -3.096  0.00  0.00    +0.000 C 
ATOM     31  H   UNL     1       3.149  -1.453   2.421  0.00  0.00    +0.000 HD
ATOM     32  H   UNL     1       0.949  -1.354   3.359  0.00  0.00    +0.000 HD
ATOM     33  H   UNL     1       0.184  -1.699   1.832  0.00  0.00    +0.000 HD
ATOM     34  H   UNL     1       1.210   0.857   2.968  0.00  0.00    +0.000 HD
ATOM     35  H   UNL     1       3.785  -0.782   0.491  0.00  0.00    +0.000 HD
ATOM     36  H   UNL     1       0.809  -3.183  -1.301  0.00  0.00    +0.000 HD
ATOM     37  H   UNL     1       0.285  -3.983  -3.580  0.00  0.00    +0.000 HD
ATOM     38  H   UNL     1      -0.641  -2.436  -5.268  0.00  0.00    +0.000 HD
ATOM     39  H   UNL     1      -1.403  -0.166  -4.628  0.00  0.00    +0.000 HD
ATOM     40  H   UNL     1      -3.138   4.195   1.970  0.00  0.00    +0.000 HD
ATOM     41  H   UNL     1      -2.974   4.237   4.451  0.00  0.00    +0.000 HD
ATOM     42  H   UNL     1      -2.185   2.258   5.701  0.00  0.00    +0.000 HD
ATOM     43  H   UNL     1      -1.076   0.395   4.504  0.00  0.00    +0.000 HD
ATOM     44  H   UNL     1      -4.579   3.524  -2.949  0.00  0.00    +0.000 HD
ATOM     45  H   UNL     1      -3.551   1.203  -3.611  0.00  0.00    +0.000 HD
ENDROOT
BRANCH   5  46
ATOM     46  C   UNL     1       2.492   0.865  -1.204  0.00  0.00    +0.000 C 
ATOM     47  H   UNL     1       1.958   1.824  -1.247  0.00  0.00    +0.000 HD
ATOM     48  H   UNL     1       2.469   0.454  -2.216  0.00  0.00    +0.000 HD
ATOM     49  H   UNL     1       3.527   1.116  -0.947  0.00  0.00    +0.000 HD
ENDBRANCH   5  46
BRANCH   1  50
ATOM     50  N   UNL     1       2.264  -3.241   1.789  0.00  0.00    +0.000 NA
ATOM     51  H   UNL     1       3.091  -3.635   1.336  0.00  0.00    +0.000 HD
BRANCH  50  52
ATOM     52  C   UNL     1       2.080  -3.781   3.125  0.00  0.00    +0.000 C 
ATOM     53  H   UNL     1       2.838  -3.413   3.825  0.00  0.00    +0.000 HD
ATOM     54  H   UNL     1       1.083  -3.539   3.518  0.00  0.00    +0.000 HD
ATOM     55  H   UNL     1       2.141  -4.870   3.096  0.00  0.00    +0.000 HD
ENDBRANCH  50  52
ENDBRANCH   1  50
BRANCH  30  56
ATOM     56  O   UNL     1      -2.302   2.817  -3.987  0.00  0.00    +0.000 OA
ATOM     57  H   UNL     1      -1.729   3.377  -3.438  0.00  0.00    +0.000 HD
ENDBRANCH  30  56
BRANCH   6  58
ATOM     58  O   UNL     1       3.032  -2.312  -0.592  0.00  0.00    +0.000 OA
BRANCH  58  59
ATOM     59  C   UNL     1       3.591  -1.976  -1.853  0.00  0.00    +0.000 C 
ATOM     60  H   UNL     1       4.001  -2.887  -2.296  0.00  0.00    +0.000 HD
ATOM     61  H   UNL     1       2.823  -1.616  -2.541  0.00  0.00    +0.000 HD
ATOM     62  H   UNL     1       4.387  -1.234  -1.764  0.00  0.00    +0.000 HD
ENDBRANCH  58  59
ENDBRANCH   6  58
TORSDOF 6
