MODEL 1
REMARK VINA RESULT:    -8.605      0.000      0.000
REMARK INTER + INTRA:         -10.516
REMARK INTER:                 -10.366
REMARK INTRA:                  -0.150
REMARK UNBOUND:                -0.150
REMARK  Name = 
REMARK  4 active torsions:
REMARK  status: ('A' for Active; 'I' for Inactive)
REMARK    1  A    between atoms: C_1  and  N_2
REMARK    2  A    between atoms: N_2  and  C_3
REMARK    3  A    between atoms: C_3  and  C_4
REMARK    4  A    between atoms: C_7  and  C_8
REMARK                            x       y       z     vdW  Elec       q    Type
REMARK                         _______ _______ _______ _____ _____    ______ ____
ROOT
ATOM      1  C   UNL     1      -8.804 -11.504  16.735  0.00  0.00    +0.000 A 
ATOM      2  C   UNL     1      -9.250 -10.699  15.679  0.00  0.00    +0.000 A 
ATOM      3  C   UNL     1      -9.603  -9.361  15.898  0.00  0.00    +0.000 A 
ATOM      4  C   UNL     1      -9.523  -8.783  17.177  0.00  0.00    +0.000 A 
ATOM      5  C   UNL     1      -9.115  -9.616  18.232  0.00  0.00    +0.000 A 
ATOM      6  C   UNL     1      -8.754 -10.950  18.018  0.00  0.00    +0.000 A 
ATOM      7  H   UNL     1      -9.315 -11.100  14.671  0.00  0.00    +0.000 HD
ATOM      8  H   UNL     1      -9.925  -8.758  15.051  0.00  0.00    +0.000 HD
ATOM      9  H   UNL     1      -9.060  -9.232  19.249  0.00  0.00    +0.000 HD
ATOM     10  H   UNL     1      -8.424 -11.545  18.866  0.00  0.00    +0.000 HD
ENDROOT
BRANCH   4  11
ATOM     11  C   UNL     1      -9.838  -7.364  17.387  0.00  0.00    +0.000 A 
ATOM     12  N   UNL     1     -10.991  -6.857  16.851  0.00  0.00    +0.000 NA
ATOM     13  C   UNL     1     -11.267  -5.548  17.039  0.00  0.00    +0.000 A 
ATOM     14  N   UNL     1     -10.533  -4.627  17.694  0.00  0.00    +0.000 NA
ATOM     15  C   UNL     1      -9.412  -5.175  18.181  0.00  0.00    +0.000 A 
ATOM     16  N   UNL     1      -8.430  -4.531  18.881  0.00  0.00    +0.000 N 
ATOM     17  C   UNL     1      -7.464  -5.450  19.177  0.00  0.00    +0.000 A 
ATOM     18  N   UNL     1      -7.768  -6.644  18.716  0.00  0.00    +0.000 NA
ATOM     19  C   UNL     1      -8.990  -6.491  18.085  0.00  0.00    +0.000 A 
ATOM     20  H   UNL     1     -12.198  -5.193  16.606  0.00  0.00    +0.000 HD
ATOM     21  H   UNL     1      -8.431  -3.552  19.119  0.00  0.00    +0.000 HD
ATOM     22  H   UNL     1      -6.565  -5.198  19.725  0.00  0.00    +0.000 HD
ENDBRANCH   4  11
BRANCH   1  23
ATOM     23  C   UNL     1      -8.408 -12.945  16.513  0.00  0.00    +0.000 C 
ATOM     24  H   UNL     1      -7.393 -13.104  16.896  0.00  0.00    +0.000 HD
ATOM     25  H   UNL     1      -9.081 -13.580  17.101  0.00  0.00    +0.000 HD
BRANCH  23  26
ATOM     26  N   UNL     1      -8.443 -13.306  15.094  0.00  0.00    +0.000 NA
ATOM     27  H   UNL     1      -9.130 -12.724  14.619  0.00  0.00    +0.000 HD
BRANCH  26  28
ATOM     28  C   UNL     1      -8.799 -14.707  14.924  0.00  0.00    +0.000 C 
ATOM     29  H   UNL     1      -9.881 -14.823  15.028  0.00  0.00    +0.000 HD
ATOM     30  H   UNL     1      -8.318 -15.338  15.678  0.00  0.00    +0.000 HD
ATOM     31  H   UNL     1      -8.523 -15.066  13.927  0.00  0.00    +0.000 HD
ENDBRANCH  26  28
ENDBRANCH  23  26
ENDBRANCH   1  23
TORSDOF 4
ENDMDL
MODEL 2
REMARK VINA RESULT:    -8.242      0.659      2.172
REMARK INTER + INTRA:         -10.078
REMARK INTER:                 -10.062
REMARK INTRA:                  -0.017
REMARK UNBOUND:                -0.150
REMARK  Name = 
REMARK  4 active torsions:
REMARK  status: ('A' for Active; 'I' for Inactive)
REMARK    1  A    between atoms: C_1  and  N_2
REMARK    2  A    between atoms: N_2  and  C_3
REMARK    3  A    between atoms: C_3  and  C_4
REMARK    4  A    between atoms: C_7  and  C_8
REMARK                            x       y       z     vdW  Elec       q    Type
REMARK                         _______ _______ _______ _____ _____    ______ ____
ROOT
ATOM      1  C   UNL     1      -8.782 -11.546  17.264  0.00  0.00    +0.000 A 
ATOM      2  C   UNL     1      -9.167 -10.599  16.305  0.00  0.00    +0.000 A 
ATOM      3  C   UNL     1      -9.279  -9.244  16.642  0.00  0.00    +0.000 A 
ATOM      4  C   UNL     1      -9.013  -8.789  17.945  0.00  0.00    +0.000 A 
ATOM      5  C   UNL     1      -8.670  -9.758  18.904  0.00  0.00    +0.000 A 
ATOM      6  C   UNL     1      -8.549 -11.111  18.572  0.00  0.00    +0.000 A 
ATOM      7  H   UNL     1      -9.370 -10.903  15.282  0.00  0.00    +0.000 HD
ATOM      8  H   UNL     1      -9.559  -8.532  15.868  0.00  0.00    +0.000 HD
ATOM      9  H   UNL     1      -8.480  -9.469  19.937  0.00  0.00    +0.000 HD
ATOM     10  H   UNL     1      -8.260 -11.816  19.347  0.00  0.00    +0.000 HD
ENDROOT
BRANCH   4  11
ATOM     11  C   UNL     1      -9.075  -7.359  18.275  0.00  0.00    +0.000 A 
ATOM     12  N   UNL     1      -8.199  -6.855  19.198  0.00  0.00    +0.000 NA
ATOM     13  C   UNL     1      -8.272  -5.541  19.503  0.00  0.00    +0.000 A 
ATOM     14  N   UNL     1      -9.128  -4.619  19.022  0.00  0.00    +0.000 NA
ATOM     15  C   UNL     1      -9.970  -5.172  18.138  0.00  0.00    +0.000 A 
ATOM     16  N   UNL     1     -10.979  -4.537  17.468  0.00  0.00    +0.000 N 
ATOM     17  C   UNL     1     -11.598  -5.464  16.680  0.00  0.00    +0.000 A 
ATOM     18  N   UNL     1     -11.046  -6.651  16.797  0.00  0.00    +0.000 NA
ATOM     19  C   UNL     1     -10.021  -6.489  17.711  0.00  0.00    +0.000 A 
ATOM     20  H   UNL     1      -7.549  -5.183  20.231  0.00  0.00    +0.000 HD
ATOM     21  H   UNL     1     -11.214  -3.562  17.560  0.00  0.00    +0.000 HD
ATOM     22  H   UNL     1     -12.442  -5.222  16.046  0.00  0.00    +0.000 HD
ENDBRANCH   4  11
BRANCH   1  23
ATOM     23  C   UNL     1      -8.645 -13.009  16.913  0.00  0.00    +0.000 C 
ATOM     24  H   UNL     1      -7.809 -13.439  17.478  0.00  0.00    +0.000 HD
ATOM     25  H   UNL     1      -9.556 -13.526  17.236  0.00  0.00    +0.000 HD
BRANCH  23  26
ATOM     26  N   UNL     1      -8.403 -13.205  15.482  0.00  0.00    +0.000 NA
ATOM     27  H   UNL     1      -8.976 -12.551  14.954  0.00  0.00    +0.000 HD
BRANCH  26  28
ATOM     28  C   UNL     1      -8.730 -14.565  15.082  0.00  0.00    +0.000 C 
ATOM     29  H   UNL     1      -9.588 -14.549  14.405  0.00  0.00    +0.000 HD
ATOM     30  H   UNL     1      -8.993 -15.186  15.944  0.00  0.00    +0.000 HD
ATOM     31  H   UNL     1      -7.896 -15.031  14.546  0.00  0.00    +0.000 HD
ENDBRANCH  26  28
ENDBRANCH  23  26
ENDBRANCH   1  23
TORSDOF 4
ENDMDL
MODEL 3
REMARK VINA RESULT:    -8.196      1.770      6.944
REMARK INTER + INTRA:         -10.023
REMARK INTER:                 -10.168
REMARK INTRA:                   0.145
REMARK UNBOUND:                -0.150
REMARK  Name = 
REMARK  4 active torsions:
REMARK  status: ('A' for Active; 'I' for Inactive)
REMARK    1  A    between atoms: C_1  and  N_2
REMARK    2  A    between atoms: N_2  and  C_3
REMARK    3  A    between atoms: C_3  and  C_4
REMARK    4  A    between atoms: C_7  and  C_8
REMARK                            x       y       z     vdW  Elec       q    Type
REMARK                         _______ _______ _______ _____ _____    ______ ____
ROOT
ATOM      1  C   UNL     1      -9.101  -8.001  15.935  0.00  0.00    +0.000 A 
ATOM      2  C   UNL     1      -8.867  -8.718  14.755  0.00  0.00    +0.000 A 
ATOM      3  C   UNL     1      -8.755 -10.115  14.776  0.00  0.00    +0.000 A 
ATOM      4  C   UNL     1      -8.873 -10.840  15.974  0.00  0.00    +0.000 A 
ATOM      5  C   UNL     1      -9.065 -10.101  17.154  0.00  0.00    +0.000 A 
ATOM      6  C   UNL     1      -9.185  -8.708  17.139  0.00  0.00    +0.000 A 
ATOM      7  H   UNL     1      -8.782  -8.200  13.804  0.00  0.00    +0.000 HD
ATOM      8  H   UNL     1      -8.594 -10.642  13.838  0.00  0.00    +0.000 HD
ATOM      9  H   UNL     1      -9.136 -10.607  18.116  0.00  0.00    +0.000 HD
ATOM     10  H   UNL     1      -9.354  -8.188  18.077  0.00  0.00    +0.000 HD
ENDROOT
BRANCH   4  11
ATOM     11  C   UNL     1      -8.813 -12.308  15.979  0.00  0.00    +0.000 A 
ATOM     12  N   UNL     1      -8.813 -12.973  14.783  0.00  0.00    +0.000 NA
ATOM     13  C   UNL     1      -8.770 -14.323  14.797  0.00  0.00    +0.000 A 
ATOM     14  N   UNL     1      -8.741 -15.145  15.864  0.00  0.00    +0.000 NA
ATOM     15  C   UNL     1      -8.758 -14.440  17.004  0.00  0.00    +0.000 A 
ATOM     16  N   UNL     1      -8.756 -14.948  18.273  0.00  0.00    +0.000 N 
ATOM     17  C   UNL     1      -8.792 -13.894  19.139  0.00  0.00    +0.000 A 
ATOM     18  N   UNL     1      -8.810 -12.742  18.505  0.00  0.00    +0.000 NA
ATOM     19  C   UNL     1      -8.791 -13.065  17.160  0.00  0.00    +0.000 A 
ATOM     20  H   UNL     1      -8.761 -14.807  13.824  0.00  0.00    +0.000 HD
ATOM     21  H   UNL     1      -8.740 -15.928  18.508  0.00  0.00    +0.000 HD
ATOM     22  H   UNL     1      -8.804 -14.020  20.214  0.00  0.00    +0.000 HD
ENDBRANCH   4  11
BRANCH   1  23
ATOM     23  C   UNL     1      -9.236  -6.496  15.927  0.00  0.00    +0.000 C 
ATOM     24  H   UNL     1      -8.702  -6.090  15.059  0.00  0.00    +0.000 HD
ATOM     25  H   UNL     1     -10.296  -6.247  15.802  0.00  0.00    +0.000 HD
BRANCH  23  26
ATOM     26  N   UNL     1      -8.689  -5.894  17.145  0.00  0.00    +0.000 NA
ATOM     27  H   UNL     1      -8.315  -6.629  17.741  0.00  0.00    +0.000 HD
BRANCH  26  28
ATOM     28  C   UNL     1      -9.717  -5.162  17.869  0.00  0.00    +0.000 C 
ATOM     29  H   UNL     1     -10.355  -5.868  18.408  0.00  0.00    +0.000 HD
ATOM     30  H   UNL     1     -10.352  -4.583  17.191  0.00  0.00    +0.000 HD
ATOM     31  H   UNL     1      -9.274  -4.487  18.609  0.00  0.00    +0.000 HD
ENDBRANCH  26  28
ENDBRANCH  23  26
ENDBRANCH   1  23
TORSDOF 4
ENDMDL
MODEL 4
REMARK VINA RESULT:    -8.137      2.059      7.104
REMARK INTER + INTRA:          -9.952
REMARK INTER:                 -10.069
REMARK INTRA:                   0.117
REMARK UNBOUND:                -0.150
REMARK  Name = 
REMARK  4 active torsions:
REMARK  status: ('A' for Active; 'I' for Inactive)
REMARK    1  A    between atoms: C_1  and  N_2
REMARK    2  A    between atoms: N_2  and  C_3
REMARK    3  A    between atoms: C_3  and  C_4
REMARK    4  A    between atoms: C_7  and  C_8
REMARK                            x       y       z     vdW  Elec       q    Type
REMARK                         _______ _______ _______ _____ _____    ______ ____
ROOT
ATOM      1  C   UNL     1      -9.046  -7.905  16.391  0.00  0.00    +0.000 A 
ATOM      2  C   UNL     1      -8.908  -8.332  17.718  0.00  0.00    +0.000 A 
ATOM      3  C   UNL     1      -8.894  -9.697  18.033  0.00  0.00    +0.000 A 
ATOM      4  C   UNL     1      -9.017 -10.679  17.036  0.00  0.00    +0.000 A 
ATOM      5  C   UNL     1      -9.198 -10.233  15.716  0.00  0.00    +0.000 A 
ATOM      6  C   UNL     1      -9.206  -8.872  15.394  0.00  0.00    +0.000 A 
ATOM      7  H   UNL     1      -8.796  -7.608  18.520  0.00  0.00    +0.000 HD
ATOM      8  H   UNL     1      -8.763  -9.994  19.072  0.00  0.00    +0.000 HD
ATOM      9  H   UNL     1      -9.327 -10.948  14.904  0.00  0.00    +0.000 HD
ATOM     10  H   UNL     1      -9.327  -8.581  14.354  0.00  0.00    +0.000 HD
ENDROOT
BRANCH   4  11
ATOM     11  C   UNL     1      -8.941 -12.109  17.368  0.00  0.00    +0.000 A 
ATOM     12  N   UNL     1      -8.893 -12.479  18.685  0.00  0.00    +0.000 NA
ATOM     13  C   UNL     1      -8.811 -13.794  18.980  0.00  0.00    +0.000 A 
ATOM     14  N   UNL     1      -8.755 -14.838  18.130  0.00  0.00    +0.000 NA
ATOM     15  C   UNL     1      -8.790 -14.415  16.859  0.00  0.00    +0.000 A 
ATOM     16  N   UNL     1      -8.733 -15.198  15.739  0.00  0.00    +0.000 N 
ATOM     17  C   UNL     1      -8.785 -14.371  14.654  0.00  0.00    +0.000 A 
ATOM     18  N   UNL     1      -8.879 -13.107  15.008  0.00  0.00    +0.000 NA
ATOM     19  C   UNL     1      -8.882 -13.115  16.391  0.00  0.00    +0.000 A 
ATOM     20  H   UNL     1      -8.787 -14.042  20.038  0.00  0.00    +0.000 HD
ATOM     21  H   UNL     1      -8.657 -16.202  15.735  0.00  0.00    +0.000 HD
ATOM     22  H   UNL     1      -8.750 -14.738  13.637  0.00  0.00    +0.000 HD
ENDBRANCH   4  11
BRANCH   1  23
ATOM     23  C   UNL     1      -9.052  -6.437  16.034  0.00  0.00    +0.000 C 
ATOM     24  H   UNL     1      -8.940  -5.842  16.949  0.00  0.00    +0.000 HD
ATOM     25  H   UNL     1      -8.177  -6.233  15.406  0.00  0.00    +0.000 HD
BRANCH  23  26
ATOM     26  N   UNL     1     -10.292  -6.045  15.362  0.00  0.00    +0.000 NA
ATOM     27  H   UNL     1     -10.071  -5.400  14.606  0.00  0.00    +0.000 HD
BRANCH  26  28
ATOM     28  C   UNL     1     -11.207  -5.403  16.292  0.00  0.00    +0.000 C 
ATOM     29  H   UNL     1     -11.277  -4.337  16.057  0.00  0.00    +0.000 HD
ATOM     30  H   UNL     1     -10.861  -5.498  17.327  0.00  0.00    +0.000 HD
ATOM     31  H   UNL     1     -12.214  -5.825  16.211  0.00  0.00    +0.000 HD
ENDBRANCH  26  28
ENDBRANCH  23  26
ENDBRANCH   1  23
TORSDOF 4
ENDMDL
MODEL 5
REMARK VINA RESULT:    -8.022      1.479      1.955
REMARK INTER + INTRA:          -9.813
REMARK INTER:                  -9.696
REMARK INTRA:                  -0.117
REMARK UNBOUND:                -0.150
REMARK  Name = 
REMARK  4 active torsions:
REMARK  status: ('A' for Active; 'I' for Inactive)
REMARK    1  A    between atoms: C_1  and  N_2
REMARK    2  A    between atoms: N_2  and  C_3
REMARK    3  A    between atoms: C_3  and  C_4
REMARK    4  A    between atoms: C_7  and  C_8
REMARK                            x       y       z     vdW  Elec       q    Type
REMARK                         _______ _______ _______ _____ _____    ______ ____
ROOT
ATOM      1  C   UNL     1      -8.917 -11.431  16.899  0.00  0.00    +0.000 A 
ATOM      2  C   UNL     1      -9.637 -10.776  15.891  0.00  0.00    +0.000 A 
ATOM      3  C   UNL     1     -10.025  -9.438  16.042  0.00  0.00    +0.000 A 
ATOM      4  C   UNL     1      -9.709  -8.711  17.202  0.00  0.00    +0.000 A 
ATOM      5  C   UNL     1      -9.025  -9.396  18.220  0.00  0.00    +0.000 A 
ATOM      6  C   UNL     1      -8.628 -10.728  18.073  0.00  0.00    +0.000 A 
ATOM      7  H   UNL     1      -9.891 -11.295  14.971  0.00  0.00    +0.000 HD
ATOM      8  H   UNL     1     -10.564  -8.954  15.229  0.00  0.00    +0.000 HD
ATOM      9  H   UNL     1      -8.777  -8.892  19.154  0.00  0.00    +0.000 HD
ATOM     10  H   UNL     1      -8.082 -11.204  18.883  0.00  0.00    +0.000 HD
ENDROOT
BRANCH   4  11
ATOM     11  C   UNL     1     -10.068  -7.292  17.327  0.00  0.00    +0.000 A 
ATOM     12  N   UNL     1     -10.679  -6.863  18.474  0.00  0.00    +0.000 NA
ATOM     13  C   UNL     1     -11.016  -5.559  18.575  0.00  0.00    +0.000 A 
ATOM     14  N   UNL     1     -10.844  -4.581  17.665  0.00  0.00    +0.000 NA
ATOM     15  C   UNL     1     -10.258  -5.061  16.559  0.00  0.00    +0.000 A 
ATOM     16  N   UNL     1      -9.951  -4.355  15.430  0.00  0.00    +0.000 N 
ATOM     17  C   UNL     1      -9.379  -5.222  14.544  0.00  0.00    +0.000 A 
ATOM     18  N   UNL     1      -9.295  -6.438  15.036  0.00  0.00    +0.000 NA
ATOM     19  C   UNL     1      -9.845  -6.358  16.303  0.00  0.00    +0.000 A 
ATOM     20  H   UNL     1     -11.487  -5.262  19.508  0.00  0.00    +0.000 HD
ATOM     21  H   UNL     1     -10.129  -3.373  15.291  0.00  0.00    +0.000 HD
ATOM     22  H   UNL     1      -9.046  -4.918  13.560  0.00  0.00    +0.000 HD
ENDBRANCH   4  11
BRANCH   1  23
ATOM     23  C   UNL     1      -8.481 -12.869  16.746  0.00  0.00    +0.000 C 
ATOM     24  H   UNL     1      -7.562 -13.031  17.323  0.00  0.00    +0.000 HD
ATOM     25  H   UNL     1      -9.256 -13.510  17.183  0.00  0.00    +0.000 HD
BRANCH  23  26
ATOM     26  N   UNL     1      -8.231 -13.216  15.346  0.00  0.00    +0.000 NA
ATOM     27  H   UNL     1      -8.652 -12.510  14.747  0.00  0.00    +0.000 HD
BRANCH  26  28
ATOM     28  C   UNL     1      -8.795 -14.519  15.025  0.00  0.00    +0.000 C 
ATOM     29  H   UNL     1      -8.296 -14.924  14.140  0.00  0.00    +0.000 HD
ATOM     30  H   UNL     1      -9.866 -14.450  14.807  0.00  0.00    +0.000 HD
ATOM     31  H   UNL     1      -8.641 -15.229  15.844  0.00  0.00    +0.000 HD
ENDBRANCH  26  28
ENDBRANCH  23  26
ENDBRANCH   1  23
TORSDOF 4
ENDMDL
MODEL 6
REMARK VINA RESULT:    -7.970      1.627      6.865
REMARK INTER + INTRA:          -9.750
REMARK INTER:                  -9.860
REMARK INTRA:                   0.109
REMARK UNBOUND:                -0.150
REMARK  Name = 
REMARK  4 active torsions:
REMARK  status: ('A' for Active; 'I' for Inactive)
REMARK    1  A    between atoms: C_1  and  N_2
REMARK    2  A    between atoms: N_2  and  C_3
REMARK    3  A    between atoms: C_3  and  C_4
REMARK    4  A    between atoms: C_7  and  C_8
REMARK                            x       y       z     vdW  Elec       q    Type
REMARK                         _______ _______ _______ _____ _____    ______ ____
ROOT
ATOM      1  C   UNL     1      -9.111  -7.546  18.492  0.00  0.00    +0.000 A 
ATOM      2  C   UNL     1      -8.865  -8.678  19.280  0.00  0.00    +0.000 A 
ATOM      3  C   UNL     1      -8.779  -9.950  18.699  0.00  0.00    +0.000 A 
ATOM      4  C   UNL     1      -8.935 -10.135  17.314  0.00  0.00    +0.000 A 
ATOM      5  C   UNL     1      -9.224  -8.995  16.545  0.00  0.00    +0.000 A 
ATOM      6  C   UNL     1      -9.304  -7.722  17.118  0.00  0.00    +0.000 A 
ATOM      7  H   UNL     1      -8.724  -8.582  20.353  0.00  0.00    +0.000 HD
ATOM      8  H   UNL     1      -8.565 -10.805  19.338  0.00  0.00    +0.000 HD
ATOM      9  H   UNL     1      -9.383  -9.080  15.471  0.00  0.00    +0.000 HD
ATOM     10  H   UNL     1      -9.509  -6.871  16.474  0.00  0.00    +0.000 HD
ENDROOT
BRANCH   4  11
ATOM     11  C   UNL     1      -8.784 -11.463  16.706  0.00  0.00    +0.000 A 
ATOM     12  N   UNL     1      -8.698 -11.561  15.344  0.00  0.00    +0.000 NA
ATOM     13  C   UNL     1      -8.571 -12.787  14.793  0.00  0.00    +0.000 A 
ATOM     14  N   UNL     1      -8.529 -13.981  15.416  0.00  0.00    +0.000 NA
ATOM     15  C   UNL     1      -8.633 -13.825  16.744  0.00  0.00    +0.000 A 
ATOM     16  N   UNL     1      -8.645 -14.820  17.681  0.00  0.00    +0.000 N 
ATOM     17  C   UNL     1      -8.779 -14.233  18.905  0.00  0.00    +0.000 A 
ATOM     18  N   UNL     1      -8.846 -12.923  18.813  0.00  0.00    +0.000 NA
ATOM     19  C   UNL     1      -8.758 -12.647  17.460  0.00  0.00    +0.000 A 
ATOM     20  H   UNL     1      -8.495 -12.815  13.710  0.00  0.00    +0.000 HD
ATOM     21  H   UNL     1      -8.576 -15.806  17.484  0.00  0.00    +0.000 HD
ATOM     22  H   UNL     1      -8.823 -14.801  19.825  0.00  0.00    +0.000 HD
ENDBRANCH   4  11
BRANCH   1  23
ATOM     23  C   UNL     1      -9.196  -6.167  19.101  0.00  0.00    +0.000 C 
ATOM     24  H   UNL     1     -10.188  -5.743  18.901  0.00  0.00    +0.000 HD
ATOM     25  H   UNL     1      -9.099  -6.266  20.189  0.00  0.00    +0.000 HD
BRANCH  23  26
ATOM     26  N   UNL     1      -8.176  -5.268  18.558  0.00  0.00    +0.000 NA
ATOM     27  H   UNL     1      -8.160  -5.356  17.544  0.00  0.00    +0.000 HD
BRANCH  26  28
ATOM     28  C   UNL     1      -6.861  -5.590  19.091  0.00  0.00    +0.000 C 
ATOM     29  H   UNL     1      -6.974  -6.124  20.039  0.00  0.00    +0.000 HD
ATOM     30  H   UNL     1      -6.272  -4.688  19.281  0.00  0.00    +0.000 HD
ATOM     31  H   UNL     1      -6.308  -6.243  18.409  0.00  0.00    +0.000 HD
ENDBRANCH  26  28
ENDBRANCH  23  26
ENDBRANCH   1  23
TORSDOF 4
ENDMDL
MODEL 7
REMARK VINA RESULT:    -7.828      2.031      7.087
REMARK INTER + INTRA:          -9.579
REMARK INTER:                  -9.636
REMARK INTRA:                   0.057
REMARK UNBOUND:                -0.150
REMARK  Name = 
REMARK  4 active torsions:
REMARK  status: ('A' for Active; 'I' for Inactive)
REMARK    1  A    between atoms: C_1  and  N_2
REMARK    2  A    between atoms: N_2  and  C_3
REMARK    3  A    between atoms: C_3  and  C_4
REMARK    4  A    between atoms: C_7  and  C_8
REMARK                            x       y       z     vdW  Elec       q    Type
REMARK                         _______ _______ _______ _____ _____    ______ ____
ROOT
ATOM      1  C   UNL     1      -8.806  -7.410  18.915  0.00  0.00    +0.000 A 
ATOM      2  C   UNL     1      -8.463  -8.350  19.896  0.00  0.00    +0.000 A 
ATOM      3  C   UNL     1      -8.480  -9.722  19.610  0.00  0.00    +0.000 A 
ATOM      4  C   UNL     1      -8.838 -10.200  18.338  0.00  0.00    +0.000 A 
ATOM      5  C   UNL     1      -9.220  -9.246  17.379  0.00  0.00    +0.000 A 
ATOM      6  C   UNL     1      -9.198  -7.875  17.656  0.00  0.00    +0.000 A 
ATOM      7  H   UNL     1      -8.167  -8.025  20.889  0.00  0.00    +0.000 HD
ATOM      8  H   UNL     1      -8.187 -10.423  20.389  0.00  0.00    +0.000 HD
ATOM      9  H   UNL     1      -9.534  -9.558  16.384  0.00  0.00    +0.000 HD
ATOM     10  H   UNL     1      -9.483  -7.179  16.872  0.00  0.00    +0.000 HD
ENDROOT
BRANCH   4  11
ATOM     11  C   UNL     1      -8.795 -11.635  18.029  0.00  0.00    +0.000 A 
ATOM     12  N   UNL     1      -8.858 -12.535  19.059  0.00  0.00    +0.000 NA
ATOM     13  C   UNL     1      -8.806 -13.852  18.767  0.00  0.00    +0.000 A 
ATOM     14  N   UNL     1      -8.681 -14.434  17.558  0.00  0.00    +0.000 NA
ATOM     15  C   UNL     1      -8.607 -13.507  16.593  0.00  0.00    +0.000 A 
ATOM     16  N   UNL     1      -8.457 -13.738  15.253  0.00  0.00    +0.000 N 
ATOM     17  C   UNL     1      -8.415 -12.525  14.628  0.00  0.00    +0.000 A 
ATOM     18  N   UNL     1      -8.535 -11.532  15.481  0.00  0.00    +0.000 NA
ATOM     19  C   UNL     1      -8.655 -12.129  16.723  0.00  0.00    +0.000 A 
ATOM     20  H   UNL     1      -8.872 -14.529  19.614  0.00  0.00    +0.000 HD
ATOM     21  H   UNL     1      -8.384 -14.647  14.824  0.00  0.00    +0.000 HD
ATOM     22  H   UNL     1      -8.295 -12.424  13.557  0.00  0.00    +0.000 HD
ENDBRANCH   4  11
BRANCH   1  23
ATOM     23  C   UNL     1      -8.782  -5.928  19.204  0.00  0.00    +0.000 C 
ATOM     24  H   UNL     1      -8.177  -5.420  18.443  0.00  0.00    +0.000 HD
ATOM     25  H   UNL     1      -9.805  -5.544  19.114  0.00  0.00    +0.000 HD
BRANCH  23  26
ATOM     26  N   UNL     1      -8.222  -5.640  20.526  0.00  0.00    +0.000 NA
ATOM     27  H   UNL     1      -8.959  -5.284  21.130  0.00  0.00    +0.000 HD
BRANCH  26  28
ATOM     28  C   UNL     1      -7.155  -4.654  20.435  0.00  0.00    +0.000 C 
ATOM     29  H   UNL     1      -6.878  -4.514  19.386  0.00  0.00    +0.000 HD
ATOM     30  H   UNL     1      -6.261  -4.978  20.978  0.00  0.00    +0.000 HD
ATOM     31  H   UNL     1      -7.479  -3.684  20.824  0.00  0.00    +0.000 HD
ENDBRANCH  26  28
ENDBRANCH  23  26
ENDBRANCH   1  23
TORSDOF 4
ENDMDL
MODEL 8
REMARK VINA RESULT:    -7.555      2.486      6.542
REMARK INTER + INTRA:          -9.251
REMARK INTER:                  -9.024
REMARK INTRA:                  -0.226
REMARK UNBOUND:                -0.150
REMARK  Name = 
REMARK  4 active torsions:
REMARK  status: ('A' for Active; 'I' for Inactive)
REMARK    1  A    between atoms: C_1  and  N_2
REMARK    2  A    between atoms: N_2  and  C_3
REMARK    3  A    between atoms: C_3  and  C_4
REMARK    4  A    between atoms: C_7  and  C_8
REMARK                            x       y       z     vdW  Elec       q    Type
REMARK                         _______ _______ _______ _____ _____    ______ ____
ROOT
ATOM      1  C   UNL     1     -10.374  -5.972  15.939  0.00  0.00    +0.000 A 
ATOM      2  C   UNL     1     -11.130  -6.655  16.901  0.00  0.00    +0.000 A 
ATOM      3  C   UNL     1     -10.720  -7.907  17.378  0.00  0.00    +0.000 A 
ATOM      4  C   UNL     1      -9.545  -8.519  16.910  0.00  0.00    +0.000 A 
ATOM      5  C   UNL     1      -8.822  -7.841  15.914  0.00  0.00    +0.000 A 
ATOM      6  C   UNL     1      -9.222  -6.587  15.439  0.00  0.00    +0.000 A 
ATOM      7  H   UNL     1     -12.038  -6.213  17.301  0.00  0.00    +0.000 HD
ATOM      8  H   UNL     1     -11.320  -8.399  18.142  0.00  0.00    +0.000 HD
ATOM      9  H   UNL     1      -7.918  -8.279  15.493  0.00  0.00    +0.000 HD
ATOM     10  H   UNL     1      -8.615  -6.096  14.684  0.00  0.00    +0.000 HD
ENDROOT
BRANCH   4  11
ATOM     11  C   UNL     1      -9.091  -9.804  17.458  0.00  0.00    +0.000 A 
ATOM     12  N   UNL     1      -8.767  -9.879  18.786  0.00  0.00    +0.000 NA
ATOM     13  C   UNL     1      -8.340 -11.061  19.279  0.00  0.00    +0.000 A 
ATOM     14  N   UNL     1      -8.166 -12.225  18.621  0.00  0.00    +0.000 NA
ATOM     15  C   UNL     1      -8.483 -12.087  17.326  0.00  0.00    +0.000 A 
ATOM     16  N   UNL     1      -8.407 -13.056  16.364  0.00  0.00    +0.000 N 
ATOM     17  C   UNL     1      -8.807 -12.497  15.184  0.00  0.00    +0.000 A 
ATOM     18  N   UNL     1      -9.140 -11.233  15.331  0.00  0.00    +0.000 NA
ATOM     19  C   UNL     1      -8.941 -10.957  16.672  0.00  0.00    +0.000 A 
ATOM     20  H   UNL     1      -8.106 -11.076  20.339  0.00  0.00    +0.000 HD
ATOM     21  H   UNL     1      -8.101 -14.004  16.515  0.00  0.00    +0.000 HD
ATOM     22  H   UNL     1      -8.836 -13.051  14.255  0.00  0.00    +0.000 HD
ENDBRANCH   4  11
BRANCH   1  23
ATOM     23  C   UNL     1     -10.797  -4.617  15.423  0.00  0.00    +0.000 C 
ATOM     24  H   UNL     1     -11.303  -4.066  16.226  0.00  0.00    +0.000 HD
ATOM     25  H   UNL     1      -9.894  -4.052  15.162  0.00  0.00    +0.000 HD
BRANCH  23  26
ATOM     26  N   UNL     1     -11.703  -4.728  14.279  0.00  0.00    +0.000 NA
ATOM     27  H   UNL     1     -11.633  -5.665  13.888  0.00  0.00    +0.000 HD
BRANCH  26  28
ATOM     28  C   UNL     1     -11.366  -3.752  13.253  0.00  0.00    +0.000 C 
ATOM     29  H   UNL     1     -11.586  -4.170  12.267  0.00  0.00    +0.000 HD
ATOM     30  H   UNL     1     -10.303  -3.491  13.280  0.00  0.00    +0.000 HD
ATOM     31  H   UNL     1     -11.962  -2.840  13.365  0.00  0.00    +0.000 HD
ENDBRANCH  26  28
ENDBRANCH  23  26
ENDBRANCH   1  23
TORSDOF 4
ENDMDL
MODEL 9
REMARK VINA RESULT:    -7.337      1.402      2.973
REMARK INTER + INTRA:          -8.988
REMARK INTER:                  -8.709
REMARK INTRA:                  -0.279
REMARK UNBOUND:                -0.150
REMARK  Name = 
REMARK  4 active torsions:
REMARK  status: ('A' for Active; 'I' for Inactive)
REMARK    1  A    between atoms: C_1  and  N_2
REMARK    2  A    between atoms: N_2  and  C_3
REMARK    3  A    between atoms: C_3  and  C_4
REMARK    4  A    between atoms: C_7  and  C_8
REMARK                            x       y       z     vdW  Elec       q    Type
REMARK                         _______ _______ _______ _____ _____    ______ ____
ROOT
ATOM      1  C   UNL     1      -9.217  -9.667  16.223  0.00  0.00    +0.000 A 
ATOM      2  C   UNL     1      -9.194  -9.774  17.620  0.00  0.00    +0.000 A 
ATOM      3  C   UNL     1      -8.890  -8.663  18.418  0.00  0.00    +0.000 A 
ATOM      4  C   UNL     1      -8.599  -7.411  17.850  0.00  0.00    +0.000 A 
ATOM      5  C   UNL     1      -8.584  -7.333  16.447  0.00  0.00    +0.000 A 
ATOM      6  C   UNL     1      -8.894  -8.436  15.645  0.00  0.00    +0.000 A 
ATOM      7  H   UNL     1      -9.426 -10.719  18.104  0.00  0.00    +0.000 HD
ATOM      8  H   UNL     1      -8.903  -8.777  19.501  0.00  0.00    +0.000 HD
ATOM      9  H   UNL     1      -8.338  -6.396  15.949  0.00  0.00    +0.000 HD
ATOM     10  H   UNL     1      -8.889  -8.315  14.565  0.00  0.00    +0.000 HD
ENDROOT
BRANCH   4  11
ATOM     11  C   UNL     1      -8.340  -6.238  18.695  0.00  0.00    +0.000 A 
ATOM     12  N   UNL     1      -7.220  -6.225  19.482  0.00  0.00    +0.000 NA
ATOM     13  C   UNL     1      -6.996  -5.148  20.265  0.00  0.00    +0.000 A 
ATOM     14  N   UNL     1      -7.755  -4.043  20.400  0.00  0.00    +0.000 NA
ATOM     15  C   UNL     1      -8.843  -4.119  19.620  0.00  0.00    +0.000 A 
ATOM     16  N   UNL     1      -9.838  -3.186  19.519  0.00  0.00    +0.000 N 
ATOM     17  C   UNL     1     -10.757  -3.659  18.628  0.00  0.00    +0.000 A 
ATOM     18  N   UNL     1     -10.412  -4.832  18.147  0.00  0.00    +0.000 NA
ATOM     19  C   UNL     1      -9.211  -5.139  18.760  0.00  0.00    +0.000 A 
ATOM     20  H   UNL     1      -6.090  -5.176  20.863  0.00  0.00    +0.000 HD
ATOM     21  H   UNL     1      -9.873  -2.316  20.026  0.00  0.00    +0.000 HD
ATOM     22  H   UNL     1     -11.655  -3.112  18.370  0.00  0.00    +0.000 HD
ENDBRANCH   4  11
BRANCH   1  23
ATOM     23  C   UNL     1      -9.554 -10.853  15.350  0.00  0.00    +0.000 C 
ATOM     24  H   UNL     1     -10.290 -11.483  15.864  0.00  0.00    +0.000 HD
ATOM     25  H   UNL     1     -10.028 -10.480  14.434  0.00  0.00    +0.000 HD
BRANCH  23  26
ATOM     26  N   UNL     1      -8.370 -11.658  15.044  0.00  0.00    +0.000 NA
ATOM     27  H   UNL     1      -8.307 -11.789  14.037  0.00  0.00    +0.000 HD
BRANCH  26  28
ATOM     28  C   UNL     1      -8.443 -12.957  15.696  0.00  0.00    +0.000 C 
ATOM     29  H   UNL     1      -8.190 -13.740  14.976  0.00  0.00    +0.000 HD
ATOM     30  H   UNL     1      -9.450 -13.161  16.075  0.00  0.00    +0.000 HD
ATOM     31  H   UNL     1      -7.728 -13.025  16.523  0.00  0.00    +0.000 HD
ENDBRANCH  26  28
ENDBRANCH  23  26
ENDBRANCH   1  23
TORSDOF 4
ENDMDL
