
 OpenBabel01112422503D

 52 56  0  0  1  0  0  0  0  0999 V2000
    2.7532    1.6402   -0.8383 N   0  0  0  0  0  0  0  0  0  0  0  0
    2.5194    0.3911   -0.0809 C   0  0  2  0  0  0  0  0  0  0  0  0
    1.0148    0.0891   -0.0284 C   0  0  0  0  0  0  0  0  0  0  0  0
    0.3274    1.1185    0.6946 O   0  0  0  0  0  0  0  0  0  0  0  0
   -1.0372    1.0192    0.7028 C   0  0  0  0  0  0  0  0  0  0  0  0
   -1.7818   -0.0493    0.2260 C   0  0  0  0  0  0  0  0  0  0  0  0
   -3.1264   -0.1074    0.2708 N   0  0  0  0  0  0  0  0  0  0  0  0
   -3.7544    0.9689    0.8052 C   0  0  0  0  0  0  0  0  0  0  0  0
   -3.1337    2.1144    1.3009 C   0  0  0  0  0  0  0  0  0  0  0  0
   -3.9005    3.2605    1.8400 C   0  0  0  0  0  0  0  0  0  0  0  0
   -5.1343    3.6610    1.2802 C   0  0  0  0  0  0  0  0  0  0  0  0
   -5.8533    4.7430    1.7784 C   0  0  0  0  0  0  0  0  0  0  0  0
   -5.3701    5.4816    2.8609 C   0  0  0  0  0  0  0  0  0  0  0  0
   -6.0476    6.5807    3.3916 C   0  0  0  0  0  0  0  0  0  0  0  0
   -5.6009    7.3292    4.4191 N   0  0  0  0  0  0  0  0  0  0  0  0
   -4.4174    6.9647    4.9536 C   0  0  0  0  0  0  0  0  0  0  0  0
   -3.9406    7.6970    5.9703 F   0  0  0  0  0  0  0  0  0  0  0  0
   -3.6661    5.8806    4.5077 C   0  0  0  0  0  0  0  0  0  0  0  0
   -4.1436    5.1219    3.4454 C   0  0  0  0  0  0  0  0  0  0  0  0
   -3.4382    4.0177    2.9409 C   0  0  0  0  0  0  0  0  0  0  0  0
   -1.7316    2.1020    1.2416 C   0  0  0  0  0  0  0  0  0  0  0  0
    3.1118    0.4150    1.3474 C   0  0  0  0  0  0  0  0  0  0  0  0
    4.5370    0.8528    1.3618 C   0  0  0  0  0  0  0  0  0  0  0  0
    4.9846    2.0906    1.7847 C   0  0  0  0  0  0  0  0  0  0  0  0
    6.3459    2.0205    1.7544 N   0  0  0  0  0  0  0  0  0  0  0  0
    6.7093    1.1043    0.8003 C   0  0  0  0  0  0  0  0  0  0  0  0
    7.8549    0.9850    0.0117 C   0  0  0  0  0  0  0  0  0  0  0  0
    7.9411   -0.1487   -0.8001 C   0  0  0  0  0  0  0  0  0  0  0  0
    6.9932   -1.1693   -0.7129 C   0  0  0  0  0  0  0  0  0  0  0  0
    5.8539   -1.0270    0.0890 C   0  0  0  0  0  0  0  0  0  0  0  0
    5.6593    0.1903    0.7655 C   0  0  0  0  0  0  0  0  0  0  0  0
    3.7625    1.8086   -0.8727 H   0  0  0  0  0  0  0  0  0  0  0  0
    2.3752    2.4182   -0.2960 H   0  0  0  0  0  0  0  0  0  0  0  0
    3.0009   -0.4156   -0.6465 H   0  0  0  0  0  0  0  0  0  0  0  0
    0.6314    0.0301   -1.0548 H   0  0  0  0  0  0  0  0  0  0  0  0
    0.8683   -0.8765    0.4737 H   0  0  0  0  0  0  0  0  0  0  0  0
   -1.3262   -0.9449   -0.1969 H   0  0  0  0  0  0  0  0  0  0  0  0
   -4.8367    0.8686    0.8236 H   0  0  0  0  0  0  0  0  0  0  0  0
   -5.5370    3.1313    0.4129 H   0  0  0  0  0  0  0  0  0  0  0  0
   -6.8095    4.9963    1.3066 H   0  0  0  0  0  0  0  0  0  0  0  0
   -6.9972    6.9008    2.9866 H   0  0  0  0  0  0  0  0  0  0  0  0
   -2.7224    5.6684    4.9979 H   0  0  0  0  0  0  0  0  0  0  0  0
   -2.4984    3.7329    3.4177 H   0  0  0  0  0  0  0  0  0  0  0  0
   -1.1593    2.9594    1.5864 H   0  0  0  0  0  0  0  0  0  0  0  0
    3.0383   -0.5836    1.7966 H   0  0  0  0  0  0  0  0  0  0  0  0
    2.5320    1.0873    1.9930 H   0  0  0  0  0  0  0  0  0  0  0  0
    4.4614    2.9583    2.1657 H   0  0  0  0  0  0  0  0  0  0  0  0
    6.9771    2.5068    2.3757 H   0  0  0  0  0  0  0  0  0  0  0  0
    8.6001    1.7720   -0.0346 H   0  0  0  0  0  0  0  0  0  0  0  0
    8.7635   -0.2391   -1.5061 H   0  0  0  0  0  0  0  0  0  0  0  0
    7.1122   -2.0665   -1.3149 H   0  0  0  0  0  0  0  0  0  0  0  0
    5.1016   -1.8084    0.1146 H   0  0  0  0  0  0  0  0  0  0  0  0
  1 32  1  0  0  0  0
  1 33  1  0  0  0  0
  2 22  1  0  0  0  0
  2  3  1  0  0  0  0
  2  1  1  0  0  0  0
  2 34  1  6  0  0  0
  3  4  1  0  0  0  0
  3 35  1  0  0  0  0
  3 36  1  0  0  0  0
  4  5  1  0  0  0  0
  5  6  1  0  0  0  0
  5 21  2  0  0  0  0
  6  7  2  0  0  0  0
  6 37  1  0  0  0  0
  7  8  1  0  0  0  0
  8  9  2  0  0  0  0
  8 38  1  0  0  0  0
  9 10  1  0  0  0  0
  9 21  1  0  0  0  0
 10 11  1  0  0  0  0
 10 20  2  0  0  0  0
 11 12  2  0  0  0  0
 11 39  1  0  0  0  0
 12 13  1  0  0  0  0
 12 40  1  0  0  0  0
 13 14  1  0  0  0  0
 13 19  2  0  0  0  0
 14 15  2  0  0  0  0
 14 41  1  0  0  0  0
 15 16  1  0  0  0  0
 16 17  1  0  0  0  0
 16 18  2  0  0  0  0
 18 19  1  0  0  0  0
 18 42  1  0  0  0  0
 19 20  1  0  0  0  0
 20 43  1  0  0  0  0
 21 44  1  0  0  0  0
 22 23  1  0  0  0  0
 22 45  1  0  0  0  0
 22 46  1  0  0  0  0
 23 24  2  0  0  0  0
 23 31  1  0  0  0  0
 24 25  1  0  0  0  0
 24 47  1  0  0  0  0
 25 26  1  0  0  0  0
 25 48  1  0  0  0  0
 26 27  1  0  0  0  0
 26 31  2  0  0  0  0
 27 28  2  0  0  0  0
 27 49  1  0  0  0  0
 28 29  1  0  0  0  0
 28 50  1  0  0  0  0
 29 30  2  0  0  0  0
 29 51  1  0  0  0  0
 30 31  1  0  0  0  0
 30 52  1  0  0  0  0
M  END
$$$$
