REMARK  Name = 
REMARK  8 active torsions:
REMARK  status: ('A' for Active; 'I' for Inactive)
REMARK    1  A    between atoms: C_5  and  O_6
REMARK    2  A    between atoms: C_7  and  O_8
REMARK    3  A    between atoms: C_13  and  O_14
REMARK    4  A    between atoms: C_15  and  O_16
REMARK    5  A    between atoms: N_19  and  C_20
REMARK    6  A    between atoms: C_20  and  C_21
REMARK    7  A    between atoms: C_24  and  S_25
REMARK    8  A    between atoms: S_25  and  C_28
REMARK                            x       y       z     vdW  Elec       q    Type
REMARK                         _______ _______ _______ _____ _____    ______ ____
ROOT
ATOM      1  O   UNL     1      -2.468   0.812   2.560  0.00  0.00    +0.000 OA
ATOM      2  C   UNL     1      -1.247   0.729   2.425  0.00  0.00    +0.000 A 
ATOM      3  C   UNL     1      -0.467   1.990   2.357  0.00  0.00    +0.000 A 
ATOM      4  C   UNL     1      -1.177   3.210   2.355  0.00  0.00    +0.000 A 
ATOM      5  C   UNL     1      -0.482   4.405   2.280  0.00  0.00    +0.000 A 
ATOM      6  C   UNL     1       0.902   4.393   2.213  0.00  0.00    +0.000 A 
ATOM      7  C   UNL     1       1.608   3.194   2.209  0.00  0.00    +0.000 A 
ATOM      8  C   UNL     1       0.936   1.954   2.280  0.00  0.00    +0.000 A 
ATOM      9  C   UNL     1       1.629   0.648   2.270  0.00  0.00    +0.000 A 
ATOM     10  C   UNL     1       3.043   0.553   2.255  0.00  0.00    +0.000 A 
ATOM     11  C   UNL     1       3.677  -0.682   2.234  0.00  0.00    +0.000 A 
ATOM     12  C   UNL     1       2.926  -1.841   2.233  0.00  0.00    +0.000 A 
ATOM     13  C   UNL     1       1.542  -1.784   2.267  0.00  0.00    +0.000 A 
ATOM     14  C   UNL     1       0.868  -0.551   2.277  0.00  0.00    +0.000 A 
ATOM     15  N   UNL     1      -0.566  -0.488   2.325  0.00  0.00    +0.000 N 
ATOM     16  H   UNL     1      -2.262   3.203   2.408  0.00  0.00    +0.000 HD
ATOM     17  H   UNL     1       2.688   3.267   2.143  0.00  0.00    +0.000 HD
ATOM     18  H   UNL     1       3.662   1.443   2.265  0.00  0.00    +0.000 HD
ATOM     19  H   UNL     1       1.028  -2.734   2.304  0.00  0.00    +0.000 HD
ENDROOT
BRANCH  15  20
ATOM     20  C   UNL     1      -1.395  -1.705   2.243  0.00  0.00    +0.000 C 
ATOM     21  H   UNL     1      -2.345  -1.534   2.767  0.00  0.00    +0.000 HD
ATOM     22  H   UNL     1      -0.940  -2.533   2.794  0.00  0.00    +0.000 HD
BRANCH  20  23
ATOM     23  C   UNL     1      -1.707  -2.100   0.807  0.00  0.00    +0.000 A 
ATOM     24  C   UNL     1      -0.866  -2.964   0.089  0.00  0.00    +0.000 A 
ATOM     25  C   UNL     1      -1.051  -3.170  -1.278  0.00  0.00    +0.000 A 
ATOM     26  C   UNL     1      -2.099  -2.522  -1.930  0.00  0.00    +0.000 A 
ATOM     27  C   UNL     1      -3.022  -1.758  -1.215  0.00  0.00    +0.000 A 
ATOM     28  C   UNL     1      -2.817  -1.542   0.149  0.00  0.00    +0.000 A 
ATOM     29  H   UNL     1      -0.030  -3.463   0.570  0.00  0.00    +0.000 HD
ATOM     30  H   UNL     1      -0.352  -3.799  -1.825  0.00  0.00    +0.000 HD
ATOM     31  H   UNL     1      -3.870  -1.295  -1.713  0.00  0.00    +0.000 HD
ATOM     32  H   UNL     1      -3.510  -0.902   0.694  0.00  0.00    +0.000 HD
BRANCH  26  33
ATOM     33  S   UNL     1      -2.188  -2.588  -3.707  0.00  0.00    +0.000 S 
ATOM     34  O   UNL     1      -1.559  -3.825  -4.133  0.00  0.00    +0.000 OA
ATOM     35  O   UNL     1      -3.551  -2.282  -4.091  0.00  0.00    +0.000 OA
BRANCH  33  36
ATOM     36  C   UNL     1      -1.156  -1.239  -4.252  0.00  0.00    +0.000 A 
ATOM     37  C   UNL     1       0.210  -1.450  -4.464  0.00  0.00    +0.000 A 
ATOM     38  C   UNL     1       1.022  -0.376  -4.833  0.00  0.00    +0.000 A 
ATOM     39  C   UNL     1       0.467   0.894  -5.001  0.00  0.00    +0.000 A 
ATOM     40  C   UNL     1      -0.902   1.093  -4.814  0.00  0.00    +0.000 A 
ATOM     41  C   UNL     1      -1.720   0.026  -4.442  0.00  0.00    +0.000 A 
ATOM     42  H   UNL     1       0.651  -2.436  -4.336  0.00  0.00    +0.000 HD
ATOM     43  H   UNL     1       2.087  -0.525  -4.990  0.00  0.00    +0.000 HD
ATOM     44  H   UNL     1       1.102   1.732  -5.282  0.00  0.00    +0.000 HD
ATOM     45  H   UNL     1      -1.331   2.083  -4.955  0.00  0.00    +0.000 HD
ATOM     46  H   UNL     1      -2.786   0.190  -4.296  0.00  0.00    +0.000 HD
ENDBRANCH  33  36
ENDBRANCH  26  33
ENDBRANCH  20  23
ENDBRANCH  15  20
BRANCH   5  47
ATOM     47  O   UNL     1      -1.111   5.617   2.266  0.00  0.00    +0.000 OA
ATOM     48  H   UNL     1      -2.073   5.465   2.293  0.00  0.00    +0.000 HD
ENDBRANCH   5  47
BRANCH   6  49
ATOM     49  O   UNL     1       1.594   5.568   2.147  0.00  0.00    +0.000 OA
ATOM     50  H   UNL     1       0.906   6.264   2.176  0.00  0.00    +0.000 HD
ENDBRANCH   6  49
BRANCH  11  51
ATOM     51  O   UNL     1       5.038  -0.808   2.224  0.00  0.00    +0.000 OA
ATOM     52  H   UNL     1       5.433   0.081   2.256  0.00  0.00    +0.000 HD
ENDBRANCH  11  51
BRANCH  12  53
ATOM     53  O   UNL     1       3.538  -3.060   2.215  0.00  0.00    +0.000 OA
ATOM     54  H   UNL     1       4.495  -2.859   2.209  0.00  0.00    +0.000 HD
ENDBRANCH  12  53
TORSDOF 8
