REMARK  Name = 
REMARK  7 active torsions:
REMARK  status: ('A' for Active; 'I' for Inactive)
REMARK    1  A    between atoms: C_5  and  O_6
REMARK    2  A    between atoms: C_7  and  O_8
REMARK    3  A    between atoms: C_13  and  O_14
REMARK    4  A    between atoms: C_15  and  O_16
REMARK    5  A    between atoms: N_19  and  C_20
REMARK    6  A    between atoms: C_20  and  C_21
REMARK    7  A    between atoms: C_24  and  N_25
REMARK                            x       y       z     vdW  Elec       q    Type
REMARK                         _______ _______ _______ _____ _____    ______ ____
ROOT
ATOM      1  O   UNL     1      -2.631   0.968  -0.943  0.00  0.00    +0.000 OA
ATOM      2  C   UNL     1      -1.403   0.877  -0.976  0.00  0.00    +0.000 A 
ATOM      3  C   UNL     1      -0.618   2.131  -0.968  0.00  0.00    +0.000 A 
ATOM      4  C   UNL     1      -1.327   3.350  -0.954  0.00  0.00    +0.000 A 
ATOM      5  C   UNL     1      -0.629   4.544  -0.979  0.00  0.00    +0.000 A 
ATOM      6  C   UNL     1       0.756   4.529  -1.010  0.00  0.00    +0.000 A 
ATOM      7  C   UNL     1       1.461   3.328  -1.014  0.00  0.00    +0.000 A 
ATOM      8  C   UNL     1       0.786   2.089  -0.991  0.00  0.00    +0.000 A 
ATOM      9  C   UNL     1       1.474   0.780  -0.999  0.00  0.00    +0.000 A 
ATOM     10  C   UNL     1       2.887   0.680  -0.985  0.00  0.00    +0.000 A 
ATOM     11  C   UNL     1       3.517  -0.557  -1.003  0.00  0.00    +0.000 A 
ATOM     12  C   UNL     1       2.762  -1.715  -1.037  0.00  0.00    +0.000 A 
ATOM     13  C   UNL     1       1.378  -1.655  -1.053  0.00  0.00    +0.000 A 
ATOM     14  C   UNL     1       0.708  -0.418  -1.024  0.00  0.00    +0.000 A 
ATOM     15  N   UNL     1      -0.726  -0.344  -1.028  0.00  0.00    +0.000 N 
ATOM     16  H   UNL     1      -2.413   3.344  -0.930  0.00  0.00    +0.000 HD
ATOM     17  H   UNL     1       2.542   3.399  -1.043  0.00  0.00    +0.000 HD
ATOM     18  H   UNL     1       3.509   1.568  -0.958  0.00  0.00    +0.000 HD
ATOM     19  H   UNL     1       0.855  -2.600  -1.085  0.00  0.00    +0.000 HD
ENDROOT
BRANCH  15  20
ATOM     20  C   UNL     1      -1.559  -1.558  -1.031  0.00  0.00    +0.000 C 
ATOM     21  H   UNL     1      -1.137  -2.300  -1.718  0.00  0.00    +0.000 HD
ATOM     22  H   UNL     1      -2.547  -1.331  -1.453  0.00  0.00    +0.000 HD
BRANCH  20  23
ATOM     23  C   UNL     1      -1.766  -2.129   0.361  0.00  0.00    +0.000 A 
ATOM     24  C   UNL     1      -2.496  -1.405   1.319  0.00  0.00    +0.000 A 
ATOM     25  C   UNL     1      -2.561  -1.834   2.644  0.00  0.00    +0.000 A 
ATOM     26  C   UNL     1      -1.906  -3.011   3.016  0.00  0.00    +0.000 A 
ATOM     27  C   UNL     1      -1.255  -3.796   2.057  0.00  0.00    +0.000 A 
ATOM     28  C   UNL     1      -1.195  -3.356   0.732  0.00  0.00    +0.000 A 
ATOM     29  H   UNL     1      -2.996  -0.477   1.044  0.00  0.00    +0.000 HD
ATOM     30  H   UNL     1      -3.098  -1.226   3.370  0.00  0.00    +0.000 HD
ATOM     31  H   UNL     1      -0.765  -4.729   2.328  0.00  0.00    +0.000 HD
ATOM     32  H   UNL     1      -0.667  -3.966   0.002  0.00  0.00    +0.000 HD
BRANCH  26  33
ATOM     33  N   UNL     1      -1.862  -3.400   4.430  0.00  0.00    +0.000 N 
ATOM     34  O   UNL     1      -2.383  -2.635   5.255  0.00  0.00    +0.000 OA
ATOM     35  O   UNL     1      -1.290  -4.460   4.720  0.00  0.00    +0.000 OA
ENDBRANCH  26  33
ENDBRANCH  20  23
ENDBRANCH  15  20
BRANCH   5  36
ATOM     36  O   UNL     1      -1.259   5.756  -0.985  0.00  0.00    +0.000 OA
ATOM     37  H   UNL     1      -2.221   5.602  -0.982  0.00  0.00    +0.000 HD
ENDBRANCH   5  36
BRANCH   6  38
ATOM     38  O   UNL     1       1.451   5.704  -1.042  0.00  0.00    +0.000 OA
ATOM     39  H   UNL     1       0.762   6.400  -1.036  0.00  0.00    +0.000 HD
ENDBRANCH   6  38
BRANCH  11  40
ATOM     40  O   UNL     1       4.877  -0.685  -0.991  0.00  0.00    +0.000 OA
ATOM     41  H   UNL     1       5.274   0.202  -0.972  0.00  0.00    +0.000 HD
ENDBRANCH  11  40
BRANCH  12  42
ATOM     42  O   UNL     1       3.377  -2.932  -1.057  0.00  0.00    +0.000 OA
ATOM     43  H   UNL     1       4.333  -2.731  -1.030  0.00  0.00    +0.000 HD
ENDBRANCH  12  42
TORSDOF 7
