
 OpenBabel01112422323D

 53 58  0  0  0  0  0  0  0  0999 V2000
    1.1137   -0.5164   -0.4930 C   0  0  0  0  0  0  0  0  0  0  0  0
    2.4620   -0.2255   -0.1213 O   0  0  0  0  0  0  0  0  0  0  0  0
    2.9586   -0.9993    0.8979 C   0  0  0  0  0  0  0  0  0  0  0  0
    2.5559   -2.3061    1.1394 C   0  0  0  0  0  0  0  0  0  0  0  0
    3.0679   -3.0099    2.2320 C   0  0  0  0  0  0  0  0  0  0  0  0
    3.9930   -2.3933    3.1018 C   0  0  0  0  0  0  0  0  0  0  0  0
    4.6162   -2.6742    4.2968 C   0  0  0  0  0  0  0  0  0  0  0  0
    4.5137   -3.9441    4.9092 C   0  0  0  0  0  0  0  0  0  0  0  0
    5.0127   -4.0285    6.2188 C   0  0  0  0  0  0  0  0  0  0  0  0
    5.9824   -3.1522    6.7096 C   0  0  0  0  0  0  0  0  0  0  0  0
    6.2806   -1.9897    5.9437 C   0  0  0  0  0  0  0  0  0  0  0  0
    7.4877   -1.3093    6.1467 C   0  0  0  0  0  0  0  0  0  0  0  0
    8.5794   -2.0425    6.6437 C   0  0  0  0  0  0  0  0  0  0  0  0
    8.3012   -3.3513    7.0415 C   0  0  0  0  0  0  0  0  0  0  0  0
    8.7160   -4.6557    6.5710 C   0  0  0  0  0  0  0  0  0  0  0  0
    7.9204   -5.5888    7.2170 C   0  0  0  0  0  0  0  0  0  0  0  0
    7.2951   -4.8371    8.2030 N   0  0  0  0  0  0  0  0  0  0  0  0
    7.8897   -4.8742    9.5460 C   0  0  0  0  0  0  0  0  0  0  0  0
    7.0168   -3.6251    7.5513 C   0  0  0  0  0  0  0  0  0  0  0  0
    5.4690   -1.7170    4.7982 C   0  0  0  0  0  0  0  0  0  0  0  0
    5.3992   -0.7536    3.7891 N   0  0  0  0  0  0  0  0  0  0  0  0
    6.1432    0.5058    3.7563 C   0  0  0  0  0  0  0  0  0  0  0  0
    7.5034    0.3898    3.0555 C   0  0  0  0  0  0  0  0  0  0  0  0
    8.2756    1.7013    3.1374 C   0  0  0  0  0  0  0  0  0  0  0  0
    7.5505    2.7402    2.4970 O   0  0  0  0  0  0  0  0  0  0  0  0
    4.4474   -1.1016    2.8111 C   0  0  0  0  0  0  0  0  0  0  0  0
    3.9454   -0.3985    1.6954 C   0  0  0  0  0  0  0  0  0  0  0  0
    4.6735   -5.3255    6.7240 C   0  0  0  0  0  0  0  0  0  0  0  0
    4.6192   -5.8060    7.8477 O   0  0  0  0  0  0  0  0  0  0  0  0
    4.3623   -6.0151    5.5873 N   0  0  0  0  0  0  0  0  0  0  0  0
    4.1935   -5.2654    4.4550 C   0  0  0  0  0  0  0  0  0  0  0  0
    3.9645   -5.7594    3.3596 O   0  0  0  0  0  0  0  0  0  0  0  0
    0.7685    0.2800   -1.1581 H   0  0  0  0  0  0  0  0  0  0  0  0
    0.4515   -0.5324    0.3812 H   0  0  0  0  0  0  0  0  0  0  0  0
    1.0517   -1.4577   -1.0477 H   0  0  0  0  0  0  0  0  0  0  0  0
    1.8401   -2.8138    0.5008 H   0  0  0  0  0  0  0  0  0  0  0  0
    2.7086   -4.0201    2.4014 H   0  0  0  0  0  0  0  0  0  0  0  0
    7.7184   -0.3605    5.6887 H   0  0  0  0  0  0  0  0  0  0  0  0
    9.5911   -1.7010    6.4627 H   0  0  0  0  0  0  0  0  0  0  0  0
    9.3885   -4.8628    5.7515 H   0  0  0  0  0  0  0  0  0  0  0  0
    7.8126   -6.6652    7.1807 H   0  0  0  0  0  0  0  0  0  0  0  0
    7.6764   -5.8464    9.9929 H   0  0  0  0  0  0  0  0  0  0  0  0
    7.4930   -4.0561   10.1492 H   0  0  0  0  0  0  0  0  0  0  0  0
    8.9772   -4.7539    9.4388 H   0  0  0  0  0  0  0  0  0  0  0  0
    6.2334    0.8633    4.7874 H   0  0  0  0  0  0  0  0  0  0  0  0
    5.5205    1.2452    3.2458 H   0  0  0  0  0  0  0  0  0  0  0  0
    7.3496    0.1219    2.0031 H   0  0  0  0  0  0  0  0  0  0  0  0
    8.1097   -0.4110    3.4916 H   0  0  0  0  0  0  0  0  0  0  0  0
    9.2554    1.6123    2.6572 H   0  0  0  0  0  0  0  0  0  0  0  0
    8.4396    1.9927    4.1800 H   0  0  0  0  0  0  0  0  0  0  0  0
    7.5049    2.5265    1.5481 H   0  0  0  0  0  0  0  0  0  0  0  0
    4.2774    0.6073    1.4614 H   0  0  0  0  0  0  0  0  0  0  0  0
    4.5290   -7.0028    5.5359 H   0  0  0  0  0  0  0  0  0  0  0  0
  1  2  1  0  0  0  0
  1 33  1  0  0  0  0
  1 34  1  0  0  0  0
  1 35  1  0  0  0  0
  2  3  1  0  0  0  0
  3  4  1  0  0  0  0
  3 27  2  0  0  0  0
  4  5  2  0  0  0  0
  4 36  1  0  0  0  0
  5  6  1  0  0  0  0
  5 37  1  0  0  0  0
  6  7  1  0  0  0  0
  6 26  2  0  0  0  0
  7  8  1  0  0  0  0
  7 20  2  0  0  0  0
  8  9  2  0  0  0  0
  8 31  1  0  0  0  0
  9 10  1  0  0  0  0
  9 28  1  0  0  0  0
 10 11  1  0  0  0  0
 10 19  2  0  0  0  0
 11 12  2  0  0  0  0
 11 20  1  0  0  0  0
 12 13  1  0  0  0  0
 12 38  1  0  0  0  0
 13 14  2  0  0  0  0
 13 39  1  0  0  0  0
 14 15  1  0  0  0  0
 14 19  1  0  0  0  0
 15 16  2  0  0  0  0
 15 40  1  0  0  0  0
 16 17  1  0  0  0  0
 16 41  1  0  0  0  0
 17 18  1  0  0  0  0
 17 19  1  0  0  0  0
 18 42  1  0  0  0  0
 18 43  1  0  0  0  0
 18 44  1  0  0  0  0
 20 21  1  0  0  0  0
 21 22  1  0  0  0  0
 21 26  1  0  0  0  0
 22 23  1  0  0  0  0
 22 45  1  0  0  0  0
 22 46  1  0  0  0  0
 23 24  1  0  0  0  0
 23 47  1  0  0  0  0
 23 48  1  0  0  0  0
 24 25  1  0  0  0  0
 24 49  1  0  0  0  0
 24 50  1  0  0  0  0
 25 51  1  0  0  0  0
 26 27  1  0  0  0  0
 27 52  1  0  0  0  0
 28 29  2  0  0  0  0
 28 30  1  0  0  0  0
 30 31  1  0  0  0  0
 30 53  1  0  0  0  0
 31 32  2  0  0  0  0
M  END
$$$$
