REMARK  Name = 
REMARK  10 active torsions:
REMARK  status: ('A' for Active; 'I' for Inactive)
REMARK    1  A    between atoms: CG1_1  and  CB_2
REMARK    2  A    between atoms: CB_2  and  CG2_3
REMARK    3  A    between atoms: CB_2  and  CA_4
REMARK    4  A    between atoms: CA_4  and  C_5
REMARK    5  A    between atoms: CA_4  and  N_7
REMARK    6  A    between atoms: C_5  and  O_6
REMARK    7  A    between atoms: N_11  and  C_12
REMARK    8  A    between atoms: N_22  and  C_23
REMARK    9  A    between atoms: C_23  and  C_24
REMARK   10  A    between atoms: C_23  and  C_25
REMARK                            x       y       z     vdW  Elec       q    Type
REMARK                         _______ _______ _______ _____ _____    ______ ____
ROOT
ATOM      1  N   VAL A   1      -0.988  -1.355  -1.965  0.00  0.00    +0.000 N 
ATOM      2  C   UNK A   0      -0.340  -0.585  -0.995  0.00  0.00    +0.000 A 
ATOM      3  N   UNK A   0      -0.718  -0.741   0.293  0.00  0.00    +0.000 NA
ATOM      4  C   UNK A   0      -0.160   0.015   1.270  0.00  0.00    +0.000 A 
ATOM      5  N   UNK A   0      -0.605  -0.184   2.589  0.00  0.00    +0.000 N 
ATOM      6  C   UNK A   0       0.790   0.971   0.892  0.00  0.00    +0.000 A 
ATOM      7  N   UNK A   0       1.503   1.899   1.623  0.00  0.00    +0.000 NA
ATOM      8  C   UNK A   0       2.272   2.500   0.748  0.00  0.00    +0.000 A 
ATOM      9  N   UNK A   0       2.073   2.021  -0.521  0.00  0.00    +0.000 N 
ATOM     10  C   UNK A   0       1.114   1.040  -0.454  0.00  0.00    +0.000 A 
ATOM     11  N   UNK A   0       0.582   0.297  -1.443  0.00  0.00    +0.000 NA
ATOM     12  H   VAL A   1      -0.848  -0.901  -2.861  0.00  0.00    +0.000 HD
ATOM     13  H   UNK A   0      -1.289  -0.932   2.611  0.00  0.00    +0.000 HD
ATOM     14  H   UNK A   0       2.983   3.281   0.984  0.00  0.00    +0.000 HD
ENDROOT
BRANCH   5  15
ATOM     15  C   UNK A   0       0.167  -0.099   3.764  0.00  0.00    +0.000 A 
ATOM     16  C   UNK A   0       1.555  -0.321   3.766  0.00  0.00    +0.000 A 
ATOM     17  C   UNK A   0       2.302  -0.202   4.938  0.00  0.00    +0.000 A 
ATOM     18  C   UNK A   0       1.667   0.125   6.131  0.00  0.00    +0.000 A 
ATOM     19  C   UNK A   0       0.287   0.317   6.147  0.00  0.00    +0.000 A 
ATOM     20 CL   UNK A   0      -0.496   0.719   7.625  0.00  0.00    +0.000 Cl
ATOM     21  C   UNK A   0      -0.464   0.199   4.975  0.00  0.00    +0.000 A 
ATOM     22  H   UNK A   0       2.074  -0.574   2.848  0.00  0.00    +0.000 HD
ATOM     23  H   UNK A   0       3.380  -0.346   4.907  0.00  0.00    +0.000 HD
ATOM     24  H   UNK A   0       2.251   0.229   7.041  0.00  0.00    +0.000 HD
ATOM     25  H   UNK A   0      -1.534   0.379   4.998  0.00  0.00    +0.000 HD
ENDBRANCH   5  15
BRANCH   1  26
ATOM     26  CA  VAL A   1      -2.371  -1.746  -1.640  0.00  0.00    +0.000 C 
ATOM     27  HA  VAL A   1      -2.383  -2.259  -0.667  0.00  0.00    +0.000 HD
BRANCH  26  28
ATOM     28  C   VAL A   1      -3.293  -0.503  -1.531  0.00  0.00    +0.000 C 
ATOM     29  H1  VAL A   1      -2.948   0.190  -0.756  0.00  0.00    +0.000 HD
ATOM     30  H2  VAL A   1      -3.297   0.061  -2.468  0.00  0.00    +0.000 HD
BRANCH  28  31
ATOM     31  O   VAL A   1      -4.637  -0.855  -1.218  0.00  0.00    +0.000 OA
ATOM     32  H   VAL A   1      -4.679  -0.983  -0.254  0.00  0.00    +0.000 HD
ENDBRANCH  28  31
ENDBRANCH  26  28
BRANCH  26  33
ATOM     33  CB  VAL A   1      -2.931  -2.803  -2.641  0.00  0.00    +0.000 C 
ATOM     34  HB  VAL A   1      -3.920  -3.100  -2.264  0.00  0.00    +0.000 HD
BRANCH  33  35
ATOM     35  CG1 VAL A   1      -2.094  -4.087  -2.678  0.00  0.00    +0.000 C 
ATOM     36 HG11 VAL A   1      -2.649  -4.882  -3.190  0.00  0.00    +0.000 HD
ATOM     37 HG12 VAL A   1      -1.868  -4.445  -1.669  0.00  0.00    +0.000 HD
ATOM     38 HG13 VAL A   1      -1.152  -3.943  -3.216  0.00  0.00    +0.000 HD
ENDBRANCH  33  35
BRANCH  33  39
ATOM     39  CG2 VAL A   1      -3.143  -2.285  -4.065  0.00  0.00    +0.000 C 
ATOM     40 HG21 VAL A   1      -2.198  -2.000  -4.537  0.00  0.00    +0.000 HD
ATOM     41 HG22 VAL A   1      -3.815  -1.422  -4.085  0.00  0.00    +0.000 HD
ATOM     42 HG23 VAL A   1      -3.607  -3.061  -4.685  0.00  0.00    +0.000 HD
ENDBRANCH  33  39
ENDBRANCH  26  33
ENDBRANCH   1  26
BRANCH   9  43
ATOM     43  C   UNK A   0       2.782   2.511  -1.695  0.00  0.00    +0.000 C 
ATOM     44  H   UNK A   0       2.385   1.969  -2.561  0.00  0.00    +0.000 HD
BRANCH  43  45
ATOM     45  C   UNK A   0       2.535   4.008  -1.905  0.00  0.00    +0.000 C 
ATOM     46  H   UNK A   0       2.905   4.604  -1.062  0.00  0.00    +0.000 HD
ATOM     47  H   UNK A   0       1.465   4.217  -2.010  0.00  0.00    +0.000 HD
ATOM     48  H   UNK A   0       3.044   4.367  -2.806  0.00  0.00    +0.000 HD
ENDBRANCH  43  45
BRANCH  43  49
ATOM     49  C   UNK A   0       4.283   2.228  -1.596  0.00  0.00    +0.000 C 
ATOM     50  H   UNK A   0       4.742   2.752  -0.747  0.00  0.00    +0.000 HD
ATOM     51  H   UNK A   0       4.804   2.559  -2.503  0.00  0.00    +0.000 HD
ATOM     52  H   UNK A   0       4.478   1.159  -1.465  0.00  0.00    +0.000 HD
ENDBRANCH  43  49
ENDBRANCH   9  43
TORSDOF 10
