REMARK  Name = 
REMARK  9 active torsions:
REMARK  status: ('A' for Active; 'I' for Inactive)
REMARK    1  A    between atoms: C_1  and  C_2
REMARK    2  A    between atoms: C_8  and  C_9
REMARK    3  A    between atoms: C_13  and  O_14
REMARK    4  A    between atoms: O_14  and  C_15
REMARK    5  A    between atoms: C_15  and  C_16
REMARK    6  A    between atoms: C_16  and  N_17
REMARK    7  A    between atoms: C_16  and  C_18
REMARK    8  A    between atoms: C_18  and  C_19
REMARK    9  A    between atoms: C_23  and  C_24
REMARK                            x       y       z     vdW  Elec       q    Type
REMARK                         _______ _______ _______ _____ _____    ______ ____
ROOT
ATOM      1  C   UNL     1       0.748  -2.151  -3.045  0.00  0.00    +0.000 A 
ATOM      2  C   UNL     1       1.675  -1.978  -4.076  0.00  0.00    +0.000 A 
ATOM      3  N   UNL     1       2.631  -1.020  -4.110  0.00  0.00    +0.000 NA
ATOM      4  C   UNL     1       2.669  -0.173  -3.058  0.00  0.00    +0.000 A 
ATOM      5  C   UNL     1       1.804  -0.233  -1.974  0.00  0.00    +0.000 A 
ATOM      6  C   UNL     1       0.842  -1.239  -1.979  0.00  0.00    +0.000 A 
ATOM      7  H   UNL     1       1.678  -2.625  -4.950  0.00  0.00    +0.000 HD
ATOM      8  H   UNL     1       3.445   0.587  -3.107  0.00  0.00    +0.000 HD
ATOM      9  H   UNL     1       0.159  -1.340  -1.143  0.00  0.00    +0.000 HD
ENDROOT
BRANCH   1  16
ATOM     10  C   UNL     1      -3.780  -4.253  -1.891  0.00  0.00    +0.000 A 
ATOM     11  N   UNL     1      -4.257  -5.472  -2.154  0.00  0.00    +0.000 NA
ATOM     12  N   UNL     1      -3.271  -6.069  -2.840  0.00  0.00    +0.000 N 
ATOM     13  C   UNL     1      -2.161  -5.281  -3.026  0.00  0.00    +0.000 A 
ATOM     14  C   UNL     1      -0.945  -5.519  -3.661  0.00  0.00    +0.000 A 
ATOM     15  C   UNL     1      -0.009  -4.475  -3.655  0.00  0.00    +0.000 A 
ATOM     16  C   UNL     1      -0.266  -3.228  -3.053  0.00  0.00    +0.000 A 
ATOM     17  C   UNL     1      -1.522  -3.039  -2.436  0.00  0.00    +0.000 A 
ATOM     18  C   UNL     1      -2.471  -4.077  -2.415  0.00  0.00    +0.000 A 
ATOM     19  H   UNL     1      -3.407  -7.020  -3.152  0.00  0.00    +0.000 HD
ATOM     20  H   UNL     1      -0.717  -6.469  -4.135  0.00  0.00    +0.000 HD
ATOM     21  H   UNL     1       0.954  -4.667  -4.127  0.00  0.00    +0.000 HD
ATOM     22  H   UNL     1      -1.785  -2.094  -1.972  0.00  0.00    +0.000 HD
BRANCH  10  23
ATOM     23  C   UNL     1      -4.587  -3.268  -1.133  0.00  0.00    +0.000 C 
ATOM     24  H   UNL     1      -5.574  -3.666  -0.875  0.00  0.00    +0.000 HD
ATOM     25  H   UNL     1      -4.731  -2.358  -1.723  0.00  0.00    +0.000 HD
ATOM     26  H   UNL     1      -4.078  -2.996  -0.202  0.00  0.00    +0.000 HD
ENDBRANCH  10  23
ENDBRANCH   1  16
BRANCH   5  27
ATOM     27  O   UNL     1       1.986   0.699  -0.997  0.00  0.00    +0.000 OA
BRANCH  27  28
ATOM     28  C   UNL     1       1.089   0.657   0.122  0.00  0.00    +0.000 C 
ATOM     29  H   UNL     1       1.188  -0.303   0.643  0.00  0.00    +0.000 HD
ATOM     30  H   UNL     1       0.054   0.787  -0.223  0.00  0.00    +0.000 HD
BRANCH  28  31
ATOM     31  C   UNL     1       1.462   1.809   1.080  0.00  0.00    +0.000 C 
ATOM     32  H   UNL     1       2.520   1.705   1.354  0.00  0.00    +0.000 HD
BRANCH  31  33
ATOM     33  N   UNL     1       1.334   3.095   0.363  0.00  0.00    +0.000 NA
ATOM     34  H   UNL     1       0.374   3.223   0.046  0.00  0.00    +0.000 HD
ATOM     35  H   UNL     1       1.890   3.025  -0.494  0.00  0.00    +0.000 HD
ENDBRANCH  31  33
BRANCH  31  36
ATOM     36  C   UNL     1       0.595   1.742   2.358  0.00  0.00    +0.000 C 
ATOM     37  H   UNL     1       0.721   0.755   2.824  0.00  0.00    +0.000 HD
ATOM     38  H   UNL     1      -0.471   1.807   2.099  0.00  0.00    +0.000 HD
BRANCH  36  39
ATOM     39  C   UNL     1       0.916   2.801   3.391  0.00  0.00    +0.000 A 
ATOM     40  C   UNL     1       1.827   2.547   4.423  0.00  0.00    +0.000 A 
ATOM     41  C   UNL     1       2.143   3.541   5.351  0.00  0.00    +0.000 A 
ATOM     42  C   UNL     1       1.581   4.812   5.235  0.00  0.00    +0.000 A 
ATOM     43  C   UNL     1       0.689   5.100   4.194  0.00  0.00    +0.000 A 
ATOM     44  C   UNL     1       0.336   4.075   3.300  0.00  0.00    +0.000 A 
ATOM     45  H   UNL     1       2.308   1.575   4.509  0.00  0.00    +0.000 HD
ATOM     46  H   UNL     1       2.850   3.334   6.151  0.00  0.00    +0.000 HD
ATOM     47  H   UNL     1       1.862   5.586   5.947  0.00  0.00    +0.000 HD
ATOM     48  H   UNL     1      -0.367   4.290   2.495  0.00  0.00    +0.000 HD
BRANCH  43  49
ATOM     49  C   UNL     1       0.158   6.496   3.989  0.00  0.00    +0.000 C 
ATOM     50  F   UNL     1       0.657   7.404   4.875  0.00  0.00    +0.000 F 
ATOM     51  F   UNL     1       0.453   6.989   2.753  0.00  0.00    +0.000 F 
ATOM     52  F   UNL     1      -1.198   6.571   4.105  0.00  0.00    +0.000 F 
ENDBRANCH  43  49
ENDBRANCH  36  39
ENDBRANCH  31  36
ENDBRANCH  28  31
ENDBRANCH  27  28
ENDBRANCH   5  27
TORSDOF 9
