REMARK  Name = 
REMARK  10 active torsions:
REMARK  status: ('A' for Active; 'I' for Inactive)
REMARK    1  A    between atoms: C_1  and  O_2
REMARK    2  A    between atoms: O_2  and  C_3
REMARK    3  A    between atoms: C_3  and  C_5
REMARK    4  A    between atoms: C_9  and  N_10
REMARK    5  A    between atoms: C_11  and  C_13
REMARK    6  A    between atoms: C_13  and  C_14
REMARK    7  A    between atoms: C_14  and  N_15
REMARK    8  A    between atoms: N_15  and  C_16
REMARK    9  A    between atoms: N_15  and  C_17
REMARK   10  A    between atoms: N_20  and  C_21
REMARK                            x       y       z     vdW  Elec       q    Type
REMARK                         _______ _______ _______ _____ _____    ______ ____
ROOT
ATOM      1  C   UNL     1       0.356   0.973  -0.203  0.00  0.00    +0.000 C 
ATOM      2  C   UNL     1       0.303   2.548  -0.293  0.00  0.00    +0.000 C 
ATOM      3  C   UNL     1      -1.022   3.143  -0.808  0.00  0.00    +0.000 C 
ATOM      4  N   UNL     1      -1.379   2.397  -2.008  0.00  0.00    +0.000 N 
ATOM      5  C   UNL     1      -1.728   1.020  -1.718  0.00  0.00    +0.000 C 
ATOM      6  C   UNL     1      -0.429   0.314  -1.362  0.00  0.00    +0.000 C 
ATOM      7  H   UNL     1       1.093   2.893  -0.973  0.00  0.00    +0.000 HD
ATOM      8  H   UNL     1       0.529   2.993   0.686  0.00  0.00    +0.000 HD
ATOM      9  H   UNL     1      -0.869   4.212  -1.001  0.00  0.00    +0.000 HD
ATOM     10  H   UNL     1      -1.818   3.069  -0.057  0.00  0.00    +0.000 HD
ATOM     11  H   UNL     1      -2.208   0.502  -2.550  0.00  0.00    +0.000 HD
ATOM     12  H   UNL     1      -2.446   0.962  -0.892  0.00  0.00    +0.000 HD
ATOM     13  H   UNL     1       0.206   0.303  -2.257  0.00  0.00    +0.000 HD
ATOM     14  H   UNL     1      -0.704  -0.713  -1.121  0.00  0.00    +0.000 HD
ENDROOT
BRANCH   4  15
ATOM     15  C   UNL     1      -1.837   3.034  -3.139  0.00  0.00    +0.000 A 
ATOM     16  N   UNL     1      -2.310   4.293  -3.046  0.00  0.00    +0.000 NA
ATOM     17  C   UNL     1      -2.683   4.926  -4.182  0.00  0.00    +0.000 A 
ATOM     18  N   UNL     1      -2.597   4.454  -5.434  0.00  0.00    +0.000 NA
ATOM     19  C   UNL     1      -2.105   3.226  -5.472  0.00  0.00    +0.000 A 
ATOM     20  C   UNL     1      -1.735   2.465  -4.384  0.00  0.00    +0.000 A 
ATOM     21  C   UNL     1      -1.197   1.155  -4.861  0.00  0.00    +0.000 C 
ATOM     22  C   UNL     1      -1.273   1.299  -6.381  0.00  0.00    +0.000 C 
ATOM     23  O   UNL     1      -0.915   0.477  -7.201  0.00  0.00    +0.000 OA
ATOM     24  N   UNL     1      -1.843   2.532  -6.639  0.00  0.00    +0.000 N 
ATOM     25  H   UNL     1      -3.090   5.925  -4.065  0.00  0.00    +0.000 HD
ATOM     26  H   UNL     1      -1.840   0.317  -4.579  0.00  0.00    +0.000 HD
ATOM     27  H   UNL     1      -0.160   1.001  -4.556  0.00  0.00    +0.000 HD
ATOM     28  H   UNL     1      -2.003   2.906  -7.557  0.00  0.00    +0.000 HD
ENDBRANCH   4  15
BRANCH   1  30
ATOM     29  N   UNL     1       0.177  -0.607   1.689  0.00  0.00    +0.000 N 
ATOM     30  C   UNL     1      -0.302   0.565   1.135  0.00  0.00    +0.000 C 
ATOM     31  O   UNL     1      -1.234   1.227   1.588  0.00  0.00    +0.000 OA
ATOM     32  H   UNL     1       0.976  -1.032   1.211  0.00  0.00    +0.000 HD
BRANCH  29  37
ATOM     33  C   UNL     1       0.309  -2.884   4.606  0.00  0.00    +0.000 A 
ATOM     34  C   UNL     1      -0.713  -2.367   5.412  0.00  0.00    +0.000 A 
ATOM     35  C   UNL     1      -1.462  -1.279   4.975  0.00  0.00    +0.000 A 
ATOM     36  C   UNL     1      -1.194  -0.694   3.739  0.00  0.00    +0.000 A 
ATOM     37  C   UNL     1      -0.174  -1.186   2.925  0.00  0.00    +0.000 A 
ATOM     38  C   UNL     1       0.569  -2.295   3.358  0.00  0.00    +0.000 A 
ATOM     39  H   UNL     1      -0.935  -2.796   6.385  0.00  0.00    +0.000 HD
ATOM     40  H   UNL     1      -2.254  -0.876   5.601  0.00  0.00    +0.000 HD
ATOM     41  H   UNL     1      -1.801   0.156   3.446  0.00  0.00    +0.000 HD
ATOM     42  H   UNL     1       1.370  -2.697   2.738  0.00  0.00    +0.000 HD
BRANCH  33  43
ATOM     43  C   UNL     1       1.146  -4.033   5.053  0.00  0.00    +0.000 C 
ATOM     44  O   UNL     1       2.022  -4.544   4.375  0.00  0.00    +0.000 OA
BRANCH  43  45
ATOM     45  O   UNL     1       0.799  -4.393   6.314  0.00  0.00    +0.000 OA
BRANCH  45  46
ATOM     46  C   UNL     1       1.568  -5.458   6.872  0.00  0.00    +0.000 C 
ATOM     47  H   UNL     1       1.118  -5.724   7.834  0.00  0.00    +0.000 HD
ATOM     48  H   UNL     1       2.595  -5.126   7.049  0.00  0.00    +0.000 HD
ATOM     49  H   UNL     1       1.546  -6.340   6.225  0.00  0.00    +0.000 HD
ENDBRANCH  45  46
ENDBRANCH  43  45
ENDBRANCH  33  43
ENDBRANCH  29  37
ENDBRANCH   1  30
BRANCH   1  50
ATOM     50  C   UNL     1       1.875   0.557  -0.245  0.00  0.00    +0.000 C 
ATOM     51  H   UNL     1       2.360   1.093   0.585  0.00  0.00    +0.000 HD
ATOM     52  H   UNL     1       2.328   0.948  -1.166  0.00  0.00    +0.000 HD
BRANCH  50  53
ATOM     53  N   UNL     1       2.248  -0.883  -0.093  0.00  0.00    +0.000 NA
BRANCH  53  54
ATOM     54  C   UNL     1       1.781  -1.757  -1.177  0.00  0.00    +0.000 C 
ATOM     55  H   UNL     1       0.737  -2.033  -1.025  0.00  0.00    +0.000 HD
ATOM     56  H   UNL     1       2.305  -2.720  -1.169  0.00  0.00    +0.000 HD
ATOM     57  H   UNL     1       1.913  -1.310  -2.167  0.00  0.00    +0.000 HD
ENDBRANCH  53  54
BRANCH  53  58
ATOM     58  C   UNL     1       3.715  -1.002  -0.027  0.00  0.00    +0.000 C 
ATOM     59  H   UNL     1       4.118  -0.431   0.816  0.00  0.00    +0.000 HD
ATOM     60  H   UNL     1       4.194  -0.658  -0.951  0.00  0.00    +0.000 HD
ATOM     61  H   UNL     1       4.004  -2.046   0.140  0.00  0.00    +0.000 HD
ENDBRANCH  53  58
ENDBRANCH  50  53
ENDBRANCH   1  50
TORSDOF 10
