MODEL 1
REMARK VINA RESULT:   -10.514      0.000      0.000
REMARK INTER + INTRA:         -13.478
REMARK INTER:                 -13.587
REMARK INTRA:                   0.109
REMARK UNBOUND:                 0.109
REMARK  Name = 
REMARK  6 active torsions:
REMARK  status: ('A' for Active; 'I' for Inactive)
REMARK    1  A    between atoms: C_1  and  N_2
REMARK    2  A    between atoms: N_2  and  C_3
REMARK    3  A    between atoms: N_2  and  C_4
REMARK    4  A    between atoms: C_4  and  C_5
REMARK    5  A    between atoms: C_5  and  C_6
REMARK    6  A    between atoms: C_6  and  N_7
REMARK                            x       y       z     vdW  Elec       q    Type
REMARK                         _______ _______ _______ _____ _____    ______ ____
ROOT
ATOM      1  N   UNL     1      -9.318  -8.668  16.735  0.00  0.00    +0.000 N 
ATOM      2  C   UNL     1      -8.905  -9.171  17.983  0.00  0.00    +0.000 A 
ATOM      3  C   UNL     1      -8.682 -10.497  18.411  0.00  0.00    +0.000 A 
ATOM      4  C   UNL     1      -8.325 -10.721  19.742  0.00  0.00    +0.000 A 
ATOM      5  C   UNL     1      -8.154  -9.658  20.624  0.00  0.00    +0.000 A 
ATOM      6  C   UNL     1      -8.378  -8.354  20.204  0.00  0.00    +0.000 A 
ATOM      7  C   UNL     1      -8.774  -8.090  18.882  0.00  0.00    +0.000 A 
ATOM      8  C   UNL     1      -9.162  -7.003  18.116  0.00  0.00    +0.000 A 
ATOM      9  C   UNL     1      -9.246  -5.652  18.536  0.00  0.00    +0.000 A 
ATOM     10  C   UNL     1      -9.915  -4.725  17.685  0.00  0.00    +0.000 A 
ATOM     11  C   UNL     1     -10.417  -5.191  16.429  0.00  0.00    +0.000 A 
ATOM     12  C   UNL     1     -10.770  -4.327  15.405  0.00  0.00    +0.000 A 
ATOM     13  C   UNL     1     -11.815  -3.445  15.086  0.00  0.00    +0.000 A 
ATOM     14  C   UNL     1     -11.715  -2.707  13.903  0.00  0.00    +0.000 A 
ATOM     15  C   UNL     1     -10.540  -2.744  13.150  0.00  0.00    +0.000 A 
ATOM     16  C   UNL     1      -9.561  -3.719  13.387  0.00  0.00    +0.000 A 
ATOM     17  C   UNL     1      -9.836  -4.633  14.408  0.00  0.00    +0.000 A 
ATOM     18  N   UNL     1      -9.395  -5.936  14.670  0.00  0.00    +0.000 N 
ATOM     19  C   UNL     1      -9.756  -6.282  15.950  0.00  0.00    +0.000 A 
ATOM     20  C   UNL     1      -9.402  -7.301  16.812  0.00  0.00    +0.000 A 
ATOM     21  C   UNL     1      -9.792  -3.419  18.256  0.00  0.00    +0.000 C 
ATOM     22  O   UNL     1     -10.079  -2.294  17.872  0.00  0.00    +0.000 OA
ATOM     23  N   UNL     1      -9.143  -3.658  19.442  0.00  0.00    +0.000 N 
ATOM     24  C   UNL     1      -8.728  -4.943  19.663  0.00  0.00    +0.000 C 
ATOM     25  O   UNL     1      -8.007  -5.245  20.610  0.00  0.00    +0.000 OA
ATOM     26  H   UNL     1      -8.809 -11.341  17.739  0.00  0.00    +0.000 HD
ATOM     27  H   UNL     1      -8.183 -11.736  20.099  0.00  0.00    +0.000 HD
ATOM     28  H   UNL     1      -7.871  -9.844  21.657  0.00  0.00    +0.000 HD
ATOM     29  H   UNL     1      -8.261  -7.542  20.929  0.00  0.00    +0.000 HD
ATOM     30  H   UNL     1     -12.721  -3.422  15.683  0.00  0.00    +0.000 HD
ATOM     31  H   UNL     1     -12.549  -2.092  13.579  0.00  0.00    +0.000 HD
ATOM     32  H   UNL     1     -10.417  -2.049  12.323  0.00  0.00    +0.000 HD
ATOM     33  H   UNL     1      -8.673  -3.783  12.769  0.00  0.00    +0.000 HD
ATOM     34  H   UNL     1      -8.794  -6.465  14.056  0.00  0.00    +0.000 HD
ATOM     35  H   UNL     1      -8.823  -2.905  20.026  0.00  0.00    +0.000 HD
ENDROOT
BRANCH   1  36
ATOM     36  C   UNL     1      -9.784  -9.493  15.625  0.00  0.00    +0.000 C 
ATOM     37  H   UNL     1     -10.718  -9.983  15.920  0.00  0.00    +0.000 HD
ATOM     38  H   UNL     1     -10.034  -8.797  14.816  0.00  0.00    +0.000 HD
BRANCH  36  39
ATOM     39  C   UNL     1      -8.770 -10.531  15.109  0.00  0.00    +0.000 C 
ATOM     40  H   UNL     1      -8.424 -10.217  14.117  0.00  0.00    +0.000 HD
ATOM     41  H   UNL     1      -7.869 -10.532  15.730  0.00  0.00    +0.000 HD
BRANCH  39  42
ATOM     42  C   UNL     1      -9.281 -11.976  15.048  0.00  0.00    +0.000 C 
ATOM     43  H   UNL     1     -10.203 -12.046  15.641  0.00  0.00    +0.000 HD
ATOM     44  H   UNL     1      -9.570 -12.189  14.010  0.00  0.00    +0.000 HD
BRANCH  42  45
ATOM     45  N   UNL     1      -8.310 -12.983  15.503  0.00  0.00    +0.000 NA
BRANCH  45  46
ATOM     46  C   UNL     1      -8.348 -13.182  16.953  0.00  0.00    +0.000 C 
ATOM     47  H   UNL     1      -7.896 -12.326  17.466  0.00  0.00    +0.000 HD
ATOM     48  H   UNL     1      -7.816 -14.089  17.263  0.00  0.00    +0.000 HD
ATOM     49  H   UNL     1      -9.376 -13.238  17.320  0.00  0.00    +0.000 HD
ENDBRANCH  45  46
BRANCH  45  50
ATOM     50  C   UNL     1      -8.577 -14.261  14.830  0.00  0.00    +0.000 C 
ATOM     51  H   UNL     1      -8.722 -14.107  13.755  0.00  0.00    +0.000 HD
ATOM     52  H   UNL     1      -9.500 -14.714  15.209  0.00  0.00    +0.000 HD
ATOM     53  H   UNL     1      -7.759 -14.978  14.968  0.00  0.00    +0.000 HD
ENDBRANCH  45  50
ENDBRANCH  42  45
ENDBRANCH  39  42
ENDBRANCH  36  39
ENDBRANCH   1  36
TORSDOF 6
ENDMDL
MODEL 2
REMARK VINA RESULT:    -8.811      2.888      6.799
REMARK INTER + INTRA:         -11.278
REMARK INTER:                 -10.288
REMARK INTRA:                  -0.990
REMARK UNBOUND:                 0.109
REMARK  Name = 
REMARK  6 active torsions:
REMARK  status: ('A' for Active; 'I' for Inactive)
REMARK    1  A    between atoms: C_1  and  N_2
REMARK    2  A    between atoms: N_2  and  C_3
REMARK    3  A    between atoms: N_2  and  C_4
REMARK    4  A    between atoms: C_4  and  C_5
REMARK    5  A    between atoms: C_5  and  C_6
REMARK    6  A    between atoms: C_6  and  N_7
REMARK                            x       y       z     vdW  Elec       q    Type
REMARK                         _______ _______ _______ _____ _____    ______ ____
ROOT
ATOM      1  N   UNL     1     -11.438  -2.372  17.530  0.00  0.00    +0.000 N 
ATOM      2  C   UNL     1     -11.102  -1.293  18.368  0.00  0.00    +0.000 A 
ATOM      3  C   UNL     1     -11.552   0.045  18.366  0.00  0.00    +0.000 A 
ATOM      4  C   UNL     1     -11.004   0.938  19.290  0.00  0.00    +0.000 A 
ATOM      5  C   UNL     1     -10.060   0.512  20.220  0.00  0.00    +0.000 A 
ATOM      6  C   UNL     1      -9.615  -0.802  20.219  0.00  0.00    +0.000 A 
ATOM      7  C   UNL     1     -10.115  -1.722  19.282  0.00  0.00    +0.000 A 
ATOM      8  C   UNL     1      -9.892  -3.035  18.900  0.00  0.00    +0.000 A 
ATOM      9  C   UNL     1      -8.964  -3.942  19.470  0.00  0.00    +0.000 A 
ATOM     10  C   UNL     1      -8.695  -5.155  18.773  0.00  0.00    +0.000 A 
ATOM     11  C   UNL     1      -9.413  -5.421  17.563  0.00  0.00    +0.000 A 
ATOM     12  C   UNL     1      -9.478  -6.686  17.003  0.00  0.00    +0.000 A 
ATOM     13  C   UNL     1      -8.652  -7.559  16.279  0.00  0.00    +0.000 A 
ATOM     14  C   UNL     1      -9.155  -8.822  15.952  0.00  0.00    +0.000 A 
ATOM     15  C   UNL     1     -10.383  -9.242  16.465  0.00  0.00    +0.000 A 
ATOM     16  C   UNL     1     -11.264  -8.332  17.065  0.00  0.00    +0.000 A 
ATOM     17  C   UNL     1     -10.838  -7.002  17.114  0.00  0.00    +0.000 A 
ATOM     18  N   UNL     1     -11.519  -5.781  17.202  0.00  0.00    +0.000 N 
ATOM     19  C   UNL     1     -10.617  -4.786  17.495  0.00  0.00    +0.000 A 
ATOM     20  C   UNL     1     -10.727  -3.478  17.923  0.00  0.00    +0.000 A 
ATOM     21  C   UNL     1      -7.817  -5.951  19.574  0.00  0.00    +0.000 C 
ATOM     22  O   UNL     1      -7.389  -7.093  19.486  0.00  0.00    +0.000 OA
ATOM     23  N   UNL     1      -7.549  -5.135  20.645  0.00  0.00    +0.000 N 
ATOM     24  C   UNL     1      -8.233  -3.951  20.698  0.00  0.00    +0.000 C 
ATOM     25  O   UNL     1      -8.193  -3.214  21.679  0.00  0.00    +0.000 OA
ATOM     26  H   UNL     1     -12.287   0.398  17.650  0.00  0.00    +0.000 HD
ATOM     27  H   UNL     1     -11.311   1.978  19.282  0.00  0.00    +0.000 HD
ATOM     28  H   UNL     1      -9.644   1.214  20.938  0.00  0.00    +0.000 HD
ATOM     29  H   UNL     1      -8.853  -1.099  20.946  0.00  0.00    +0.000 HD
ATOM     30  H   UNL     1      -7.696  -7.222  15.890  0.00  0.00    +0.000 HD
ATOM     31  H   UNL     1      -8.579  -9.483  15.309  0.00  0.00    +0.000 HD
ATOM     32  H   UNL     1     -10.688 -10.278  16.333  0.00  0.00    +0.000 HD
ATOM     33  H   UNL     1     -12.241  -8.646  17.416  0.00  0.00    +0.000 HD
ATOM     34  H   UNL     1     -12.523  -5.691  17.187  0.00  0.00    +0.000 HD
ATOM     35  H   UNL     1      -7.029  -5.466  21.439  0.00  0.00    +0.000 HD
ENDROOT
BRANCH   1  36
ATOM     36  C   UNL     1     -12.242  -2.258  16.318  0.00  0.00    +0.000 C 
ATOM     37  H   UNL     1     -12.632  -3.248  16.061  0.00  0.00    +0.000 HD
ATOM     38  H   UNL     1     -13.106  -1.638  16.585  0.00  0.00    +0.000 HD
BRANCH  36  39
ATOM     39  C   UNL     1     -11.522  -1.631  15.110  0.00  0.00    +0.000 C 
ATOM     40  H   UNL     1     -12.265  -1.414  14.334  0.00  0.00    +0.000 HD
ATOM     41  H   UNL     1     -11.104  -0.655  15.375  0.00  0.00    +0.000 HD
BRANCH  39  42
ATOM     42  C   UNL     1     -10.380  -2.467  14.517  0.00  0.00    +0.000 C 
ATOM     43  H   UNL     1      -9.926  -1.902  13.691  0.00  0.00    +0.000 HD
ATOM     44  H   UNL     1      -9.601  -2.565  15.283  0.00  0.00    +0.000 HD
BRANCH  42  45
ATOM     45  N   UNL     1     -10.783  -3.804  14.054  0.00  0.00    +0.000 NA
BRANCH  45  46
ATOM     46  C   UNL     1     -11.512  -3.760  12.784  0.00  0.00    +0.000 C 
ATOM     47  H   UNL     1     -12.499  -3.306  12.928  0.00  0.00    +0.000 HD
ATOM     48  H   UNL     1     -11.652  -4.757  12.350  0.00  0.00    +0.000 HD
ATOM     49  H   UNL     1     -11.000  -3.129  12.053  0.00  0.00    +0.000 HD
ENDBRANCH  45  46
BRANCH  45  50
ATOM     50  C   UNL     1      -9.593  -4.649  13.901  0.00  0.00    +0.000 C 
ATOM     51  H   UNL     1      -9.711  -5.586  14.456  0.00  0.00    +0.000 HD
ATOM     52  H   UNL     1      -8.707  -4.151  14.310  0.00  0.00    +0.000 HD
ATOM     53  H   UNL     1      -9.395  -4.896  12.850  0.00  0.00    +0.000 HD
ENDBRANCH  45  50
ENDBRANCH  42  45
ENDBRANCH  39  42
ENDBRANCH  36  39
ENDBRANCH   1  36
TORSDOF 6
ENDMDL
MODEL 3
REMARK VINA RESULT:    -8.664      2.584      5.570
REMARK INTER + INTRA:         -11.088
REMARK INTER:                 -10.063
REMARK INTRA:                  -1.025
REMARK UNBOUND:                 0.109
REMARK  Name = 
REMARK  6 active torsions:
REMARK  status: ('A' for Active; 'I' for Inactive)
REMARK    1  A    between atoms: C_1  and  N_2
REMARK    2  A    between atoms: N_2  and  C_3
REMARK    3  A    between atoms: N_2  and  C_4
REMARK    4  A    between atoms: C_4  and  C_5
REMARK    5  A    between atoms: C_5  and  C_6
REMARK    6  A    between atoms: C_6  and  N_7
REMARK                            x       y       z     vdW  Elec       q    Type
REMARK                         _______ _______ _______ _____ _____    ______ ____
ROOT
ATOM      1  N   UNL     1     -10.731  -5.550  16.543  0.00  0.00    +0.000 N 
ATOM      2  C   UNL     1     -10.309  -6.883  16.700  0.00  0.00    +0.000 A 
ATOM      3  C   UNL     1     -10.700  -8.057  16.018  0.00  0.00    +0.000 A 
ATOM      4  C   UNL     1     -10.154  -9.278  16.419  0.00  0.00    +0.000 A 
ATOM      5  C   UNL     1      -9.215  -9.338  17.445  0.00  0.00    +0.000 A 
ATOM      6  C   UNL     1      -8.834  -8.185  18.117  0.00  0.00    +0.000 A 
ATOM      7  C   UNL     1      -9.388  -6.942  17.768  0.00  0.00    +0.000 A 
ATOM      8  C   UNL     1      -9.349  -5.631  18.214  0.00  0.00    +0.000 A 
ATOM      9  C   UNL     1      -8.597  -5.123  19.302  0.00  0.00    +0.000 A 
ATOM     10  C   UNL     1      -8.892  -3.808  19.767  0.00  0.00    +0.000 A 
ATOM     11  C   UNL     1      -9.893  -3.050  19.081  0.00  0.00    +0.000 A 
ATOM     12  C   UNL     1     -10.015  -1.678  19.230  0.00  0.00    +0.000 A 
ATOM     13  C   UNL     1     -10.488  -0.762  20.182  0.00  0.00    +0.000 A 
ATOM     14  C   UNL     1     -10.355   0.602  19.905  0.00  0.00    +0.000 A 
ATOM     15  C   UNL     1      -9.639   1.024  18.784  0.00  0.00    +0.000 A 
ATOM     16  C   UNL     1      -9.291   0.123  17.769  0.00  0.00    +0.000 A 
ATOM     17  C   UNL     1      -9.702  -1.201  17.952  0.00  0.00    +0.000 A 
ATOM     18  N   UNL     1      -9.951  -2.256  17.066  0.00  0.00    +0.000 N 
ATOM     19  C   UNL     1     -10.062  -3.424  17.782  0.00  0.00    +0.000 A 
ATOM     20  C   UNL     1     -10.065  -4.764  17.449  0.00  0.00    +0.000 A 
ATOM     21  C   UNL     1      -7.952  -3.471  20.792  0.00  0.00    +0.000 C 
ATOM     22  O   UNL     1      -7.706  -2.447  21.415  0.00  0.00    +0.000 OA
ATOM     23  N   UNL     1      -7.221  -4.624  20.934  0.00  0.00    +0.000 N 
ATOM     24  C   UNL     1      -7.492  -5.633  20.051  0.00  0.00    +0.000 C 
ATOM     25  O   UNL     1      -6.803  -6.647  19.981  0.00  0.00    +0.000 OA
ATOM     26  H   UNL     1     -11.429  -8.032  15.215  0.00  0.00    +0.000 HD
ATOM     27  H   UNL     1     -10.467 -10.194  15.931  0.00  0.00    +0.000 HD
ATOM     28  H   UNL     1      -8.793 -10.294  17.745  0.00  0.00    +0.000 HD
ATOM     29  H   UNL     1      -8.114  -8.270  18.937  0.00  0.00    +0.000 HD
ATOM     30  H   UNL     1     -11.039  -1.103  21.053  0.00  0.00    +0.000 HD
ATOM     31  H   UNL     1     -10.799   1.334  20.575  0.00  0.00    +0.000 HD
ATOM     32  H   UNL     1      -9.411   2.081  18.667  0.00  0.00    +0.000 HD
ATOM     33  H   UNL     1      -8.782   0.459  16.872  0.00  0.00    +0.000 HD
ATOM     34  H   UNL     1      -9.914  -2.173  16.061  0.00  0.00    +0.000 HD
ATOM     35  H   UNL     1      -6.406  -4.659  21.523  0.00  0.00    +0.000 HD
ENDROOT
BRANCH   1  36
ATOM     36  C   UNL     1     -11.848  -5.130  15.704  0.00  0.00    +0.000 C 
ATOM     37  H   UNL     1     -12.524  -5.981  15.567  0.00  0.00    +0.000 HD
ATOM     38  H   UNL     1     -12.397  -4.380  16.285  0.00  0.00    +0.000 HD
BRANCH  36  39
ATOM     39  C   UNL     1     -11.455  -4.529  14.342  0.00  0.00    +0.000 C 
ATOM     40  H   UNL     1     -10.394  -4.738  14.161  0.00  0.00    +0.000 HD
ATOM     41  H   UNL     1     -11.981  -5.039  13.529  0.00  0.00    +0.000 HD
BRANCH  39  42
ATOM     42  C   UNL     1     -11.723  -3.026  14.184  0.00  0.00    +0.000 C 
ATOM     43  H   UNL     1     -12.346  -2.876  13.291  0.00  0.00    +0.000 HD
ATOM     44  H   UNL     1     -12.332  -2.701  15.037  0.00  0.00    +0.000 HD
BRANCH  42  45
ATOM     45  N   UNL     1     -10.511  -2.198  14.100  0.00  0.00    +0.000 NA
BRANCH  45  46
ATOM     46  C   UNL     1      -9.380  -2.919  13.513  0.00  0.00    +0.000 C 
ATOM     47  H   UNL     1      -8.674  -2.214  13.058  0.00  0.00    +0.000 HD
ATOM     48  H   UNL     1      -9.695  -3.634  12.744  0.00  0.00    +0.000 HD
ATOM     49  H   UNL     1      -8.810  -3.456  14.276  0.00  0.00    +0.000 HD
ENDBRANCH  45  46
BRANCH  45  50
ATOM     50  C   UNL     1     -10.791  -0.999  13.300  0.00  0.00    +0.000 C 
ATOM     51  H   UNL     1     -11.852  -0.955  13.031  0.00  0.00    +0.000 HD
ATOM     52  H   UNL     1     -10.229  -1.019  12.360  0.00  0.00    +0.000 HD
ATOM     53  H   UNL     1     -10.534  -0.077  13.836  0.00  0.00    +0.000 HD
ENDBRANCH  45  50
ENDBRANCH  42  45
ENDBRANCH  39  42
ENDBRANCH  36  39
ENDBRANCH   1  36
TORSDOF 6
ENDMDL
MODEL 4
REMARK VINA RESULT:    -8.482      3.160      8.212
REMARK INTER + INTRA:         -10.853
REMARK INTER:                  -9.882
REMARK INTRA:                  -0.971
REMARK UNBOUND:                 0.109
REMARK  Name = 
REMARK  6 active torsions:
REMARK  status: ('A' for Active; 'I' for Inactive)
REMARK    1  A    between atoms: C_1  and  N_2
REMARK    2  A    between atoms: N_2  and  C_3
REMARK    3  A    between atoms: N_2  and  C_4
REMARK    4  A    between atoms: C_4  and  C_5
REMARK    5  A    between atoms: C_5  and  C_6
REMARK    6  A    between atoms: C_6  and  N_7
REMARK                            x       y       z     vdW  Elec       q    Type
REMARK                         _______ _______ _______ _____ _____    ______ ____
ROOT
ATOM      1  N   UNL     1     -11.109  -1.996  18.428  0.00  0.00    +0.000 N 
ATOM      2  C   UNL     1     -11.487  -1.149  17.371  0.00  0.00    +0.000 A 
ATOM      3  C   UNL     1     -12.096   0.125  17.388  0.00  0.00    +0.000 A 
ATOM      4  C   UNL     1     -12.418   0.730  16.171  0.00  0.00    +0.000 A 
ATOM      5  C   UNL     1     -12.114   0.110  14.962  0.00  0.00    +0.000 A 
ATOM      6  C   UNL     1     -11.519  -1.144  14.947  0.00  0.00    +0.000 A 
ATOM      7  C   UNL     1     -11.212  -1.802  16.150  0.00  0.00    +0.000 A 
ATOM      8  C   UNL     1     -10.720  -3.030  16.561  0.00  0.00    +0.000 A 
ATOM      9  C   UNL     1     -10.309  -4.103  15.732  0.00  0.00    +0.000 A 
ATOM     10  C   UNL     1     -10.084  -5.372  16.340  0.00  0.00    +0.000 A 
ATOM     11  C   UNL     1     -10.231  -5.485  17.759  0.00  0.00    +0.000 A 
ATOM     12  C   UNL     1      -9.719  -6.556  18.475  0.00  0.00    +0.000 A 
ATOM     13  C   UNL     1     -10.016  -7.910  18.698  0.00  0.00    +0.000 A 
ATOM     14  C   UNL     1      -9.142  -8.651  19.499  0.00  0.00    +0.000 A 
ATOM     15  C   UNL     1      -7.939  -8.091  19.931  0.00  0.00    +0.000 A 
ATOM     16  C   UNL     1      -7.708  -6.712  19.828  0.00  0.00    +0.000 A 
ATOM     17  C   UNL     1      -8.743  -5.952  19.276  0.00  0.00    +0.000 A 
ATOM     18  N   UNL     1      -9.104  -4.604  19.386  0.00  0.00    +0.000 N 
ATOM     19  C   UNL     1     -10.037  -4.311  18.421  0.00  0.00    +0.000 A 
ATOM     20  C   UNL     1     -10.560  -3.140  17.906  0.00  0.00    +0.000 A 
ATOM     21  C   UNL     1      -9.585  -6.268  15.342  0.00  0.00    +0.000 C 
ATOM     22  O   UNL     1      -9.139  -7.407  15.370  0.00  0.00    +0.000 OA
ATOM     23  N   UNL     1      -9.628  -5.512  14.197  0.00  0.00    +0.000 N 
ATOM     24  C   UNL     1      -9.986  -4.200  14.344  0.00  0.00    +0.000 C 
ATOM     25  O   UNL     1      -9.910  -3.393  13.422  0.00  0.00    +0.000 OA
ATOM     26  H   UNL     1     -12.341   0.627  18.319  0.00  0.00    +0.000 HD
ATOM     27  H   UNL     1     -12.917   1.693  16.163  0.00  0.00    +0.000 HD
ATOM     28  H   UNL     1     -12.365   0.593  14.022  0.00  0.00    +0.000 HD
ATOM     29  H   UNL     1     -11.316  -1.616  13.980  0.00  0.00    +0.000 HD
ATOM     30  H   UNL     1     -10.953  -8.335  18.352  0.00  0.00    +0.000 HD
ATOM     31  H   UNL     1      -9.396  -9.672  19.772  0.00  0.00    +0.000 HD
ATOM     32  H   UNL     1      -7.202  -8.725  20.417  0.00  0.00    +0.000 HD
ATOM     33  H   UNL     1      -6.797  -6.267  20.213  0.00  0.00    +0.000 HD
ATOM     34  H   UNL     1      -8.643  -3.942  19.991  0.00  0.00    +0.000 HD
ATOM     35  H   UNL     1      -9.238  -5.847  13.333  0.00  0.00    +0.000 HD
ENDROOT
BRANCH   1  36
ATOM     36  C   UNL     1     -11.452  -1.773  19.829  0.00  0.00    +0.000 C 
ATOM     37  H   UNL     1     -12.483  -1.413  19.885  0.00  0.00    +0.000 HD
ATOM     38  H   UNL     1     -11.435  -2.761  20.305  0.00  0.00    +0.000 HD
BRANCH  36  39
ATOM     39  C   UNL     1     -10.507  -0.827  20.592  0.00  0.00    +0.000 C 
ATOM     40  H   UNL     1     -10.537   0.158  20.113  0.00  0.00    +0.000 HD
ATOM     41  H   UNL     1     -10.873  -0.653  21.609  0.00  0.00    +0.000 HD
BRANCH  39  42
ATOM     42  C   UNL     1      -9.053  -1.303  20.711  0.00  0.00    +0.000 C 
ATOM     43  H   UNL     1      -8.688  -1.562  19.706  0.00  0.00    +0.000 HD
ATOM     44  H   UNL     1      -8.445  -0.453  21.045  0.00  0.00    +0.000 HD
BRANCH  42  45
ATOM     45  N   UNL     1      -8.857  -2.437  21.627  0.00  0.00    +0.000 NA
BRANCH  45  46
ATOM     46  C   UNL     1      -7.442  -2.718  21.877  0.00  0.00    +0.000 C 
ATOM     47  H   UNL     1      -6.927  -1.809  22.209  0.00  0.00    +0.000 HD
ATOM     48  H   UNL     1      -6.929  -3.098  20.986  0.00  0.00    +0.000 HD
ATOM     49  H   UNL     1      -7.317  -3.442  22.687  0.00  0.00    +0.000 HD
ENDBRANCH  45  46
BRANCH  45  50
ATOM     50  C   UNL     1      -9.529  -2.157  22.903  0.00  0.00    +0.000 C 
ATOM     51  H   UNL     1      -9.970  -3.071  23.315  0.00  0.00    +0.000 HD
ATOM     52  H   UNL     1     -10.352  -1.448  22.761  0.00  0.00    +0.000 HD
ATOM     53  H   UNL     1      -8.840  -1.741  23.648  0.00  0.00    +0.000 HD
ENDBRANCH  45  50
ENDBRANCH  42  45
ENDBRANCH  39  42
ENDBRANCH  36  39
ENDBRANCH   1  36
TORSDOF 6
ENDMDL
MODEL 5
REMARK VINA RESULT:    -8.355      4.392      8.146
REMARK INTER + INTRA:         -10.688
REMARK INTER:                  -9.691
REMARK INTRA:                  -0.997
REMARK UNBOUND:                 0.109
REMARK  Name = 
REMARK  6 active torsions:
REMARK  status: ('A' for Active; 'I' for Inactive)
REMARK    1  A    between atoms: C_1  and  N_2
REMARK    2  A    between atoms: N_2  and  C_3
REMARK    3  A    between atoms: N_2  and  C_4
REMARK    4  A    between atoms: C_4  and  C_5
REMARK    5  A    between atoms: C_5  and  C_6
REMARK    6  A    between atoms: C_6  and  N_7
REMARK                            x       y       z     vdW  Elec       q    Type
REMARK                         _______ _______ _______ _____ _____    ______ ____
ROOT
ATOM      1  N   UNL     1     -10.351  -1.158  19.477  0.00  0.00    +0.000 N 
ATOM      2  C   UNL     1     -11.279  -0.417  20.231  0.00  0.00    +0.000 A 
ATOM      3  C   UNL     1     -12.223   0.552  19.830  0.00  0.00    +0.000 A 
ATOM      4  C   UNL     1     -12.993   1.184  20.810  0.00  0.00    +0.000 A 
ATOM      5  C   UNL     1     -12.861   0.841  22.153  0.00  0.00    +0.000 A 
ATOM      6  C   UNL     1     -11.929  -0.109  22.547  0.00  0.00    +0.000 A 
ATOM      7  C   UNL     1     -11.110  -0.741  21.595  0.00  0.00    +0.000 A 
ATOM      8  C   UNL     1     -10.053  -1.635  21.572  0.00  0.00    +0.000 A 
ATOM      9  C   UNL     1      -9.443  -2.262  22.687  0.00  0.00    +0.000 A 
ATOM     10  C   UNL     1      -8.206  -2.939  22.482  0.00  0.00    +0.000 A 
ATOM     11  C   UNL     1      -7.670  -2.998  21.156  0.00  0.00    +0.000 A 
ATOM     12  C   UNL     1      -6.678  -3.896  20.796  0.00  0.00    +0.000 A 
ATOM     13  C   UNL     1      -5.296  -4.063  20.974  0.00  0.00    +0.000 A 
ATOM     14  C   UNL     1      -4.699  -5.210  20.443  0.00  0.00    +0.000 A 
ATOM     15  C   UNL     1      -5.487  -6.219  19.888  0.00  0.00    +0.000 A 
ATOM     16  C   UNL     1      -6.837  -5.996  19.586  0.00  0.00    +0.000 A 
ATOM     17  C   UNL     1      -7.331  -4.720  19.872  0.00  0.00    +0.000 A 
ATOM     18  N   UNL     1      -8.399  -3.972  19.364  0.00  0.00    +0.000 N 
ATOM     19  C   UNL     1      -8.617  -2.889  20.183  0.00  0.00    +0.000 A 
ATOM     20  C   UNL     1      -9.641  -1.973  20.322  0.00  0.00    +0.000 A 
ATOM     21  C   UNL     1      -7.832  -3.575  23.708  0.00  0.00    +0.000 C 
ATOM     22  O   UNL     1      -6.943  -4.354  24.025  0.00  0.00    +0.000 OA
ATOM     23  N   UNL     1      -8.811  -3.168  24.580  0.00  0.00    +0.000 N 
ATOM     24  C   UNL     1      -9.839  -2.439  24.048  0.00  0.00    +0.000 C 
ATOM     25  O   UNL     1     -10.843  -2.153  24.694  0.00  0.00    +0.000 OA
ATOM     26  H   UNL     1     -12.343   0.834  18.789  0.00  0.00    +0.000 HD
ATOM     27  H   UNL     1     -13.700   1.956  20.526  0.00  0.00    +0.000 HD
ATOM     28  H   UNL     1     -13.469   1.336  22.906  0.00  0.00    +0.000 HD
ATOM     29  H   UNL     1     -11.832  -0.337  23.613  0.00  0.00    +0.000 HD
ATOM     30  H   UNL     1      -4.695  -3.272  21.412  0.00  0.00    +0.000 HD
ATOM     31  H   UNL     1      -3.618  -5.320  20.477  0.00  0.00    +0.000 HD
ATOM     32  H   UNL     1      -5.026  -7.168  19.623  0.00  0.00    +0.000 HD
ATOM     33  H   UNL     1      -7.437  -6.760  19.105  0.00  0.00    +0.000 HD
ATOM     34  H   UNL     1      -8.987  -4.269  18.600  0.00  0.00    +0.000 HD
ATOM     35  H   UNL     1      -8.872  -3.542  25.512  0.00  0.00    +0.000 HD
ENDROOT
BRANCH   1  36
ATOM     36  C   UNL     1     -10.060  -0.926  18.066  0.00  0.00    +0.000 C 
ATOM     37  H   UNL     1     -10.057   0.153  17.881  0.00  0.00    +0.000 HD
ATOM     38  H   UNL     1      -9.033  -1.276  17.908  0.00  0.00    +0.000 HD
BRANCH  36  39
ATOM     39  C   UNL     1     -10.998  -1.641  17.076  0.00  0.00    +0.000 C 
ATOM     40  H   UNL     1     -11.867  -0.999  16.892  0.00  0.00    +0.000 HD
ATOM     41  H   UNL     1     -10.518  -1.746  16.098  0.00  0.00    +0.000 HD
BRANCH  39  42
ATOM     42  C   UNL     1     -11.465  -3.038  17.505  0.00  0.00    +0.000 C 
ATOM     43  H   UNL     1     -11.538  -3.060  18.602  0.00  0.00    +0.000 HD
ATOM     44  H   UNL     1     -12.486  -3.182  17.130  0.00  0.00    +0.000 HD
BRANCH  42  45
ATOM     45  N   UNL     1     -10.609  -4.137  17.033  0.00  0.00    +0.000 NA
BRANCH  45  46
ATOM     46  C   UNL     1     -11.030  -5.439  17.554  0.00  0.00    +0.000 C 
ATOM     47  H   UNL     1     -11.237  -5.370  18.628  0.00  0.00    +0.000 HD
ATOM     48  H   UNL     1     -10.272  -6.215  17.397  0.00  0.00    +0.000 HD
ATOM     49  H   UNL     1     -11.966  -5.767  17.093  0.00  0.00    +0.000 HD
ENDBRANCH  45  46
BRANCH  45  50
ATOM     50  C   UNL     1     -10.623  -4.173  15.565  0.00  0.00    +0.000 C 
ATOM     51  H   UNL     1     -11.268  -3.383  15.167  0.00  0.00    +0.000 HD
ATOM     52  H   UNL     1     -11.031  -5.123  15.204  0.00  0.00    +0.000 HD
ATOM     53  H   UNL     1      -9.620  -4.044  15.141  0.00  0.00    +0.000 HD
ENDBRANCH  45  50
ENDBRANCH  42  45
ENDBRANCH  39  42
ENDBRANCH  36  39
ENDBRANCH   1  36
TORSDOF 6
ENDMDL
MODEL 6
REMARK VINA RESULT:    -8.336      3.397      6.511
REMARK INTER + INTRA:         -10.664
REMARK INTER:                  -9.911
REMARK INTRA:                  -0.753
REMARK UNBOUND:                 0.109
REMARK  Name = 
REMARK  6 active torsions:
REMARK  status: ('A' for Active; 'I' for Inactive)
REMARK    1  A    between atoms: C_1  and  N_2
REMARK    2  A    between atoms: N_2  and  C_3
REMARK    3  A    between atoms: N_2  and  C_4
REMARK    4  A    between atoms: C_4  and  C_5
REMARK    5  A    between atoms: C_5  and  C_6
REMARK    6  A    between atoms: C_6  and  N_7
REMARK                            x       y       z     vdW  Elec       q    Type
REMARK                         _______ _______ _______ _____ _____    ______ ____
ROOT
ATOM      1  N   UNL     1     -10.602  -4.011  18.113  0.00  0.00    +0.000 N 
ATOM      2  C   UNL     1      -9.863  -5.193  17.922  0.00  0.00    +0.000 A 
ATOM      3  C   UNL     1     -10.083  -6.284  17.053  0.00  0.00    +0.000 A 
ATOM      4  C   UNL     1      -9.210  -7.372  17.108  0.00  0.00    +0.000 A 
ATOM      5  C   UNL     1      -8.120  -7.370  17.975  0.00  0.00    +0.000 A 
ATOM      6  C   UNL     1      -7.907  -6.299  18.832  0.00  0.00    +0.000 A 
ATOM      7  C   UNL     1      -8.784  -5.201  18.833  0.00  0.00    +0.000 A 
ATOM      8  C   UNL     1      -8.973  -4.029  19.546  0.00  0.00    +0.000 A 
ATOM      9  C   UNL     1      -8.183  -3.548  20.619  0.00  0.00    +0.000 A 
ATOM     10  C   UNL     1      -8.689  -2.463  21.392  0.00  0.00    +0.000 A 
ATOM     11  C   UNL     1      -9.941  -1.881  21.015  0.00  0.00    +0.000 A 
ATOM     12  C   UNL     1     -10.350  -0.639  21.474  0.00  0.00    +0.000 A 
ATOM     13  C   UNL     1     -10.850  -0.067  22.653  0.00  0.00    +0.000 A 
ATOM     14  C   UNL     1     -11.086   1.311  22.667  0.00  0.00    +0.000 A 
ATOM     15  C   UNL     1     -10.690   2.102  21.588  0.00  0.00    +0.000 A 
ATOM     16  C   UNL     1     -10.323   1.522  20.365  0.00  0.00    +0.000 A 
ATOM     17  C   UNL     1     -10.379   0.127  20.303  0.00  0.00    +0.000 A 
ATOM     18  N   UNL     1     -10.526  -0.778  19.244  0.00  0.00    +0.000 N 
ATOM     19  C   UNL     1     -10.240  -2.044  19.696  0.00  0.00    +0.000 A 
ATOM     20  C   UNL     1      -9.990  -3.256  19.081  0.00  0.00    +0.000 A 
ATOM     21  C   UNL     1      -7.691  -2.083  22.345  0.00  0.00    +0.000 C 
ATOM     22  O   UNL     1      -7.585  -1.162  23.142  0.00  0.00    +0.000 OA
ATOM     23  N   UNL     1      -6.700  -3.011  22.142  0.00  0.00    +0.000 N 
ATOM     24  C   UNL     1      -6.878  -3.879  21.099  0.00  0.00    +0.000 C 
ATOM     25  O   UNL     1      -5.996  -4.647  20.727  0.00  0.00    +0.000 OA
ATOM     26  H   UNL     1     -10.926  -6.306  16.369  0.00  0.00    +0.000 HD
ATOM     27  H   UNL     1      -9.382  -8.234  16.474  0.00  0.00    +0.000 HD
ATOM     28  H   UNL     1      -7.444  -8.220  18.006  0.00  0.00    +0.000 HD
ATOM     29  H   UNL     1      -7.056  -6.339  19.520  0.00  0.00    +0.000 HD
ATOM     30  H   UNL     1     -11.149  -0.693  23.489  0.00  0.00    +0.000 HD
ATOM     31  H   UNL     1     -11.565   1.768  23.529  0.00  0.00    +0.000 HD
ATOM     32  H   UNL     1     -10.736   3.185  21.677  0.00  0.00    +0.000 HD
ATOM     33  H   UNL     1     -10.068   2.136  19.509  0.00  0.00    +0.000 HD
ATOM     34  H   UNL     1     -10.683  -0.508  18.286  0.00  0.00    +0.000 HD
ATOM     35  H   UNL     1      -5.811  -2.939  22.606  0.00  0.00    +0.000 HD
ENDROOT
BRANCH   1  36
ATOM     36  C   UNL     1     -11.913  -3.753  17.527  0.00  0.00    +0.000 C 
ATOM     37  H   UNL     1     -12.334  -4.700  17.176  0.00  0.00    +0.000 HD
ATOM     38  H   UNL     1     -12.550  -3.410  18.351  0.00  0.00    +0.000 HD
BRANCH  36  39
ATOM     39  C   UNL     1     -11.933  -2.703  16.401  0.00  0.00    +0.000 C 
ATOM     40  H   UNL     1     -12.920  -2.719  15.925  0.00  0.00    +0.000 HD
ATOM     41  H   UNL     1     -11.839  -1.693  16.813  0.00  0.00    +0.000 HD
BRANCH  39  42
ATOM     42  C   UNL     1     -10.840  -2.861  15.335  0.00  0.00    +0.000 C 
ATOM     43  H   UNL     1     -10.783  -1.930  14.753  0.00  0.00    +0.000 HD
ATOM     44  H   UNL     1      -9.876  -2.955  15.852  0.00  0.00    +0.000 HD
BRANCH  42  45
ATOM     45  N   UNL     1     -11.029  -4.009  14.436  0.00  0.00    +0.000 NA
BRANCH  45  46
ATOM     46  C   UNL     1     -11.889  -3.690  13.295  0.00  0.00    +0.000 C 
ATOM     47  H   UNL     1     -12.910  -4.044  13.478  0.00  0.00    +0.000 HD
ATOM     48  H   UNL     1     -11.530  -4.142  12.363  0.00  0.00    +0.000 HD
ATOM     49  H   UNL     1     -11.973  -2.610  13.148  0.00  0.00    +0.000 HD
ENDBRANCH  45  46
BRANCH  45  50
ATOM     50  C   UNL     1      -9.723  -4.467  13.946  0.00  0.00    +0.000 C 
ATOM     51  H   UNL     1      -9.437  -5.406  14.433  0.00  0.00    +0.000 HD
ATOM     52  H   UNL     1      -8.941  -3.739  14.183  0.00  0.00    +0.000 HD
ATOM     53  H   UNL     1      -9.725  -4.631  12.861  0.00  0.00    +0.000 HD
ENDBRANCH  45  50
ENDBRANCH  42  45
ENDBRANCH  39  42
ENDBRANCH  36  39
ENDBRANCH   1  36
TORSDOF 6
ENDMDL
MODEL 7
REMARK VINA RESULT:    -8.331      3.057      6.455
REMARK INTER + INTRA:         -10.657
REMARK INTER:                  -9.663
REMARK INTRA:                  -0.994
REMARK UNBOUND:                 0.109
REMARK  Name = 
REMARK  6 active torsions:
REMARK  status: ('A' for Active; 'I' for Inactive)
REMARK    1  A    between atoms: C_1  and  N_2
REMARK    2  A    between atoms: N_2  and  C_3
REMARK    3  A    between atoms: N_2  and  C_4
REMARK    4  A    between atoms: C_4  and  C_5
REMARK    5  A    between atoms: C_5  and  C_6
REMARK    6  A    between atoms: C_6  and  N_7
REMARK                            x       y       z     vdW  Elec       q    Type
REMARK                         _______ _______ _______ _____ _____    ______ ____
ROOT
ATOM      1  N   UNL     1      -8.992  -5.714  19.232  0.00  0.00    +0.000 N 
ATOM      2  C   UNL     1      -9.135  -6.782  18.328  0.00  0.00    +0.000 A 
ATOM      3  C   UNL     1      -8.663  -8.111  18.394  0.00  0.00    +0.000 A 
ATOM      4  C   UNL     1      -8.904  -8.962  17.314  0.00  0.00    +0.000 A 
ATOM      5  C   UNL     1      -9.626  -8.525  16.207  0.00  0.00    +0.000 A 
ATOM      6  C   UNL     1     -10.086  -7.217  16.141  0.00  0.00    +0.000 A 
ATOM      7  C   UNL     1      -9.833  -6.319  17.191  0.00  0.00    +0.000 A 
ATOM      8  C   UNL     1     -10.029  -4.978  17.475  0.00  0.00    +0.000 A 
ATOM      9  C   UNL     1     -10.663  -4.016  16.649  0.00  0.00    +0.000 A 
ATOM     10  C   UNL     1     -10.533  -2.641  16.998  0.00  0.00    +0.000 A 
ATOM     11  C   UNL     1      -9.817  -2.304  18.191  0.00  0.00    +0.000 A 
ATOM     12  C   UNL     1      -9.919  -1.058  18.789  0.00  0.00    +0.000 A 
ATOM     13  C   UNL     1      -9.462   0.251  18.576  0.00  0.00    +0.000 A 
ATOM     14  C   UNL     1      -9.883   1.247  19.463  0.00  0.00    +0.000 A 
ATOM     15  C   UNL     1     -10.845   0.963  20.433  0.00  0.00    +0.000 A 
ATOM     16  C   UNL     1     -11.195  -0.360  20.736  0.00  0.00    +0.000 A 
ATOM     17  C   UNL     1     -10.528  -1.355  20.014  0.00  0.00    +0.000 A 
ATOM     18  N   UNL     1     -10.249  -2.702  20.276  0.00  0.00    +0.000 N 
ATOM     19  C   UNL     1      -9.809  -3.300  19.119  0.00  0.00    +0.000 A 
ATOM     20  C   UNL     1      -9.623  -4.609  18.718  0.00  0.00    +0.000 A 
ATOM     21  C   UNL     1     -11.328  -1.868  16.093  0.00  0.00    +0.000 C 
ATOM     22  O   UNL     1     -11.643  -0.688  16.034  0.00  0.00    +0.000 OA
ATOM     23  N   UNL     1     -11.805  -2.811  15.217  0.00  0.00    +0.000 N 
ATOM     24  C   UNL     1     -11.512  -4.117  15.504  0.00  0.00    +0.000 C 
ATOM     25  O   UNL     1     -12.010  -5.052  14.884  0.00  0.00    +0.000 OA
ATOM     26  H   UNL     1      -8.098  -8.472  19.248  0.00  0.00    +0.000 HD
ATOM     27  H   UNL     1      -8.520  -9.976  17.331  0.00  0.00    +0.000 HD
ATOM     28  H   UNL     1      -9.812  -9.198  15.374  0.00  0.00    +0.000 HD
ATOM     29  H   UNL     1     -10.628  -6.897  15.245  0.00  0.00    +0.000 HD
ATOM     30  H   UNL     1      -8.717   0.461  17.814  0.00  0.00    +0.000 HD
ATOM     31  H   UNL     1      -9.469   2.249  19.384  0.00  0.00    +0.000 HD
ATOM     32  H   UNL     1     -11.276   1.778  21.009  0.00  0.00    +0.000 HD
ATOM     33  H   UNL     1     -11.901  -0.586  21.526  0.00  0.00    +0.000 HD
ATOM     34  H   UNL     1     -10.473  -3.169  21.141  0.00  0.00    +0.000 HD
ATOM     35  H   UNL     1     -12.486  -2.578  14.515  0.00  0.00    +0.000 HD
ENDROOT
BRANCH   1  36
ATOM     36  C   UNL     1      -8.130  -5.737  20.409  0.00  0.00    +0.000 C 
ATOM     37  H   UNL     1      -8.744  -5.562  21.298  0.00  0.00    +0.000 HD
ATOM     38  H   UNL     1      -7.749  -6.762  20.484  0.00  0.00    +0.000 HD
BRANCH  36  39
ATOM     39  C   UNL     1      -6.943  -4.756  20.371  0.00  0.00    +0.000 C 
ATOM     40  H   UNL     1      -6.050  -5.301  20.044  0.00  0.00    +0.000 HD
ATOM     41  H   UNL     1      -7.099  -3.992  19.603  0.00  0.00    +0.000 HD
BRANCH  39  42
ATOM     42  C   UNL     1      -6.652  -4.024  21.687  0.00  0.00    +0.000 C 
ATOM     43  H   UNL     1      -6.289  -4.757  22.421  0.00  0.00    +0.000 HD
ATOM     44  H   UNL     1      -5.818  -3.332  21.511  0.00  0.00    +0.000 HD
BRANCH  42  45
ATOM     45  N   UNL     1      -7.797  -3.283  22.237  0.00  0.00    +0.000 NA
BRANCH  45  46
ATOM     46  C   UNL     1      -8.145  -3.715  23.592  0.00  0.00    +0.000 C 
ATOM     47  H   UNL     1      -9.215  -3.944  23.655  0.00  0.00    +0.000 HD
ATOM     48  H   UNL     1      -7.912  -2.953  24.345  0.00  0.00    +0.000 HD
ATOM     49  H   UNL     1      -7.628  -4.640  23.860  0.00  0.00    +0.000 HD
ENDBRANCH  45  46
BRANCH  45  50
ATOM     50  C   UNL     1      -7.492  -1.847  22.248  0.00  0.00    +0.000 C 
ATOM     51  H   UNL     1      -8.314  -1.282  22.701  0.00  0.00    +0.000 HD
ATOM     52  H   UNL     1      -7.375  -1.466  21.228  0.00  0.00    +0.000 HD
ATOM     53  H   UNL     1      -6.575  -1.625  22.807  0.00  0.00    +0.000 HD
ENDBRANCH  45  50
ENDBRANCH  42  45
ENDBRANCH  39  42
ENDBRANCH  36  39
ENDBRANCH   1  36
TORSDOF 6
ENDMDL
MODEL 8
REMARK VINA RESULT:    -8.295      1.596      2.511
REMARK INTER + INTRA:         -10.611
REMARK INTER:                 -10.089
REMARK INTRA:                  -0.523
REMARK UNBOUND:                 0.109
REMARK  Name = 
REMARK  6 active torsions:
REMARK  status: ('A' for Active; 'I' for Inactive)
REMARK    1  A    between atoms: C_1  and  N_2
REMARK    2  A    between atoms: N_2  and  C_3
REMARK    3  A    between atoms: N_2  and  C_4
REMARK    4  A    between atoms: C_4  and  C_5
REMARK    5  A    between atoms: C_5  and  C_6
REMARK    6  A    between atoms: C_6  and  N_7
REMARK                            x       y       z     vdW  Elec       q    Type
REMARK                         _______ _______ _______ _____ _____    ______ ____
ROOT
ATOM      1  N   UNL     1      -9.128  -6.942  16.167  0.00  0.00    +0.000 N 
ATOM      2  C   UNL     1      -8.833  -6.972  17.543  0.00  0.00    +0.000 A 
ATOM      3  C   UNL     1      -8.245  -7.982  18.334  0.00  0.00    +0.000 A 
ATOM      4  C   UNL     1      -8.117  -7.767  19.708  0.00  0.00    +0.000 A 
ATOM      5  C   UNL     1      -8.527  -6.568  20.285  0.00  0.00    +0.000 A 
ATOM      6  C   UNL     1      -9.109  -5.578  19.507  0.00  0.00    +0.000 A 
ATOM      7  C   UNL     1      -9.289  -5.770  18.127  0.00  0.00    +0.000 A 
ATOM      8  C   UNL     1      -9.871  -5.108  17.058  0.00  0.00    +0.000 A 
ATOM      9  C   UNL     1     -10.519  -3.849  17.086  0.00  0.00    +0.000 A 
ATOM     10  C   UNL     1     -11.282  -3.461  15.946  0.00  0.00    +0.000 A 
ATOM     11  C   UNL     1     -11.310  -4.334  14.813  0.00  0.00    +0.000 A 
ATOM     12  C   UNL     1     -11.727  -3.912  13.561  0.00  0.00    +0.000 A 
ATOM     13  C   UNL     1     -12.926  -3.605  12.901  0.00  0.00    +0.000 A 
ATOM     14  C   UNL     1     -12.853  -3.147  11.582  0.00  0.00    +0.000 A 
ATOM     15  C   UNL     1     -11.613  -2.866  11.005  0.00  0.00    +0.000 A 
ATOM     16  C   UNL     1     -10.423  -3.298  11.605  0.00  0.00    +0.000 A 
ATOM     17  C   UNL     1     -10.559  -4.017  12.797  0.00  0.00    +0.000 A 
ATOM     18  N   UNL     1      -9.746  -4.953  13.448  0.00  0.00    +0.000 N 
ATOM     19  C   UNL     1     -10.218  -5.144  14.724  0.00  0.00    +0.000 A 
ATOM     20  C   UNL     1      -9.710  -5.737  15.863  0.00  0.00    +0.000 A 
ATOM     21  C   UNL     1     -11.756  -2.127  16.154  0.00  0.00    +0.000 C 
ATOM     22  O   UNL     1     -12.341  -1.314  15.452  0.00  0.00    +0.000 OA
ATOM     23  N   UNL     1     -11.328  -1.840  17.427  0.00  0.00    +0.000 N 
ATOM     24  C   UNL     1     -10.536  -2.778  18.031  0.00  0.00    +0.000 C 
ATOM     25  O   UNL     1      -9.970  -2.567  19.100  0.00  0.00    +0.000 OA
ATOM     26  H   UNL     1      -7.918  -8.923  17.905  0.00  0.00    +0.000 HD
ATOM     27  H   UNL     1      -7.699  -8.544  20.339  0.00  0.00    +0.000 HD
ATOM     28  H   UNL     1      -8.418  -6.411  21.355  0.00  0.00    +0.000 HD
ATOM     29  H   UNL     1      -9.445  -4.657  19.995  0.00  0.00    +0.000 HD
ATOM     30  H   UNL     1     -13.884  -3.824  13.362  0.00  0.00    +0.000 HD
ATOM     31  H   UNL     1     -13.765  -2.996  11.011  0.00  0.00    +0.000 HD
ATOM     32  H   UNL     1     -11.578  -2.364  10.040  0.00  0.00    +0.000 HD
ATOM     33  H   UNL     1      -9.463  -3.128  11.132  0.00  0.00    +0.000 HD
ATOM     34  H   UNL     1      -8.881  -5.311  13.071  0.00  0.00    +0.000 HD
ATOM     35  H   UNL     1     -11.429  -0.920  17.819  0.00  0.00    +0.000 HD
ENDROOT
BRANCH   1  36
ATOM     36  C   UNL     1      -9.026  -8.093  15.275  0.00  0.00    +0.000 C 
ATOM     37  H   UNL     1      -8.895  -7.731  14.251  0.00  0.00    +0.000 HD
ATOM     38  H   UNL     1      -8.097  -8.607  15.551  0.00  0.00    +0.000 HD
BRANCH  36  39
ATOM     39  C   UNL     1     -10.198  -9.088  15.352  0.00  0.00    +0.000 C 
ATOM     40  H   UNL     1     -11.128  -8.523  15.488  0.00  0.00    +0.000 HD
ATOM     41  H   UNL     1     -10.326  -9.607  14.397  0.00  0.00    +0.000 HD
BRANCH  39  42
ATOM     42  C   UNL     1     -10.079 -10.163  16.440  0.00  0.00    +0.000 C 
ATOM     43  H   UNL     1     -10.163  -9.676  17.422  0.00  0.00    +0.000 HD
ATOM     44  H   UNL     1     -10.948 -10.827  16.355  0.00  0.00    +0.000 HD
BRANCH  42  45
ATOM     45  N   UNL     1      -8.844 -10.959  16.375  0.00  0.00    +0.000 NA
BRANCH  45  46
ATOM     46  C   UNL     1      -8.620 -11.745  17.590  0.00  0.00    +0.000 C 
ATOM     47  H   UNL     1      -9.577 -12.051  18.027  0.00  0.00    +0.000 HD
ATOM     48  H   UNL     1      -8.057 -11.189  18.348  0.00  0.00    +0.000 HD
ATOM     49  H   UNL     1      -8.086 -12.674  17.370  0.00  0.00    +0.000 HD
ENDBRANCH  45  46
BRANCH  45  50
ATOM     50  C   UNL     1      -8.902 -11.860  15.218  0.00  0.00    +0.000 C 
ATOM     51  H   UNL     1      -9.573 -11.458  14.450  0.00  0.00    +0.000 HD
ATOM     52  H   UNL     1      -9.304 -12.837  15.505  0.00  0.00    +0.000 HD
ATOM     53  H   UNL     1      -7.915 -12.012  14.764  0.00  0.00    +0.000 HD
ENDBRANCH  45  50
ENDBRANCH  42  45
ENDBRANCH  39  42
ENDBRANCH  36  39
ENDBRANCH   1  36
TORSDOF 6
ENDMDL
MODEL 9
REMARK VINA RESULT:    -8.067      4.990      8.908
REMARK INTER + INTRA:         -10.316
REMARK INTER:                  -9.569
REMARK INTRA:                  -0.748
REMARK UNBOUND:                 0.109
REMARK  Name = 
REMARK  6 active torsions:
REMARK  status: ('A' for Active; 'I' for Inactive)
REMARK    1  A    between atoms: C_1  and  N_2
REMARK    2  A    between atoms: N_2  and  C_3
REMARK    3  A    between atoms: N_2  and  C_4
REMARK    4  A    between atoms: C_4  and  C_5
REMARK    5  A    between atoms: C_5  and  C_6
REMARK    6  A    between atoms: C_6  and  N_7
REMARK                            x       y       z     vdW  Elec       q    Type
REMARK                         _______ _______ _______ _____ _____    ______ ____
ROOT
ATOM      1  N   UNL     1     -11.164  -2.167  18.612  0.00  0.00    +0.000 N 
ATOM      2  C   UNL     1     -11.541  -1.343  17.536  0.00  0.00    +0.000 A 
ATOM      3  C   UNL     1     -11.754  -1.649  16.175  0.00  0.00    +0.000 A 
ATOM      4  C   UNL     1     -12.073  -0.611  15.296  0.00  0.00    +0.000 A 
ATOM      5  C   UNL     1     -12.217   0.695  15.755  0.00  0.00    +0.000 A 
ATOM      6  C   UNL     1     -12.003   0.996  17.093  0.00  0.00    +0.000 A 
ATOM      7  C   UNL     1     -11.645  -0.014  18.002  0.00  0.00    +0.000 A 
ATOM      8  C   UNL     1     -11.278  -0.125  19.334  0.00  0.00    +0.000 A 
ATOM      9  C   UNL     1     -11.179   0.925  20.280  0.00  0.00    +0.000 A 
ATOM     10  C   UNL     1     -10.534   0.652  21.521  0.00  0.00    +0.000 A 
ATOM     11  C   UNL     1     -10.069  -0.678  21.770  0.00  0.00    +0.000 A 
ATOM     12  C   UNL     1      -9.744  -1.124  23.042  0.00  0.00    +0.000 A 
ATOM     13  C   UNL     1      -8.708  -0.973  23.976  0.00  0.00    +0.000 A 
ATOM     14  C   UNL     1      -8.841  -1.608  25.214  0.00  0.00    +0.000 A 
ATOM     15  C   UNL     1     -10.037  -2.243  25.552  0.00  0.00    +0.000 A 
ATOM     16  C   UNL     1     -11.010  -2.514  24.580  0.00  0.00    +0.000 A 
ATOM     17  C   UNL     1     -10.707  -2.112  23.276  0.00  0.00    +0.000 A 
ATOM     18  N   UNL     1     -11.142  -2.544  22.017  0.00  0.00    +0.000 N 
ATOM     19  C   UNL     1     -10.745  -1.631  21.070  0.00  0.00    +0.000 A 
ATOM     20  C   UNL     1     -11.076  -1.403  19.748  0.00  0.00    +0.000 A 
ATOM     21  C   UNL     1     -10.639   1.814  22.349  0.00  0.00    +0.000 C 
ATOM     22  O   UNL     1     -10.361   2.053  23.516  0.00  0.00    +0.000 OA
ATOM     23  N   UNL     1     -11.253   2.726  21.528  0.00  0.00    +0.000 N 
ATOM     24  C   UNL     1     -11.664   2.269  20.305  0.00  0.00    +0.000 C 
ATOM     25  O   UNL     1     -12.358   2.946  19.551  0.00  0.00    +0.000 OA
ATOM     26  H   UNL     1     -11.648  -2.660  15.795  0.00  0.00    +0.000 HD
ATOM     27  H   UNL     1     -12.207  -0.821  14.240  0.00  0.00    +0.000 HD
ATOM     28  H   UNL     1     -12.470   1.493  15.063  0.00  0.00    +0.000 HD
ATOM     29  H   UNL     1     -12.098   2.037  17.418  0.00  0.00    +0.000 HD
ATOM     30  H   UNL     1      -7.785  -0.472  23.703  0.00  0.00    +0.000 HD
ATOM     31  H   UNL     1      -8.015  -1.593  25.920  0.00  0.00    +0.000 HD
ATOM     32  H   UNL     1     -10.183  -2.595  26.571  0.00  0.00    +0.000 HD
ATOM     33  H   UNL     1     -11.916  -3.055  24.830  0.00  0.00    +0.000 HD
ATOM     34  H   UNL     1     -11.762  -3.326  21.869  0.00  0.00    +0.000 HD
ATOM     35  H   UNL     1     -11.555   3.622  21.872  0.00  0.00    +0.000 HD
ENDROOT
BRANCH   1  36
ATOM     36  C   UNL     1     -10.731  -3.555  18.477  0.00  0.00    +0.000 C 
ATOM     37  H   UNL     1     -11.332  -4.176  19.148  0.00  0.00    +0.000 HD
ATOM     38  H   UNL     1     -10.988  -3.853  17.454  0.00  0.00    +0.000 HD
BRANCH  36  39
ATOM     39  C   UNL     1      -9.229  -3.798  18.715  0.00  0.00    +0.000 C 
ATOM     40  H   UNL     1      -8.682  -3.522  17.806  0.00  0.00    +0.000 HD
ATOM     41  H   UNL     1      -8.847  -3.122  19.487  0.00  0.00    +0.000 HD
BRANCH  39  42
ATOM     42  C   UNL     1      -8.853  -5.225  19.136  0.00  0.00    +0.000 C 
ATOM     43  H   UNL     1      -9.757  -5.729  19.507  0.00  0.00    +0.000 HD
ATOM     44  H   UNL     1      -8.547  -5.773  18.235  0.00  0.00    +0.000 HD
BRANCH  42  45
ATOM     45  N   UNL     1      -7.784  -5.300  20.143  0.00  0.00    +0.000 NA
BRANCH  45  46
ATOM     46  C   UNL     1      -6.459  -5.465  19.542  0.00  0.00    +0.000 C 
ATOM     47  H   UNL     1      -5.696  -5.563  20.323  0.00  0.00    +0.000 HD
ATOM     48  H   UNL     1      -6.185  -4.621  18.899  0.00  0.00    +0.000 HD
ATOM     49  H   UNL     1      -6.400  -6.385  18.954  0.00  0.00    +0.000 HD
ENDBRANCH  45  46
BRANCH  45  50
ATOM     50  C   UNL     1      -7.796  -4.081  20.962  0.00  0.00    +0.000 C 
ATOM     51  H   UNL     1      -7.416  -4.289  21.968  0.00  0.00    +0.000 HD
ATOM     52  H   UNL     1      -8.818  -3.706  21.085  0.00  0.00    +0.000 HD
ATOM     53  H   UNL     1      -7.186  -3.283  20.522  0.00  0.00    +0.000 HD
ENDBRANCH  45  50
ENDBRANCH  42  45
ENDBRANCH  39  42
ENDBRANCH  36  39
ENDBRANCH   1  36
TORSDOF 6
ENDMDL
