REMARK  Name = 
REMARK  6 active torsions:
REMARK  status: ('A' for Active; 'I' for Inactive)
REMARK    1  A    between atoms: C_1  and  O_2
REMARK    2  A    between atoms: O_2  and  C_3
REMARK    3  A    between atoms: C_4  and  N_5
REMARK    4  A    between atoms: N_5  and  C_6
REMARK    5  A    between atoms: N_5  and  C_7
REMARK    6  A    between atoms: C_16  and  C_17
REMARK                            x       y       z     vdW  Elec       q    Type
REMARK                         _______ _______ _______ _____ _____    ______ ____
ROOT
ATOM      1  C   UNL     1       1.456   1.036   0.915  0.00  0.00    +0.000 C 
ATOM      2  C   UNL     1       1.706   1.212  -0.629  0.00  0.00    +0.000 C 
ATOM      3  C   UNL     1       0.237   1.339  -1.562  0.00  0.00    +0.000 C 
ATOM      4  C   UNL     1      -1.134   2.002  -0.668  0.00  0.00    +0.000 C 
ATOM      5  O   UNL     1      -0.282   2.382   0.312  0.00  0.00    +0.000 OA
ATOM      6  C   UNL     1      -0.013   1.077   1.007  0.00  0.00    +0.000 C 
ATOM      7  N   UNL     1      -0.613  -0.304   0.181  0.00  0.00    +0.000 N 
ATOM      8  C   UNL     1      -0.081  -1.458  -0.560  0.00  0.00    +0.000 A 
ATOM      9  C   UNL     1       1.101  -2.207  -0.463  0.00  0.00    +0.000 A 
ATOM     10  C   UNL     1       1.415  -3.141  -1.484  0.00  0.00    +0.000 A 
ATOM     11  C   UNL     1       0.646  -3.304  -2.632  0.00  0.00    +0.000 A 
ATOM     12  C   UNL     1      -0.598  -2.702  -2.719  0.00  0.00    +0.000 A 
ATOM     13  C   UNL     1      -1.049  -1.910  -1.649  0.00  0.00    +0.000 A 
ATOM     14  C   UNL     1      -2.305  -1.430  -1.306  0.00  0.00    +0.000 A 
ATOM     15  C   UNL     1      -3.645  -1.551  -1.763  0.00  0.00    +0.000 A 
ATOM     16  C   UNL     1      -4.611  -1.210  -0.721  0.00  0.00    +0.000 A 
ATOM     17  C   UNL     1      -4.094  -0.130   0.072  0.00  0.00    +0.000 A 
ATOM     18  C   UNL     1      -4.206   0.607   1.350  0.00  0.00    +0.000 A 
ATOM     19  C   UNL     1      -4.812   0.513   2.660  0.00  0.00    +0.000 A 
ATOM     20  C   UNL     1      -4.032   0.194   3.813  0.00  0.00    +0.000 A 
ATOM     21  C   UNL     1      -2.782  -0.292   3.662  0.00  0.00    +0.000 A 
ATOM     22  C   UNL     1      -2.218  -0.020   2.446  0.00  0.00    +0.000 A 
ATOM     23  C   UNL     1      -2.789   0.986   1.509  0.00  0.00    +0.000 A 
ATOM     24  N   UNL     1      -2.326   1.507   0.156  0.00  0.00    +0.000 N 
ATOM     25  C   UNL     1      -2.875   0.432  -0.328  0.00  0.00    +0.000 A 
ATOM     26  C   UNL     1      -1.872  -0.490  -0.428  0.00  0.00    +0.000 A 
ATOM     27  C   UNL     1      -5.905  -1.454  -1.261  0.00  0.00    +0.000 C 
ATOM     28  O   UNL     1      -6.999  -1.674  -0.766  0.00  0.00    +0.000 OA
ATOM     29  N   UNL     1      -5.675  -1.455  -2.652  0.00  0.00    +0.000 N 
ATOM     30  C   UNL     1      -4.277  -1.398  -3.081  0.00  0.00    +0.000 C 
ATOM     31  H   UNL     1       1.863   1.973   1.349  0.00  0.00    +0.000 HD
ATOM     32  H   UNL     1       2.028   2.254  -0.768  0.00  0.00    +0.000 HD
ATOM     33  H   UNL     1       0.002   0.469  -2.176  0.00  0.00    +0.000 HD
ATOM     34  H   UNL     1       0.480   2.113  -2.305  0.00  0.00    +0.000 HD
ATOM     35  H   UNL     1      -1.550   2.811  -1.281  0.00  0.00    +0.000 HD
ATOM     36  H   UNL     1       1.802  -2.054   0.351  0.00  0.00    +0.000 HD
ATOM     37  H   UNL     1       2.345  -3.703  -1.414  0.00  0.00    +0.000 HD
ATOM     38  H   UNL     1       0.985  -3.929  -3.456  0.00  0.00    +0.000 HD
ATOM     39  H   UNL     1      -1.230  -2.859  -3.589  0.00  0.00    +0.000 HD
ATOM     40  H   UNL     1      -5.714   1.115   2.873  0.00  0.00    +0.000 HD
ATOM     41  H   UNL     1      -4.416   0.313   4.855  0.00  0.00    +0.000 HD
ATOM     42  H   UNL     1      -2.251  -0.841   4.438  0.00  0.00    +0.000 HD
ATOM     43  H   UNL     1      -1.411  -0.712   2.184  0.00  0.00    +0.000 HD
ATOM     44  H   UNL     1      -6.446  -1.150  -3.228  0.00  0.00    +0.000 HD
ATOM     45  H   UNL     1      -4.035  -2.144  -3.835  0.00  0.00    +0.000 HD
ATOM     46  H   UNL     1      -4.112  -0.382  -3.479  0.00  0.00    +0.000 HD
ENDROOT
BRANCH   6  47
ATOM     47  C   UNL     1      -0.403   1.896   2.361  0.00  0.00    +0.000 C 
ATOM     48  H   UNL     1      -1.323   2.539   2.255  0.00  0.00    +0.000 HD
ATOM     49  H   UNL     1      -0.508   1.393   3.321  0.00  0.00    +0.000 HD
ATOM     50  H   UNL     1       0.300   2.716   2.518  0.00  0.00    +0.000 HD
ENDBRANCH   6  47
BRANCH   1  51
ATOM     51  O   UNL     1       2.025  -0.005   1.723  0.00  0.00    +0.000 OA
BRANCH  51  52
ATOM     52  C   UNL     1       1.723   0.178   3.092  0.00  0.00    +0.000 C 
ATOM     53  H   UNL     1       1.907   1.188   3.461  0.00  0.00    +0.000 HD
ATOM     54  H   UNL     1       0.690  -0.130   3.324  0.00  0.00    +0.000 HD
ATOM     55  H   UNL     1       2.331  -0.512   3.730  0.00  0.00    +0.000 HD
ENDBRANCH  51  52
ENDBRANCH   1  51
BRANCH   2  56
ATOM     56  N   UNL     1       2.909   0.424  -1.038  0.00  0.00    +0.000 N 
BRANCH  56  57
ATOM     57  C   UNL     1       4.180   0.709  -0.473  0.00  0.00    +0.000 A 
ATOM     58  C   UNL     1       4.434   1.858   0.301  0.00  0.00    +0.000 A 
ATOM     59  C   UNL     1       5.712   2.211   0.759  0.00  0.00    +0.000 A 
ATOM     60  C   UNL     1       6.802   1.412   0.465  0.00  0.00    +0.000 A 
ATOM     61  C   UNL     1       6.592   0.225  -0.225  0.00  0.00    +0.000 A 
ATOM     62  C   UNL     1       5.302  -0.126  -0.662  0.00  0.00    +0.000 A 
ATOM     63  H   UNL     1       3.650   2.558   0.555  0.00  0.00    +0.000 HD
ATOM     64  H   UNL     1       5.844   3.129   1.326  0.00  0.00    +0.000 HD
ATOM     65  H   UNL     1       7.800   1.707   0.775  0.00  0.00    +0.000 HD
ATOM     66  H   UNL     1       7.435  -0.429  -0.434  0.00  0.00    +0.000 HD
ATOM     67  H   UNL     1       5.211  -1.088  -1.158  0.00  0.00    +0.000 HD
ENDBRANCH  56  57
BRANCH  56  68
ATOM     68  C   UNL     1       2.911  -0.401  -2.229  0.00  0.00    +0.000 C 
ATOM     69  H   UNL     1       3.327  -1.392  -2.027  0.00  0.00    +0.000 HD
ATOM     70  H   UNL     1       1.912  -0.548  -2.637  0.00  0.00    +0.000 HD
ATOM     71  H   UNL     1       3.523   0.061  -3.011  0.00  0.00    +0.000 HD
ENDBRANCH  56  68
ENDBRANCH   2  56
TORSDOF 6
