REMARK  Name = 
REMARK  7 active torsions:
REMARK  status: ('A' for Active; 'I' for Inactive)
REMARK    1  A    between atoms: C_1  and  S_2
REMARK    2  A    between atoms: S_2  and  C_5
REMARK    3  A    between atoms: C_8  and  C_9
REMARK    4  A    between atoms: C_14  and  O_15
REMARK    5  A    between atoms: C_16  and  O_17
REMARK    6  A    between atoms: C_24  and  O_25
REMARK    7  A    between atoms: C_26  and  O_27
REMARK                            x       y       z     vdW  Elec       q    Type
REMARK                         _______ _______ _______ _____ _____    ______ ____
ROOT
ATOM      1  C   UNL     1       0.190   0.222  -1.328  0.00  0.00    +0.000 C 
ATOM      2  O   UNL     1       0.482   0.417  -2.515  0.00  0.00    +0.000 OA
ATOM      3  N   UNL     1       1.203  -0.337  -0.513  0.00  0.00    +0.000 N 
ATOM      4  C   UNL     1       2.373  -0.907  -1.033  0.00  0.00    +0.000 A 
ATOM      5  C   UNL     1       2.754  -1.307  -2.325  0.00  0.00    +0.000 A 
ATOM      6  C   UNL     1       4.123  -1.343  -2.561  0.00  0.00    +0.000 A 
ATOM      7  C   UNL     1       5.035  -0.958  -1.587  0.00  0.00    +0.000 A 
ATOM      8  C   UNL     1       4.649  -0.856  -0.259  0.00  0.00    +0.000 A 
ATOM      9  C   UNL     1       3.275  -0.947   0.020  0.00  0.00    +0.000 A 
ATOM     10  C   UNL     1       2.459  -1.154   1.153  0.00  0.00    +0.000 A 
ATOM     11  C   UNL     1       2.595  -1.787   2.403  0.00  0.00    +0.000 A 
ATOM     12 BR   UNL     1       3.888  -3.151   2.644  0.00  0.00    +0.000 Br
ATOM     13  C   UNL     1       1.685  -1.514   3.424  0.00  0.00    +0.000 A 
ATOM     14  C   UNL     1       0.760  -0.503   3.226  0.00  0.00    +0.000 A 
ATOM     15  C   UNL     1       0.570   0.082   1.967  0.00  0.00    +0.000 A 
ATOM     16  C   UNL     1       1.297  -0.418   0.881  0.00  0.00    +0.000 A 
ATOM     17  H   UNL     1       2.028  -1.478  -3.112  0.00  0.00    +0.000 HD
ATOM     18  H   UNL     1       5.372  -0.642   0.520  0.00  0.00    +0.000 HD
ATOM     19  H   UNL     1       1.750  -2.050   4.364  0.00  0.00    +0.000 HD
ENDROOT
BRANCH   1  23
ATOM     20  C   UNL     1      -3.910   1.082  -0.613  0.00  0.00    +0.000 A 
ATOM     21  C   UNL     1      -3.306   0.044   0.101  0.00  0.00    +0.000 A 
ATOM     22  C   UNL     1      -1.948  -0.224  -0.089  0.00  0.00    +0.000 A 
ATOM     23  C   UNL     1      -1.195   0.568  -0.962  0.00  0.00    +0.000 A 
ATOM     24  C   UNL     1      -1.811   1.621  -1.658  0.00  0.00    +0.000 A 
ATOM     25  C   UNL     1      -3.171   1.876  -1.493  0.00  0.00    +0.000 A 
ATOM     26  H   UNL     1      -3.885  -0.588   0.772  0.00  0.00    +0.000 HD
ATOM     27  H   UNL     1      -1.504  -1.066   0.432  0.00  0.00    +0.000 HD
ATOM     28  H   UNL     1      -1.238   2.210  -2.375  0.00  0.00    +0.000 HD
ATOM     29  H   UNL     1      -3.648   2.657  -2.083  0.00  0.00    +0.000 HD
BRANCH  20  30
ATOM     30  S   UNL     1      -5.671   1.292  -0.513  0.00  0.00    +0.000 S 
ATOM     31  O   UNL     1      -6.227   0.059  -0.012  0.00  0.00    +0.000 OA
ATOM     32  O   UNL     1      -6.109   1.845  -1.791  0.00  0.00    +0.000 OA
BRANCH  30  33
ATOM     33  C   UNL     1      -5.882   2.540   0.722  0.00  0.00    +0.000 C 
ATOM     34  H   UNL     1      -6.953   2.727   0.828  0.00  0.00    +0.000 HD
ATOM     35  H   UNL     1      -5.376   3.453   0.403  0.00  0.00    +0.000 HD
ATOM     36  H   UNL     1      -5.472   2.177   1.665  0.00  0.00    +0.000 HD
ENDBRANCH  30  33
ENDBRANCH  20  30
ENDBRANCH   1  23
BRANCH   6  37
ATOM     37  O   UNL     1       4.615  -1.731  -3.776  0.00  0.00    +0.000 OA
ATOM     38  H   UNL     1       4.108  -2.529  -4.020  0.00  0.00    +0.000 HD
ENDBRANCH   6  37
BRANCH   7  39
ATOM     39  O   UNL     1       6.327  -0.694  -1.937  0.00  0.00    +0.000 OA
ATOM     40  H   UNL     1       6.310  -0.675  -2.916  0.00  0.00    +0.000 HD
ENDBRANCH   7  39
BRANCH  14  41
ATOM     41  O   UNL     1      -0.015  -0.041   4.256  0.00  0.00    +0.000 OA
ATOM     42  H   UNL     1       0.213  -0.543   5.060  0.00  0.00    +0.000 HD
ENDBRANCH  14  41
BRANCH  15  43
ATOM     43  O   UNL     1      -0.268   1.159   1.851  0.00  0.00    +0.000 OA
ATOM     44  H   UNL     1      -0.473   1.411   2.775  0.00  0.00    +0.000 HD
ENDBRANCH  15  43
TORSDOF 7
