REMARK  Name = 
REMARK  6 active torsions:
REMARK  status: ('A' for Active; 'I' for Inactive)
REMARK    1  A    between atoms: C_1  and  O_2
REMARK    2  A    between atoms: O_2  and  C_3
REMARK    3  A    between atoms: C_4  and  N_5
REMARK    4  A    between atoms: N_5  and  C_6
REMARK    5  A    between atoms: C_7  and  C_9
REMARK    6  A    between atoms: C_18  and  C_19
REMARK                            x       y       z     vdW  Elec       q    Type
REMARK                         _______ _______ _______ _____ _____    ______ ____
ROOT
ATOM      1  C   UNL     1       1.681  -0.562   0.087  0.00  0.00    +0.000 C 
ATOM      2  C   UNL     1       2.301   0.800  -0.099  0.00  0.00    +0.000 C 
ATOM      3  C   UNL     1       1.200   1.498  -1.070  0.00  0.00    +0.000 C 
ATOM      4  C   UNL     1      -0.372   0.992  -0.785  0.00  0.00    +0.000 C 
ATOM      5  O   UNL     1      -0.343   0.842   0.634  0.00  0.00    +0.000 OA
ATOM      6  C   UNL     1       0.514  -0.272   1.040  0.00  0.00    +0.000 C 
ATOM      7  N   UNL     1      -0.227  -1.509   1.057  0.00  0.00    +0.000 N 
ATOM      8  C   UNL     1      -0.222  -2.488   2.061  0.00  0.00    +0.000 A 
ATOM      9  C   UNL     1       0.877  -3.191   2.584  0.00  0.00    +0.000 A 
ATOM     10  C   UNL     1       0.624  -4.148   3.556  0.00  0.00    +0.000 A 
ATOM     11  C   UNL     1      -0.659  -4.315   4.069  0.00  0.00    +0.000 A 
ATOM     12  C   UNL     1      -1.743  -3.520   3.649  0.00  0.00    +0.000 A 
ATOM     13  C   UNL     1      -1.552  -2.625   2.582  0.00  0.00    +0.000 A 
ATOM     14  C   UNL     1      -2.407  -1.857   1.747  0.00  0.00    +0.000 A 
ATOM     15  C   UNL     1      -3.652  -1.256   1.966  0.00  0.00    +0.000 A 
ATOM     16  C   UNL     1      -4.338  -1.050   0.731  0.00  0.00    +0.000 A 
ATOM     17  C   UNL     1      -3.401  -0.770  -0.303  0.00  0.00    +0.000 A 
ATOM     18  C   UNL     1      -3.587   0.186  -1.309  0.00  0.00    +0.000 A 
ATOM     19  C   UNL     1      -4.624   1.016  -1.735  0.00  0.00    +0.000 A 
ATOM     20  C   UNL     1      -4.740   1.186  -3.104  0.00  0.00    +0.000 A 
ATOM     21  C   UNL     1      -3.887   0.479  -3.955  0.00  0.00    +0.000 A 
ATOM     22  C   UNL     1      -2.681  -0.087  -3.493  0.00  0.00    +0.000 A 
ATOM     23  C   UNL     1      -2.400   0.097  -2.134  0.00  0.00    +0.000 A 
ATOM     24  N   UNL     1      -1.246  -0.138  -1.292  0.00  0.00    +0.000 N 
ATOM     25  C   UNL     1      -2.006  -0.860  -0.356  0.00  0.00    +0.000 A 
ATOM     26  C   UNL     1      -1.512  -1.486   0.751  0.00  0.00    +0.000 A 
ATOM     27  C   UNL     1      -5.548  -0.361   1.003  0.00  0.00    +0.000 C 
ATOM     28  O   UNL     1      -6.612  -0.271   0.422  0.00  0.00    +0.000 OA
ATOM     29  N   UNL     1      -5.242   0.336   2.156  0.00  0.00    +0.000 N 
ATOM     30  C   UNL     1      -3.934   0.028   2.706  0.00  0.00    +0.000 C 
ATOM     31  H   UNL     1       2.297  -1.353   0.510  0.00  0.00    +0.000 HD
ATOM     32  H   UNL     1       2.343   1.386   0.827  0.00  0.00    +0.000 HD
ATOM     33  H   UNL     1       1.204   2.552  -0.744  0.00  0.00    +0.000 HD
ATOM     34  H   UNL     1       1.460   1.488  -2.129  0.00  0.00    +0.000 HD
ATOM     35  H   UNL     1      -0.983   1.877  -1.015  0.00  0.00    +0.000 HD
ATOM     36  H   UNL     1       1.876  -3.061   2.183  0.00  0.00    +0.000 HD
ATOM     37  H   UNL     1       1.437  -4.785   3.897  0.00  0.00    +0.000 HD
ATOM     38  H   UNL     1      -0.835  -5.114   4.784  0.00  0.00    +0.000 HD
ATOM     39  H   UNL     1      -2.736  -3.709   4.041  0.00  0.00    +0.000 HD
ATOM     40  H   UNL     1      -5.403   1.361  -1.065  0.00  0.00    +0.000 HD
ATOM     41  H   UNL     1      -5.590   1.741  -3.488  0.00  0.00    +0.000 HD
ATOM     42  H   UNL     1      -4.179   0.363  -4.995  0.00  0.00    +0.000 HD
ATOM     43  H   UNL     1      -2.055  -0.693  -4.139  0.00  0.00    +0.000 HD
ATOM     44  H   UNL     1      -5.847   1.098   2.434  0.00  0.00    +0.000 HD
ATOM     45  H   UNL     1      -3.944  -0.000   3.788  0.00  0.00    +0.000 HD
ATOM     46  H   UNL     1      -3.247   0.812   2.335  0.00  0.00    +0.000 HD
ENDROOT
BRANCH   6  47
ATOM     47  C   UNL     1       0.830   0.225   2.471  0.00  0.00    +0.000 C 
ATOM     48  H   UNL     1       1.093   1.292   2.483  0.00  0.00    +0.000 HD
ATOM     49  H   UNL     1      -0.083   0.188   3.087  0.00  0.00    +0.000 HD
ATOM     50  H   UNL     1       1.614  -0.339   2.973  0.00  0.00    +0.000 HD
ENDBRANCH   6  47
BRANCH   2  51
ATOM     51  N   UNL     1       3.761   0.577  -0.367  0.00  0.00    +0.000 N 
ATOM     52  C   UNL     1       4.515   1.066  -1.408  0.00  0.00    +0.000 C 
ATOM     53  O   UNL     1       5.472   0.467  -1.893  0.00  0.00    +0.000 OA
BRANCH  52  54
ATOM     54  C   UNL     1       4.290   2.440  -1.835  0.00  0.00    +0.000 A 
ATOM     55  C   UNL     1       4.274   3.480  -0.904  0.00  0.00    +0.000 A 
ATOM     56  C   UNL     1       4.233   4.783  -1.377  0.00  0.00    +0.000 A 
ATOM     57  C   UNL     1       4.213   4.974  -2.754  0.00  0.00    +0.000 A 
ATOM     58  N   UNL     1       4.241   3.977  -3.672  0.00  0.00    +0.000 NA
ATOM     59  C   UNL     1       4.302   2.716  -3.184  0.00  0.00    +0.000 A 
ATOM     60  H   UNL     1       4.361   3.284   0.163  0.00  0.00    +0.000 HD
ATOM     61  H   UNL     1       4.246   5.626  -0.702  0.00  0.00    +0.000 HD
ATOM     62  H   UNL     1       4.184   5.975  -3.180  0.00  0.00    +0.000 HD
ATOM     63  H   UNL     1       4.397   1.918  -3.918  0.00  0.00    +0.000 HD
ENDBRANCH  52  54
BRANCH  51  64
ATOM     64  C   UNL     1       4.456  -0.455   0.422  0.00  0.00    +0.000 C 
ATOM     65  H   UNL     1       4.001  -0.571   1.413  0.00  0.00    +0.000 HD
ATOM     66  H   UNL     1       5.505  -0.187   0.577  0.00  0.00    +0.000 HD
ATOM     67  H   UNL     1       4.420  -1.405  -0.126  0.00  0.00    +0.000 HD
ENDBRANCH  51  64
ENDBRANCH   2  51
BRANCH   1  68
ATOM     68  O   UNL     1       1.416  -0.901  -1.297  0.00  0.00    +0.000 OA
BRANCH  68  69
ATOM     69  C   UNL     1       1.112  -2.202  -1.722  0.00  0.00    +0.000 C 
ATOM     70  H   UNL     1       1.919  -2.544  -2.375  0.00  0.00    +0.000 HD
ATOM     71  H   UNL     1       0.218  -2.137  -2.353  0.00  0.00    +0.000 HD
ATOM     72  H   UNL     1       0.950  -2.903  -0.908  0.00  0.00    +0.000 HD
ENDBRANCH  68  69
ENDBRANCH   1  68
TORSDOF 6
