
 OpenBabel01112422373D

 39 42  0  0  0  0  0  0  0  0999 V2000
    3.2709    0.2017    1.4644 O   0  0  0  0  0  0  0  0  0  0  0  0
    3.2146   -0.2008    0.0673 S   0  0  0  0  0  0  0  0  0  0  0  0
    3.0361   -1.5980   -0.2894 O   0  0  0  0  0  0  0  0  0  0  0  0
    2.0108    0.7603   -0.8232 C   0  0  0  0  0  0  0  0  0  0  0  0
    1.6675    2.0366   -0.3578 C   0  0  0  0  0  0  0  0  0  0  0  0
    0.9535    2.8865   -1.1903 C   0  0  0  0  0  0  0  0  0  0  0  0
    0.5500    2.4621   -2.4628 C   0  0  0  0  0  0  0  0  0  0  0  0
    0.8252    1.1582   -2.8870 C   0  0  0  0  0  0  0  0  0  0  0  0
    1.5587    0.3016   -2.0693 C   0  0  0  0  0  0  0  0  0  0  0  0
    4.6543    0.3116   -0.6925 N   0  0  0  0  0  0  0  0  0  0  0  0
    5.0350   -0.1639   -1.9388 C   0  0  0  0  0  0  0  0  0  0  0  0
    4.8159   -1.3482   -2.6577 C   0  0  0  0  0  0  0  0  0  0  0  0
    5.0065   -1.2668   -4.0362 C   0  0  0  0  0  0  0  0  0  0  0  0
    4.8833   -2.3761   -4.8261 O   0  0  0  0  0  0  0  0  0  0  0  0
    5.3176   -0.0641   -4.6568 C   0  0  0  0  0  0  0  0  0  0  0  0
    5.2237    0.0458   -6.0138 O   0  0  0  0  0  0  0  0  0  0  0  0
    5.7712    1.0160   -3.9128 C   0  0  0  0  0  0  0  0  0  0  0  0
    5.7336    0.8945   -2.5111 C   0  0  0  0  0  0  0  0  0  0  0  0
    6.3344    1.5325   -1.3988 C   0  0  0  0  0  0  0  0  0  0  0  0
    7.5418    2.2195   -1.1683 C   0  0  0  0  0  0  0  0  0  0  0  0
    7.7003    2.9096    0.0336 C   0  0  0  0  0  0  0  0  0  0  0  0
    6.5922    3.1025    0.8445 C   0  0  0  0  0  0  0  0  0  0  0  0
    6.6243    3.9840    1.8912 O   0  0  0  0  0  0  0  0  0  0  0  0
    5.3990    2.4077    0.6261 C   0  0  0  0  0  0  0  0  0  0  0  0
    4.2896    2.7506    1.3479 O   0  0  0  0  0  0  0  0  0  0  0  0
    5.3895    1.4416   -0.3767 C   0  0  0  0  0  0  0  0  0  0  0  0
    2.0056    2.4040    0.6085 H   0  0  0  0  0  0  0  0  0  0  0  0
    0.7283    3.8997   -0.8643 H   0  0  0  0  0  0  0  0  0  0  0  0
    0.0288    3.1468   -3.1222 H   0  0  0  0  0  0  0  0  0  0  0  0
    0.4956    0.8253   -3.8684 H   0  0  0  0  0  0  0  0  0  0  0  0
    1.8129   -0.6837   -2.4233 H   0  0  0  0  0  0  0  0  0  0  0  0
    4.4870   -2.2618   -2.1783 H   0  0  0  0  0  0  0  0  0  0  0  0
    5.2603   -3.1162   -4.3136 H   0  0  0  0  0  0  0  0  0  0  0  0
    4.8195   -0.7980   -6.3004 H   0  0  0  0  0  0  0  0  0  0  0  0
    6.0984    1.9304   -4.3981 H   0  0  0  0  0  0  0  0  0  0  0  0
    8.3607    2.1356   -1.8786 H   0  0  0  0  0  0  0  0  0  0  0  0
    8.6657    3.3395    0.2749 H   0  0  0  0  0  0  0  0  0  0  0  0
    7.5302    4.3323    1.9618 H   0  0  0  0  0  0  0  0  0  0  0  0
    4.5503    3.5540    1.8417 H   0  0  0  0  0  0  0  0  0  0  0  0
  1  2  2  0  0  0  0
  2  3  2  0  0  0  0
  2  4  1  0  0  0  0
  2 10  1  0  0  0  0
  4  5  1  0  0  0  0
  4  9  2  0  0  0  0
  5  6  2  0  0  0  0
  5 27  1  0  0  0  0
  6  7  1  0  0  0  0
  6 28  1  0  0  0  0
  7  8  2  0  0  0  0
  7 29  1  0  0  0  0
  8  9  1  0  0  0  0
  8 30  1  0  0  0  0
  9 31  1  0  0  0  0
 10 11  1  0  0  0  0
 10 26  1  0  0  0  0
 11 12  1  0  0  0  0
 11 18  2  0  0  0  0
 12 13  2  0  0  0  0
 12 32  1  0  0  0  0
 13 14  1  0  0  0  0
 13 15  1  0  0  0  0
 14 33  1  0  0  0  0
 15 16  1  0  0  0  0
 15 17  2  0  0  0  0
 16 34  1  0  0  0  0
 17 18  1  0  0  0  0
 17 35  1  0  0  0  0
 18 19  1  0  0  0  0
 19 20  1  0  0  0  0
 19 26  2  0  0  0  0
 20 21  2  0  0  0  0
 20 36  1  0  0  0  0
 21 22  1  0  0  0  0
 21 37  1  0  0  0  0
 22 23  1  0  0  0  0
 22 24  2  0  0  0  0
 23 38  1  0  0  0  0
 24 25  1  0  0  0  0
 24 26  1  0  0  0  0
 25 39  1  0  0  0  0
M  END
$$$$
