REMARK  Name = 
REMARK  8 active torsions:
REMARK  status: ('A' for Active; 'I' for Inactive)
REMARK    1  A    between atoms: C_1  and  N_2
REMARK    2  A    between atoms: C_7  and  C_8
REMARK    3  A    between atoms: C_11  and  C_12
REMARK    4  A    between atoms: N_14  and  C_15
REMARK    5  A    between atoms: C_15  and  C_16
REMARK    6  A    between atoms: C_15  and  C_18
REMARK    7  A    between atoms: C_16  and  N_17
REMARK    8  A    between atoms: C_18  and  C_19
REMARK                            x       y       z     vdW  Elec       q    Type
REMARK                         _______ _______ _______ _____ _____    ______ ____
ROOT
ATOM      1  C   UNL     1      -1.601   0.459  -1.103  0.00  0.00    +0.000 C 
ATOM      2  O   UNL     1      -1.987   1.206  -1.996  0.00  0.00    +0.000 OA
ATOM      3  N   UNL     1      -2.277   0.348   0.093  0.00  0.00    +0.000 N 
ATOM      4  H   UNL     1      -1.879  -0.266   0.792  0.00  0.00    +0.000 HD
ENDROOT
BRANCH   1   8
ATOM      5  C   UNL     1       1.601  -1.788  -0.807  0.00  0.00    +0.000 A 
ATOM      6  C   UNL     1       1.537  -1.308  -2.105  0.00  0.00    +0.000 A 
ATOM      7  C   UNL     1       0.394  -0.497  -2.346  0.00  0.00    +0.000 A 
ATOM      8  C   UNL     1      -0.399  -0.361  -1.224  0.00  0.00    +0.000 A 
ATOM      9  S   UNL     1       0.222  -1.284   0.081  0.00  0.00    +0.000 S 
ATOM     10  H   UNL     1       2.302  -1.517  -2.845  0.00  0.00    +0.000 HD
ATOM     11  H   UNL     1       0.173  -0.014  -3.291  0.00  0.00    +0.000 HD
BRANCH   5  17
ATOM     12  N   UNL     1       5.317  -4.550  -1.639  0.00  0.00    +0.000 N 
ATOM     13  C   UNL     1       4.479  -3.939  -0.717  0.00  0.00    +0.000 A 
ATOM     14  N   UNL     1       4.797  -4.098   0.572  0.00  0.00    +0.000 NA
ATOM     15  C   UNL     1       3.991  -3.507   1.473  0.00  0.00    +0.000 A 
ATOM     16  C   UNL     1       2.898  -2.743   1.136  0.00  0.00    +0.000 A 
ATOM     17  C   UNL     1       2.661  -2.620  -0.215  0.00  0.00    +0.000 A 
ATOM     18  N   UNL     1       3.444  -3.209  -1.138  0.00  0.00    +0.000 NA
ATOM     19  H   UNL     1       6.205  -4.703  -1.175  0.00  0.00    +0.000 HD
ATOM     20  H   UNL     1       4.271  -3.659   2.513  0.00  0.00    +0.000 HD
ATOM     21  H   UNL     1       2.292  -2.273   1.898  0.00  0.00    +0.000 HD
BRANCH  12  22
ATOM     22  C   UNL     1       5.369  -3.891  -2.926  0.00  0.00    +0.000 C 
ATOM     23  H   UNL     1       6.095  -4.402  -3.564  0.00  0.00    +0.000 HD
ATOM     24  H   UNL     1       5.683  -2.845  -2.834  0.00  0.00    +0.000 HD
ATOM     25  H   UNL     1       4.401  -3.932  -3.439  0.00  0.00    +0.000 HD
ENDBRANCH  12  22
ENDBRANCH   5  17
ENDBRANCH   1   8
BRANCH   3  26
ATOM     26  C   UNL     1      -3.502   1.074   0.437  0.00  0.00    +0.000 C 
ATOM     27  H   UNL     1      -3.769   0.697   1.429  0.00  0.00    +0.000 HD
BRANCH  26  28
ATOM     28  C   UNL     1      -4.687   0.736  -0.512  0.00  0.00    +0.000 C 
ATOM     29  H   UNL     1      -5.591   1.251  -0.165  0.00  0.00    +0.000 HD
ATOM     30  H   UNL     1      -4.485   1.108  -1.522  0.00  0.00    +0.000 HD
BRANCH  28  31
ATOM     31  N   UNL     1      -4.984  -0.696  -0.605  0.00  0.00    +0.000 NA
ATOM     32  H   UNL     1      -5.480  -1.006   0.228  0.00  0.00    +0.000 HD
ATOM     33  H   UNL     1      -4.106  -1.214  -0.636  0.00  0.00    +0.000 HD
ENDBRANCH  28  31
ENDBRANCH  26  28
BRANCH  26  34
ATOM     34  C   UNL     1      -3.336   2.611   0.495  0.00  0.00    +0.000 C 
ATOM     35  H   UNL     1      -4.284   3.055   0.828  0.00  0.00    +0.000 HD
ATOM     36  H   UNL     1      -3.206   2.980  -0.531  0.00  0.00    +0.000 HD
BRANCH  34  37
ATOM     37  C   UNL     1      -2.247   3.215   1.362  0.00  0.00    +0.000 A 
ATOM     38  C   UNL     1      -1.290   4.034   0.733  0.00  0.00    +0.000 A 
ATOM     39  C   UNL     1      -0.358   4.765   1.476  0.00  0.00    +0.000 A 
ATOM     40  C   UNL     1      -0.357   4.669   2.863  0.00  0.00    +0.000 A 
ATOM     41 CL   UNL     1       0.756   5.604   3.784  0.00  0.00    +0.000 Cl
ATOM     42  C   UNL     1      -1.270   3.842   3.511  0.00  0.00    +0.000 A 
ATOM     43  C   UNL     1      -2.215   3.125   2.764  0.00  0.00    +0.000 A 
ATOM     44 CL   UNL     1      -3.366   2.197   3.656  0.00  0.00    +0.000 Cl
ATOM     45  H   UNL     1      -1.288   4.146  -0.352  0.00  0.00    +0.000 HD
ATOM     46  H   UNL     1       0.344   5.422   0.967  0.00  0.00    +0.000 HD
ATOM     47  H   UNL     1      -1.266   3.779   4.595  0.00  0.00    +0.000 HD
ENDBRANCH  34  37
ENDBRANCH  26  34
ENDBRANCH   3  26
TORSDOF 8
