MODEL 1
REMARK VINA RESULT:   -10.642      0.000      0.000
REMARK INTER + INTRA:         -20.034
REMARK INTER:                 -17.174
REMARK INTRA:                  -2.861
REMARK UNBOUND:                -2.861
REMARK  Name = 
REMARK  13 active torsions:
REMARK  status: ('A' for Active; 'I' for Inactive)
REMARK    1  A    between atoms: C_2  and  C_32
REMARK    2  A    between atoms: N_3  and  C_4
REMARK    3  A    between atoms: C_8  and  O_9
REMARK    4  A    between atoms: O_9  and  C_10
REMARK    5  A    between atoms: C_10  and  C_12
REMARK    6  A    between atoms: C_14  and  O_15
REMARK    7  A    between atoms: C_16  and  C_17
REMARK    8  A    between atoms: C_17  and  C_19
REMARK    9  A    between atoms: C_20  and  O_21
REMARK   10  A    between atoms: C_25  and  C_26
REMARK   11  A    between atoms: C_26  and  O_28
REMARK   12  A    between atoms: C_29  and  O_30
REMARK   13  A    between atoms: C_35  and  O_36
REMARK                            x       y       z     vdW  Elec       q    Type
REMARK                         _______ _______ _______ _____ _____    ______ ____
ROOT
ATOM      1  C   UNL     1      -6.185  -5.092  20.278  0.00  0.00    +0.000 C 
ATOM      2  O   UNL     1      -5.038  -5.321  20.616  0.00  0.00    +0.000 OA
ENDROOT
BRANCH   1   3
ATOM      3  C   UNL     1      -7.054  -6.039  19.533  0.00  0.00    +0.000 A 
ATOM      4  C   UNL     1      -7.778  -6.991  20.257  0.00  0.00    +0.000 A 
ATOM      5  C   UNL     1      -8.588  -7.903  19.580  0.00  0.00    +0.000 A 
ATOM      6  C   UNL     1      -8.714  -7.856  18.178  0.00  0.00    +0.000 A 
ATOM      7  C   UNL     1      -7.980  -6.896  17.469  0.00  0.00    +0.000 A 
ATOM      8  C   UNL     1      -7.126  -6.025  18.134  0.00  0.00    +0.000 A 
ATOM      9  H   UNL     1      -7.696  -7.018  21.341  0.00  0.00    +0.000 HD
ATOM     10  H   UNL     1      -6.532  -5.329  17.547  0.00  0.00    +0.000 HD
BRANCH   5  11
ATOM     11  O   UNL     1      -9.245  -8.861  20.305  0.00  0.00    +0.000 OA
ATOM     12  H   UNL     1      -8.905  -9.743  20.084  0.00  0.00    +0.000 HD
ENDBRANCH   5  11
BRANCH   6  13
ATOM     13  C   UNL     1      -9.652  -8.770  17.484  0.00  0.00    +0.000 C 
ATOM     14  O   UNL     1     -10.862  -8.503  17.515  0.00  0.00    +0.000 OA
BRANCH  13  15
ATOM     15  C   UNL     1      -9.233  -9.858  16.560  0.00  0.00    +0.000 A 
ATOM     16  C   UNL     1      -9.337  -9.572  15.181  0.00  0.00    +0.000 A 
ATOM     17  C   UNL     1      -8.911 -10.480  14.215  0.00  0.00    +0.000 A 
ATOM     18  C   UNL     1      -8.385 -11.705  14.600  0.00  0.00    +0.000 A 
ATOM     19  C   UNL     1      -8.277 -12.017  15.954  0.00  0.00    +0.000 A 
ATOM     20  C   UNL     1      -8.689 -11.098  16.942  0.00  0.00    +0.000 A 
ATOM     21  H   UNL     1      -9.013 -10.231  13.160  0.00  0.00    +0.000 HD
ATOM     22  H   UNL     1      -8.076 -12.425  13.844  0.00  0.00    +0.000 HD
ATOM     23  H   UNL     1      -7.889 -12.998  16.225  0.00  0.00    +0.000 HD
BRANCH  16  24
ATOM     24  O   UNL     1      -9.808  -8.377  14.694  0.00  0.00    +0.000 OA
ATOM     25  H   UNL     1     -10.746  -8.510  14.422  0.00  0.00    +0.000 HD
ENDBRANCH  16  24
BRANCH  20  26
ATOM     26  C   UNL     1      -8.572 -11.514  18.362  0.00  0.00    +0.000 C 
ATOM     27  O   UNL     1      -7.892 -10.920  19.177  0.00  0.00    +0.000 OA
BRANCH  26  28
ATOM     28  O   UNL     1      -9.284 -12.623  18.669  0.00  0.00    +0.000 OA
ATOM     29  H   UNL     1     -10.252 -12.554  18.569  0.00  0.00    +0.000 HD
ENDBRANCH  26  28
ENDBRANCH  20  26
ENDBRANCH  13  15
ENDBRANCH   6  13
BRANCH   7  30
ATOM     30  O   UNL     1      -8.040  -6.726  16.111  0.00  0.00    +0.000 OA
ATOM     31  H   UNL     1      -8.633  -7.404  15.738  0.00  0.00    +0.000 HD
ENDBRANCH   7  30
ENDBRANCH   1   3
BRANCH   1  32
ATOM     32  O   UNL     1      -6.830  -3.915  20.424  0.00  0.00    +0.000 OA
BRANCH  32  37
ATOM     33  C   UNL     1      -9.071  -3.009  20.878  0.00  0.00    +0.000 C 
ATOM     34  C   UNL     1      -8.499  -1.639  21.238  0.00  0.00    +0.000 C 
ATOM     35  C   UNL     1      -7.682  -1.876  22.508  0.00  0.00    +0.000 C 
ATOM     36  C   UNL     1      -7.484  -3.390  22.632  0.00  0.00    +0.000 C 
ATOM     37  C   UNL     1      -7.963  -3.974  21.304  0.00  0.00    +0.000 C 
ATOM     38  H   UNL     1      -9.955  -3.195  21.503  0.00  0.00    +0.000 HD
ATOM     39  H   UNL     1      -9.283  -0.895  21.407  0.00  0.00    +0.000 HD
ATOM     40  H   UNL     1      -7.853  -1.258  20.438  0.00  0.00    +0.000 HD
ATOM     41  H   UNL     1      -8.209  -1.498  23.392  0.00  0.00    +0.000 HD
ATOM     42  H   UNL     1      -6.723  -1.349  22.450  0.00  0.00    +0.000 HD
ATOM     43  H   UNL     1      -8.091  -3.776  23.457  0.00  0.00    +0.000 HD
ATOM     44  H   UNL     1      -6.435  -3.625  22.842  0.00  0.00    +0.000 HD
ATOM     45  H   UNL     1      -8.331  -4.998  21.429  0.00  0.00    +0.000 HD
BRANCH  33  48
ATOM     46  O   UNL     1     -11.650  -2.473  19.898  0.00  0.00    +0.000 OA
ATOM     47  C   UNL     1     -10.811  -2.969  19.150  0.00  0.00    +0.000 C 
ATOM     48  N   UNL     1      -9.490  -3.144  19.497  0.00  0.00    +0.000 N 
ATOM     49  H   UNL     1      -8.822  -3.487  18.815  0.00  0.00    +0.000 HD
BRANCH  47  50
ATOM     50  C   UNL     1     -11.242  -3.467  17.819  0.00  0.00    +0.000 A 
ATOM     51  C   UNL     1     -11.043  -4.820  17.512  0.00  0.00    +0.000 A 
ATOM     52  C   UNL     1     -11.238  -5.281  16.206  0.00  0.00    +0.000 A 
ATOM     53  C   UNL     1     -11.623  -4.379  15.219  0.00  0.00    +0.000 A 
ATOM     54  C   UNL     1     -11.866  -3.043  15.522  0.00  0.00    +0.000 A 
ATOM     55  C   UNL     1     -11.675  -2.580  16.826  0.00  0.00    +0.000 A 
ATOM     56  H   UNL     1     -10.700  -5.508  18.281  0.00  0.00    +0.000 HD
ATOM     57  H   UNL     1     -11.057  -6.325  15.978  0.00  0.00    +0.000 HD
ATOM     58  H   UNL     1     -12.158  -2.353  14.734  0.00  0.00    +0.000 HD
ATOM     59  H   UNL     1     -11.799  -1.521  17.033  0.00  0.00    +0.000 HD
BRANCH  53  60
ATOM     60  O   UNL     1     -11.742  -4.764  13.916  0.00  0.00    +0.000 OA
ATOM     61  H   UNL     1     -10.903  -5.164  13.635  0.00  0.00    +0.000 HD
ENDBRANCH  53  60
ENDBRANCH  47  50
ENDBRANCH  33  48
ENDBRANCH  32  37
ENDBRANCH   1  32
TORSDOF 13
ENDMDL
MODEL 2
REMARK VINA RESULT:   -10.592      0.599      2.378
REMARK INTER + INTRA:         -19.955
REMARK INTER:                 -18.031
REMARK INTRA:                  -1.923
REMARK UNBOUND:                -2.861
REMARK  Name = 
REMARK  13 active torsions:
REMARK  status: ('A' for Active; 'I' for Inactive)
REMARK    1  A    between atoms: C_2  and  C_32
REMARK    2  A    between atoms: N_3  and  C_4
REMARK    3  A    between atoms: C_8  and  O_9
REMARK    4  A    between atoms: O_9  and  C_10
REMARK    5  A    between atoms: C_10  and  C_12
REMARK    6  A    between atoms: C_14  and  O_15
REMARK    7  A    between atoms: C_16  and  C_17
REMARK    8  A    between atoms: C_17  and  C_19
REMARK    9  A    between atoms: C_20  and  O_21
REMARK   10  A    between atoms: C_25  and  C_26
REMARK   11  A    between atoms: C_26  and  O_28
REMARK   12  A    between atoms: C_29  and  O_30
REMARK   13  A    between atoms: C_35  and  O_36
REMARK                            x       y       z     vdW  Elec       q    Type
REMARK                         _______ _______ _______ _____ _____    ______ ____
ROOT
ATOM      1  C   UNL     1      -6.284  -5.263  20.209  0.00  0.00    +0.000 C 
ATOM      2  O   UNL     1      -5.134  -5.489  20.537  0.00  0.00    +0.000 OA
ENDROOT
BRANCH   1   3
ATOM      3  C   UNL     1      -7.175  -6.233  19.520  0.00  0.00    +0.000 A 
ATOM      4  C   UNL     1      -7.268  -6.180  18.127  0.00  0.00    +0.000 A 
ATOM      5  C   UNL     1      -8.112  -7.069  17.458  0.00  0.00    +0.000 A 
ATOM      6  C   UNL     1      -8.844  -8.042  18.166  0.00  0.00    +0.000 A 
ATOM      7  C   UNL     1      -8.738  -8.079  19.563  0.00  0.00    +0.000 A 
ATOM      8  C   UNL     1      -7.947  -7.156  20.237  0.00  0.00    +0.000 A 
ATOM      9  H   UNL     1      -6.691  -5.441  17.577  0.00  0.00    +0.000 HD
ATOM     10  H   UNL     1      -7.931  -7.182  21.324  0.00  0.00    +0.000 HD
BRANCH   5  11
ATOM     11  O   UNL     1      -8.229  -6.963  16.099  0.00  0.00    +0.000 OA
ATOM     12  H   UNL     1      -8.782  -6.198  15.866  0.00  0.00    +0.000 HD
ENDBRANCH   5  11
BRANCH   6  13
ATOM     13  C   UNL     1      -9.660  -9.038  17.433  0.00  0.00    +0.000 C 
ATOM     14  O   UNL     1     -10.801  -8.711  17.074  0.00  0.00    +0.000 OA
BRANCH  13  15
ATOM     15  C   UNL     1      -9.134 -10.320  16.892  0.00  0.00    +0.000 A 
ATOM     16  C   UNL     1      -8.791 -11.299  17.850  0.00  0.00    +0.000 A 
ATOM     17  C   UNL     1      -8.354 -12.565  17.471  0.00  0.00    +0.000 A 
ATOM     18  C   UNL     1      -8.233 -12.883  16.124  0.00  0.00    +0.000 A 
ATOM     19  C   UNL     1      -8.558 -11.933  15.158  0.00  0.00    +0.000 A 
ATOM     20  C   UNL     1      -9.018 -10.652  15.530  0.00  0.00    +0.000 A 
ATOM     21  H   UNL     1      -8.090 -13.295  18.234  0.00  0.00    +0.000 HD
ATOM     22  H   UNL     1      -7.866 -13.865  15.829  0.00  0.00    +0.000 HD
ATOM     23  H   UNL     1      -8.423 -12.200  14.111  0.00  0.00    +0.000 HD
BRANCH  16  24
ATOM     24  O   UNL     1      -8.910 -11.102  19.204  0.00  0.00    +0.000 OA
ATOM     25  H   UNL     1      -8.730 -11.962  19.651  0.00  0.00    +0.000 HD
ENDBRANCH  16  24
BRANCH  20  26
ATOM     26  C   UNL     1      -9.314  -9.685  14.445  0.00  0.00    +0.000 C 
ATOM     27  O   UNL     1      -8.668  -8.670  14.261  0.00  0.00    +0.000 OA
BRANCH  26  28
ATOM     28  O   UNL     1     -10.376 -10.026  13.678  0.00  0.00    +0.000 OA
ATOM     29  H   UNL     1     -10.170 -10.428  12.813  0.00  0.00    +0.000 HD
ENDBRANCH  26  28
ENDBRANCH  20  26
ENDBRANCH  13  15
ENDBRANCH   6  13
BRANCH   7  30
ATOM     30  O   UNL     1      -9.371  -8.994  20.361  0.00  0.00    +0.000 OA
ATOM     31  H   UNL     1     -10.318  -9.008  20.129  0.00  0.00    +0.000 HD
ENDBRANCH   7  30
ENDBRANCH   1   3
BRANCH   1  32
ATOM     32  O   UNL     1      -6.915  -4.074  20.315  0.00  0.00    +0.000 OA
BRANCH  32  37
ATOM     33  C   UNL     1      -9.108  -3.067  20.791  0.00  0.00    +0.000 C 
ATOM     34  C   UNL     1      -8.469  -1.731  21.164  0.00  0.00    +0.000 C 
ATOM     35  C   UNL     1      -7.660  -2.022  22.428  0.00  0.00    +0.000 C 
ATOM     36  C   UNL     1      -7.535  -3.545  22.532  0.00  0.00    +0.000 C 
ATOM     37  C   UNL     1      -8.046  -4.090  21.199  0.00  0.00    +0.000 C 
ATOM     38  H   UNL     1      -9.998  -3.218  21.417  0.00  0.00    +0.000 HD
ATOM     39  H   UNL     1      -9.216  -0.952  21.346  0.00  0.00    +0.000 HD
ATOM     40  H   UNL     1      -7.809  -1.372  20.366  0.00  0.00    +0.000 HD
ATOM     41  H   UNL     1      -8.164  -1.631  23.318  0.00  0.00    +0.000 HD
ATOM     42  H   UNL     1      -6.677  -1.542  22.372  0.00  0.00    +0.000 HD
ATOM     43  H   UNL     1      -8.156  -3.912  23.355  0.00  0.00    +0.000 HD
ATOM     44  H   UNL     1      -6.497  -3.834  22.735  0.00  0.00    +0.000 HD
ATOM     45  H   UNL     1      -8.462  -5.096  21.314  0.00  0.00    +0.000 HD
BRANCH  33  48
ATOM     46  O   UNL     1     -11.719  -2.600  19.861  0.00  0.00    +0.000 OA
ATOM     47  C   UNL     1     -10.870  -3.032  19.085  0.00  0.00    +0.000 C 
ATOM     48  N   UNL     1      -9.539  -3.165  19.410  0.00  0.00    +0.000 N 
ATOM     49  H   UNL     1      -8.866  -3.453  18.708  0.00  0.00    +0.000 HD
BRANCH  47  50
ATOM     50  C   UNL     1     -11.297  -3.494  17.740  0.00  0.00    +0.000 A 
ATOM     51  C   UNL     1     -11.147  -4.850  17.417  0.00  0.00    +0.000 A 
ATOM     52  C   UNL     1     -11.337  -5.284  16.102  0.00  0.00    +0.000 A 
ATOM     53  C   UNL     1     -11.668  -4.355  15.121  0.00  0.00    +0.000 A 
ATOM     54  C   UNL     1     -11.864  -3.014  15.439  0.00  0.00    +0.000 A 
ATOM     55  C   UNL     1     -11.677  -2.577  16.752  0.00  0.00    +0.000 A 
ATOM     56  H   UNL     1     -10.846  -5.561  18.183  0.00  0.00    +0.000 HD
ATOM     57  H   UNL     1     -11.194  -6.333  15.863  0.00  0.00    +0.000 HD
ATOM     58  H   UNL     1     -12.114  -2.303  14.656  0.00  0.00    +0.000 HD
ATOM     59  H   UNL     1     -11.762  -1.516  16.972  0.00  0.00    +0.000 HD
BRANCH  53  60
ATOM     60  O   UNL     1     -11.780  -4.718  13.811  0.00  0.00    +0.000 OA
ATOM     61  H   UNL     1     -12.338  -4.065  13.357  0.00  0.00    +0.000 HD
ENDBRANCH  53  60
ENDBRANCH  47  50
ENDBRANCH  33  48
ENDBRANCH  32  37
ENDBRANCH   1  32
TORSDOF 13
ENDMDL
MODEL 3
REMARK VINA RESULT:    -9.813      2.900      8.636
REMARK INTER + INTRA:         -18.697
REMARK INTER:                 -16.217
REMARK INTRA:                  -2.480
REMARK UNBOUND:                -2.861
REMARK  Name = 
REMARK  13 active torsions:
REMARK  status: ('A' for Active; 'I' for Inactive)
REMARK    1  A    between atoms: C_2  and  C_32
REMARK    2  A    between atoms: N_3  and  C_4
REMARK    3  A    between atoms: C_8  and  O_9
REMARK    4  A    between atoms: O_9  and  C_10
REMARK    5  A    between atoms: C_10  and  C_12
REMARK    6  A    between atoms: C_14  and  O_15
REMARK    7  A    between atoms: C_16  and  C_17
REMARK    8  A    between atoms: C_17  and  C_19
REMARK    9  A    between atoms: C_20  and  O_21
REMARK   10  A    between atoms: C_25  and  C_26
REMARK   11  A    between atoms: C_26  and  O_28
REMARK   12  A    between atoms: C_29  and  O_30
REMARK   13  A    between atoms: C_35  and  O_36
REMARK                            x       y       z     vdW  Elec       q    Type
REMARK                         _______ _______ _______ _____ _____    ______ ____
ROOT
ATOM      1  C   UNL     1     -10.735  -7.281  16.714  0.00  0.00    +0.000 C 
ATOM      2  O   UNL     1     -11.005  -8.299  16.103  0.00  0.00    +0.000 OA
ENDROOT
BRANCH   1   3
ATOM      3  C   UNL     1     -10.747  -5.914  16.133  0.00  0.00    +0.000 A 
ATOM      4  C   UNL     1      -9.884  -5.633  15.069  0.00  0.00    +0.000 A 
ATOM      5  C   UNL     1      -9.864  -4.352  14.518  0.00  0.00    +0.000 A 
ATOM      6  C   UNL     1     -10.727  -3.346  14.994  0.00  0.00    +0.000 A 
ATOM      7  C   UNL     1     -11.585  -3.645  16.061  0.00  0.00    +0.000 A 
ATOM      8  C   UNL     1     -11.564  -4.902  16.653  0.00  0.00    +0.000 A 
ATOM      9  H   UNL     1      -9.229  -6.413  14.689  0.00  0.00    +0.000 HD
ATOM     10  H   UNL     1     -12.205  -5.082  17.513  0.00  0.00    +0.000 HD
BRANCH   5  11
ATOM     11  O   UNL     1      -8.973  -4.085  13.514  0.00  0.00    +0.000 OA
ATOM     12  H   UNL     1      -8.073  -4.331  13.787  0.00  0.00    +0.000 HD
ENDBRANCH   5  11
BRANCH   6  13
ATOM     13  C   UNL     1     -10.760  -2.019  14.334  0.00  0.00    +0.000 C 
ATOM     14  O   UNL     1      -9.740  -1.317  14.378  0.00  0.00    +0.000 OA
BRANCH  13  15
ATOM     15  C   UNL     1     -11.845  -1.561  13.426  0.00  0.00    +0.000 A 
ATOM     16  C   UNL     1     -12.727  -0.594  13.956  0.00  0.00    +0.000 A 
ATOM     17  C   UNL     1     -13.740  -0.032  13.184  0.00  0.00    +0.000 A 
ATOM     18  C   UNL     1     -13.911  -0.434  11.866  0.00  0.00    +0.000 A 
ATOM     19  C   UNL     1     -13.059  -1.391  11.319  0.00  0.00    +0.000 A 
ATOM     20  C   UNL     1     -12.018  -1.955  12.085  0.00  0.00    +0.000 A 
ATOM     21  H   UNL     1     -14.409   0.705  13.626  0.00  0.00    +0.000 HD
ATOM     22  H   UNL     1     -14.720  -0.013  11.271  0.00  0.00    +0.000 HD
ATOM     23  H   UNL     1     -13.237  -1.709  10.293  0.00  0.00    +0.000 HD
BRANCH  16  24
ATOM     24  O   UNL     1     -12.623  -0.101  15.234  0.00  0.00    +0.000 OA
ATOM     25  H   UNL     1     -11.665  -0.043  15.458  0.00  0.00    +0.000 HD
ENDBRANCH  16  24
BRANCH  20  26
ATOM     26  C   UNL     1     -11.173  -2.991  11.444  0.00  0.00    +0.000 C 
ATOM     27  O   UNL     1     -11.491  -4.164  11.377  0.00  0.00    +0.000 OA
BRANCH  26  28
ATOM     28  O   UNL     1     -10.008  -2.519  10.944  0.00  0.00    +0.000 OA
ATOM     29  H   UNL     1      -9.519  -1.893  11.511  0.00  0.00    +0.000 HD
ENDBRANCH  26  28
ENDBRANCH  20  26
ENDBRANCH  13  15
ENDBRANCH   6  13
BRANCH   7  30
ATOM     30  O   UNL     1     -12.492  -2.768  16.592  0.00  0.00    +0.000 OA
ATOM     31  H   UNL     1     -13.091  -2.471  15.883  0.00  0.00    +0.000 HD
ENDBRANCH   7  30
ENDBRANCH   1   3
BRANCH   1  32
ATOM     32  O   UNL     1     -10.282  -7.222  17.985  0.00  0.00    +0.000 OA
BRANCH  32  37
ATOM     33  C   UNL     1      -8.406  -8.654  18.677  0.00  0.00    +0.000 C 
ATOM     34  C   UNL     1      -8.810  -8.557  20.148  0.00  0.00    +0.000 C 
ATOM     35  C   UNL     1      -8.606  -7.087  20.515  0.00  0.00    +0.000 C 
ATOM     36  C   UNL     1      -8.470  -6.317  19.198  0.00  0.00    +0.000 C 
ATOM     37  C   UNL     1      -8.854  -7.309  18.102  0.00  0.00    +0.000 C 
ATOM     38  H   UNL     1      -7.310  -8.712  18.617  0.00  0.00    +0.000 HD
ATOM     39  H   UNL     1      -8.206  -9.209  20.785  0.00  0.00    +0.000 HD
ATOM     40  H   UNL     1      -9.859  -8.841  20.288  0.00  0.00    +0.000 HD
ATOM     41  H   UNL     1      -7.701  -6.953  21.118  0.00  0.00    +0.000 HD
ATOM     42  H   UNL     1      -9.451  -6.721  21.109  0.00  0.00    +0.000 HD
ATOM     43  H   UNL     1      -7.434  -5.989  19.067  0.00  0.00    +0.000 HD
ATOM     44  H   UNL     1      -9.109  -5.427  19.204  0.00  0.00    +0.000 HD
ATOM     45  H   UNL     1      -8.351  -7.073  17.158  0.00  0.00    +0.000 HD
BRANCH  33  48
ATOM     46  O   UNL     1      -7.770 -11.329  19.256  0.00  0.00    +0.000 OA
ATOM     47  C   UNL     1      -8.458 -11.072  18.271  0.00  0.00    +0.000 C 
ATOM     48  N   UNL     1      -8.931  -9.812  17.982  0.00  0.00    +0.000 N 
ATOM     49  H   UNL     1      -9.560  -9.668  17.199  0.00  0.00    +0.000 HD
BRANCH  47  50
ATOM     50  C   UNL     1      -8.755 -12.155  17.301  0.00  0.00    +0.000 A 
ATOM     51  C   UNL     1      -8.859 -13.471  17.774  0.00  0.00    +0.000 A 
ATOM     52  C   UNL     1      -8.926 -14.539  16.875  0.00  0.00    +0.000 A 
ATOM     53  C   UNL     1      -8.880 -14.280  15.509  0.00  0.00    +0.000 A 
ATOM     54  C   UNL     1      -8.822 -12.976  15.027  0.00  0.00    +0.000 A 
ATOM     55  C   UNL     1      -8.757 -11.906  15.923  0.00  0.00    +0.000 A 
ATOM     56  H   UNL     1      -8.850 -13.666  18.845  0.00  0.00    +0.000 HD
ATOM     57  H   UNL     1      -8.982 -15.553  17.257  0.00  0.00    +0.000 HD
ATOM     58  H   UNL     1      -8.778 -12.795  13.956  0.00  0.00    +0.000 HD
ATOM     59  H   UNL     1      -8.639 -10.898  15.534  0.00  0.00    +0.000 HD
BRANCH  53  60
ATOM     60  O   UNL     1      -8.856 -15.293  14.596  0.00  0.00    +0.000 OA
ATOM     61  H   UNL     1      -9.055 -16.126  15.056  0.00  0.00    +0.000 HD
ENDBRANCH  53  60
ENDBRANCH  47  50
ENDBRANCH  33  48
ENDBRANCH  32  37
ENDBRANCH   1  32
TORSDOF 13
ENDMDL
MODEL 4
REMARK VINA RESULT:    -9.782      2.927      8.618
REMARK INTER + INTRA:         -18.647
REMARK INTER:                 -16.474
REMARK INTRA:                  -2.173
REMARK UNBOUND:                -2.861
REMARK  Name = 
REMARK  13 active torsions:
REMARK  status: ('A' for Active; 'I' for Inactive)
REMARK    1  A    between atoms: C_2  and  C_32
REMARK    2  A    between atoms: N_3  and  C_4
REMARK    3  A    between atoms: C_8  and  O_9
REMARK    4  A    between atoms: O_9  and  C_10
REMARK    5  A    between atoms: C_10  and  C_12
REMARK    6  A    between atoms: C_14  and  O_15
REMARK    7  A    between atoms: C_16  and  C_17
REMARK    8  A    between atoms: C_17  and  C_19
REMARK    9  A    between atoms: C_20  and  O_21
REMARK   10  A    between atoms: C_25  and  C_26
REMARK   11  A    between atoms: C_26  and  O_28
REMARK   12  A    between atoms: C_29  and  O_30
REMARK   13  A    between atoms: C_35  and  O_36
REMARK                            x       y       z     vdW  Elec       q    Type
REMARK                         _______ _______ _______ _____ _____    ______ ____
ROOT
ATOM      1  C   UNL     1     -10.723  -7.380  16.810  0.00  0.00    +0.000 C 
ATOM      2  O   UNL     1     -11.012  -8.405  16.220  0.00  0.00    +0.000 OA
ENDROOT
BRANCH   1   3
ATOM      3  C   UNL     1     -10.699  -6.026  16.198  0.00  0.00    +0.000 A 
ATOM      4  C   UNL     1      -9.796  -5.779  15.160  0.00  0.00    +0.000 A 
ATOM      5  C   UNL     1      -9.743  -4.511  14.580  0.00  0.00    +0.000 A 
ATOM      6  C   UNL     1     -10.611  -3.485  15.002  0.00  0.00    +0.000 A 
ATOM      7  C   UNL     1     -11.509  -3.752  16.044  0.00  0.00    +0.000 A 
ATOM      8  C   UNL     1     -11.523  -4.995  16.666  0.00  0.00    +0.000 A 
ATOM      9  H   UNL     1      -9.136  -6.574  14.821  0.00  0.00    +0.000 HD
ATOM     10  H   UNL     1     -12.196  -5.148  17.506  0.00  0.00    +0.000 HD
BRANCH   5  11
ATOM     11  O   UNL     1      -8.813  -4.276  13.604  0.00  0.00    +0.000 OA
ATOM     12  H   UNL     1      -9.146  -4.574  12.741  0.00  0.00    +0.000 HD
ENDBRANCH   5  11
BRANCH   6  13
ATOM     13  C   UNL     1     -10.606  -2.174  14.312  0.00  0.00    +0.000 C 
ATOM     14  O   UNL     1      -9.583  -1.477  14.385  0.00  0.00    +0.000 OA
BRANCH  13  15
ATOM     15  C   UNL     1     -11.647  -1.730  13.347  0.00  0.00    +0.000 A 
ATOM     16  C   UNL     1     -11.565  -2.283  12.051  0.00  0.00    +0.000 A 
ATOM     17  C   UNL     1     -12.521  -2.002  11.078  0.00  0.00    +0.000 A 
ATOM     18  C   UNL     1     -13.575  -1.147  11.369  0.00  0.00    +0.000 A 
ATOM     19  C   UNL     1     -13.677  -0.581  12.639  0.00  0.00    +0.000 A 
ATOM     20  C   UNL     1     -12.725  -0.872  13.638  0.00  0.00    +0.000 A 
ATOM     21  H   UNL     1     -12.425  -2.439  10.086  0.00  0.00    +0.000 HD
ATOM     22  H   UNL     1     -14.308  -0.907  10.600  0.00  0.00    +0.000 HD
ATOM     23  H   UNL     1     -14.497   0.110  12.828  0.00  0.00    +0.000 HD
BRANCH  16  24
ATOM     24  O   UNL     1     -10.586  -3.168  11.670  0.00  0.00    +0.000 OA
ATOM     25  H   UNL     1      -9.772  -2.649  11.469  0.00  0.00    +0.000 HD
ENDBRANCH  16  24
BRANCH  20  26
ATOM     26  C   UNL     1     -12.882  -0.206  14.954  0.00  0.00    +0.000 C 
ATOM     27  O   UNL     1     -12.131   0.662  15.356  0.00  0.00    +0.000 OA
BRANCH  26  28
ATOM     28  O   UNL     1     -13.934  -0.658  15.676  0.00  0.00    +0.000 OA
ATOM     29  H   UNL     1     -14.725  -0.915  15.167  0.00  0.00    +0.000 HD
ENDBRANCH  26  28
ENDBRANCH  20  26
ENDBRANCH  13  15
ENDBRANCH   6  13
BRANCH   7  30
ATOM     30  O   UNL     1     -12.425  -2.853  16.523  0.00  0.00    +0.000 OA
ATOM     31  H   UNL     1     -13.181  -3.346  16.893  0.00  0.00    +0.000 HD
ENDBRANCH   7  30
ENDBRANCH   1   3
BRANCH   1  32
ATOM     32  O   UNL     1     -10.277  -7.302  18.082  0.00  0.00    +0.000 OA
BRANCH  32  37
ATOM     33  C   UNL     1      -8.409  -8.744  18.775  0.00  0.00    +0.000 C 
ATOM     34  C   UNL     1      -8.824  -8.661  20.243  0.00  0.00    +0.000 C 
ATOM     35  C   UNL     1      -8.620  -7.195  20.626  0.00  0.00    +0.000 C 
ATOM     36  C   UNL     1      -8.472  -6.412  19.318  0.00  0.00    +0.000 C 
ATOM     37  C   UNL     1      -8.850  -7.393  18.209  0.00  0.00    +0.000 C 
ATOM     38  H   UNL     1      -7.313  -8.803  18.723  0.00  0.00    +0.000 HD
ATOM     39  H   UNL     1      -8.226  -9.320  20.879  0.00  0.00    +0.000 HD
ATOM     40  H   UNL     1      -9.875  -8.944  20.373  0.00  0.00    +0.000 HD
ATOM     41  H   UNL     1      -7.719  -7.068  21.237  0.00  0.00    +0.000 HD
ATOM     42  H   UNL     1      -9.469  -6.833  21.217  0.00  0.00    +0.000 HD
ATOM     43  H   UNL     1      -7.435  -6.085  19.197  0.00  0.00    +0.000 HD
ATOM     44  H   UNL     1      -9.111  -5.521  19.328  0.00  0.00    +0.000 HD
ATOM     45  H   UNL     1      -8.340  -7.149  17.271  0.00  0.00    +0.000 HD
BRANCH  33  48
ATOM     46  O   UNL     1      -7.723 -11.422  19.282  0.00  0.00    +0.000 OA
ATOM     47  C   UNL     1      -8.434 -11.153  18.316  0.00  0.00    +0.000 C 
ATOM     48  N   UNL     1      -8.931  -9.895  18.064  0.00  0.00    +0.000 N 
ATOM     49  H   UNL     1      -9.577  -9.743  17.297  0.00  0.00    +0.000 HD
BRANCH  47  50
ATOM     50  C   UNL     1      -8.734 -12.220  17.328  0.00  0.00    +0.000 A 
ATOM     51  C   UNL     1      -8.819 -13.546  17.776  0.00  0.00    +0.000 A 
ATOM     52  C   UNL     1      -8.889 -14.596  16.857  0.00  0.00    +0.000 A 
ATOM     53  C   UNL     1      -8.864 -14.308  15.495  0.00  0.00    +0.000 A 
ATOM     54  C   UNL     1      -8.825 -12.994  15.039  0.00  0.00    +0.000 A 
ATOM     55  C   UNL     1      -8.758 -11.943  15.956  0.00  0.00    +0.000 A 
ATOM     56  H   UNL     1      -8.794 -13.762  18.842  0.00  0.00    +0.000 HD
ATOM     57  H   UNL     1      -8.931 -15.618  17.218  0.00  0.00    +0.000 HD
ATOM     58  H   UNL     1      -8.798 -12.792  13.972  0.00  0.00    +0.000 HD
ATOM     59  H   UNL     1      -8.655 -10.926  15.586  0.00  0.00    +0.000 HD
BRANCH  53  60
ATOM     60  O   UNL     1      -8.844 -15.303  14.562  0.00  0.00    +0.000 OA
ATOM     61  H   UNL     1      -8.198 -15.973  14.840  0.00  0.00    +0.000 HD
ENDBRANCH  53  60
ENDBRANCH  47  50
ENDBRANCH  33  48
ENDBRANCH  32  37
ENDBRANCH   1  32
TORSDOF 13
ENDMDL
MODEL 5
REMARK VINA RESULT:    -9.684      1.319      2.608
REMARK INTER + INTRA:         -18.489
REMARK INTER:                 -16.232
REMARK INTRA:                  -2.257
REMARK UNBOUND:                -2.861
REMARK  Name = 
REMARK  13 active torsions:
REMARK  status: ('A' for Active; 'I' for Inactive)
REMARK    1  A    between atoms: C_2  and  C_32
REMARK    2  A    between atoms: N_3  and  C_4
REMARK    3  A    between atoms: C_8  and  O_9
REMARK    4  A    between atoms: O_9  and  C_10
REMARK    5  A    between atoms: C_10  and  C_12
REMARK    6  A    between atoms: C_14  and  O_15
REMARK    7  A    between atoms: C_16  and  C_17
REMARK    8  A    between atoms: C_17  and  C_19
REMARK    9  A    between atoms: C_20  and  O_21
REMARK   10  A    between atoms: C_25  and  C_26
REMARK   11  A    between atoms: C_26  and  O_28
REMARK   12  A    between atoms: C_29  and  O_30
REMARK   13  A    between atoms: C_35  and  O_36
REMARK                            x       y       z     vdW  Elec       q    Type
REMARK                         _______ _______ _______ _____ _____    ______ ____
ROOT
ATOM      1  C   UNL     1      -7.170  -4.987  19.916  0.00  0.00    +0.000 C 
ATOM      2  O   UNL     1      -6.211  -5.087  20.660  0.00  0.00    +0.000 OA
ENDROOT
BRANCH   1   3
ATOM      3  C   UNL     1      -7.827  -6.126  19.223  0.00  0.00    +0.000 A 
ATOM      4  C   UNL     1      -8.460  -7.103  19.996  0.00  0.00    +0.000 A 
ATOM      5  C   UNL     1      -9.069  -8.191  19.370  0.00  0.00    +0.000 A 
ATOM      6  C   UNL     1      -9.085  -8.300  17.966  0.00  0.00    +0.000 A 
ATOM      7  C   UNL     1      -8.445  -7.311  17.207  0.00  0.00    +0.000 A 
ATOM      8  C   UNL     1      -7.785  -6.258  17.829  0.00  0.00    +0.000 A 
ATOM      9  H   UNL     1      -8.463  -7.012  21.080  0.00  0.00    +0.000 HD
ATOM     10  H   UNL     1      -7.255  -5.539  17.210  0.00  0.00    +0.000 HD
BRANCH   5  11
ATOM     11  O   UNL     1      -9.634  -9.164  20.149  0.00  0.00    +0.000 OA
ATOM     12  H   UNL     1      -9.230  -9.166  21.032  0.00  0.00    +0.000 HD
ENDBRANCH   5  11
BRANCH   6  13
ATOM     13  C   UNL     1      -9.818  -9.411  17.314  0.00  0.00    +0.000 C 
ATOM     14  O   UNL     1     -11.002  -9.226  16.997  0.00  0.00    +0.000 OA
BRANCH  13  15
ATOM     15  C   UNL     1      -9.178 -10.653  16.803  0.00  0.00    +0.000 A 
ATOM     16  C   UNL     1      -8.784 -11.592  17.782  0.00  0.00    +0.000 A 
ATOM     17  C   UNL     1      -8.239 -12.823  17.429  0.00  0.00    +0.000 A 
ATOM     18  C   UNL     1      -8.057 -13.144  16.091  0.00  0.00    +0.000 A 
ATOM     19  C   UNL     1      -8.431 -12.233  15.105  0.00  0.00    +0.000 A 
ATOM     20  C   UNL     1      -9.000 -10.989  15.448  0.00  0.00    +0.000 A 
ATOM     21  H   UNL     1      -7.938 -13.522  18.208  0.00  0.00    +0.000 HD
ATOM     22  H   UNL     1      -7.606 -14.097  15.817  0.00  0.00    +0.000 HD
ATOM     23  H   UNL     1      -8.247 -12.499  14.065  0.00  0.00    +0.000 HD
BRANCH  16  24
ATOM     24  O   UNL     1      -8.954 -11.391  19.129  0.00  0.00    +0.000 OA
ATOM     25  H   UNL     1      -9.756 -11.891  19.410  0.00  0.00    +0.000 HD
ENDBRANCH  16  24
BRANCH  20  26
ATOM     26  C   UNL     1      -9.343 -10.059  14.344  0.00  0.00    +0.000 C 
ATOM     27  O   UNL     1     -10.434 -10.035  13.807  0.00  0.00    +0.000 OA
BRANCH  26  28
ATOM     28  O   UNL     1      -8.328  -9.242  13.980  0.00  0.00    +0.000 OA
ATOM     29  H   UNL     1      -8.540  -8.291  13.924  0.00  0.00    +0.000 HD
ENDBRANCH  26  28
ENDBRANCH  20  26
ENDBRANCH  13  15
ENDBRANCH   6  13
BRANCH   7  30
ATOM     30  O   UNL     1      -8.418  -7.284  15.838  0.00  0.00    +0.000 OA
ATOM     31  H   UNL     1      -8.767  -8.131  15.503  0.00  0.00    +0.000 HD
ENDBRANCH   7  30
ENDBRANCH   1   3
BRANCH   1  32
ATOM     32  O   UNL     1      -7.738  -3.831  19.513  0.00  0.00    +0.000 OA
BRANCH  32  37
ATOM     33  C   UNL     1      -9.813  -2.560  19.154  0.00  0.00    +0.000 C 
ATOM     34  C   UNL     1      -9.190  -1.286  19.723  0.00  0.00    +0.000 C 
ATOM     35  C   UNL     1      -8.930  -1.601  21.197  0.00  0.00    +0.000 C 
ATOM     36  C   UNL     1      -9.041  -3.122  21.350  0.00  0.00    +0.000 C 
ATOM     37  C   UNL     1      -9.103  -3.673  19.927  0.00  0.00    +0.000 C 
ATOM     38  H   UNL     1     -10.880  -2.577  19.417  0.00  0.00    +0.000 HD
ATOM     39  H   UNL     1      -9.850  -0.420  19.616  0.00  0.00    +0.000 HD
ATOM     40  H   UNL     1      -8.249  -1.046  19.216  0.00  0.00    +0.000 HD
ATOM     41  H   UNL     1      -9.668  -1.110  21.841  0.00  0.00    +0.000 HD
ATOM     42  H   UNL     1      -7.942  -1.238  21.497  0.00  0.00    +0.000 HD
ATOM     43  H   UNL     1      -9.956  -3.373  21.895  0.00  0.00    +0.000 HD
ATOM     44  H   UNL     1      -8.189  -3.514  21.917  0.00  0.00    +0.000 HD
ATOM     45  H   UNL     1      -9.654  -4.619  19.891  0.00  0.00    +0.000 HD
BRANCH  33  48
ATOM     46  O   UNL     1     -11.862  -1.914  17.342  0.00  0.00    +0.000 OA
ATOM     47  C   UNL     1     -10.836  -2.448  16.927  0.00  0.00    +0.000 C 
ATOM     48  N   UNL     1      -9.728  -2.680  17.711  0.00  0.00    +0.000 N 
ATOM     49  H   UNL     1      -8.880  -3.054  17.301  0.00  0.00    +0.000 HD
BRANCH  47  50
ATOM     50  C   UNL     1     -10.796  -2.929  15.524  0.00  0.00    +0.000 A 
ATOM     51  C   UNL     1     -11.513  -2.220  14.550  0.00  0.00    +0.000 A 
ATOM     52  C   UNL     1     -11.673  -2.752  13.268  0.00  0.00    +0.000 A 
ATOM     53  C   UNL     1     -11.121  -3.996  12.975  0.00  0.00    +0.000 A 
ATOM     54  C   UNL     1     -10.370  -4.688  13.920  0.00  0.00    +0.000 A 
ATOM     55  C   UNL     1     -10.205  -4.157  15.201  0.00  0.00    +0.000 A 
ATOM     56  H   UNL     1     -11.978  -1.269  14.802  0.00  0.00    +0.000 HD
ATOM     57  H   UNL     1     -12.251  -2.203  12.532  0.00  0.00    +0.000 HD
ATOM     58  H   UNL     1      -9.954  -5.661  13.673  0.00  0.00    +0.000 HD
ATOM     59  H   UNL     1      -9.677  -4.741  15.950  0.00  0.00    +0.000 HD
BRANCH  53  60
ATOM     60  O   UNL     1     -11.324  -4.593  11.766  0.00  0.00    +0.000 OA
ATOM     61  H   UNL     1     -10.471  -4.926  11.440  0.00  0.00    +0.000 HD
ENDBRANCH  53  60
ENDBRANCH  47  50
ENDBRANCH  33  48
ENDBRANCH  32  37
ENDBRANCH   1  32
TORSDOF 13
ENDMDL
MODEL 6
REMARK VINA RESULT:    -9.508      3.145      8.397
REMARK INTER + INTRA:         -18.205
REMARK INTER:                 -16.256
REMARK INTRA:                  -1.949
REMARK UNBOUND:                -2.861
REMARK  Name = 
REMARK  13 active torsions:
REMARK  status: ('A' for Active; 'I' for Inactive)
REMARK    1  A    between atoms: C_2  and  C_32
REMARK    2  A    between atoms: N_3  and  C_4
REMARK    3  A    between atoms: C_8  and  O_9
REMARK    4  A    between atoms: O_9  and  C_10
REMARK    5  A    between atoms: C_10  and  C_12
REMARK    6  A    between atoms: C_14  and  O_15
REMARK    7  A    between atoms: C_16  and  C_17
REMARK    8  A    between atoms: C_17  and  C_19
REMARK    9  A    between atoms: C_20  and  O_21
REMARK   10  A    between atoms: C_25  and  C_26
REMARK   11  A    between atoms: C_26  and  O_28
REMARK   12  A    between atoms: C_29  and  O_30
REMARK   13  A    between atoms: C_35  and  O_36
REMARK                            x       y       z     vdW  Elec       q    Type
REMARK                         _______ _______ _______ _____ _____    ______ ____
ROOT
ATOM      1  C   UNL     1     -10.725  -7.281  16.644  0.00  0.00    +0.000 C 
ATOM      2  O   UNL     1     -11.070  -8.320  16.111  0.00  0.00    +0.000 OA
ENDROOT
BRANCH   1   3
ATOM      3  C   UNL     1     -10.625  -5.968  15.957  0.00  0.00    +0.000 A 
ATOM      4  C   UNL     1     -11.558  -4.976  16.273  0.00  0.00    +0.000 A 
ATOM      5  C   UNL     1     -11.496  -3.740  15.629  0.00  0.00    +0.000 A 
ATOM      6  C   UNL     1     -10.484  -3.465  14.689  0.00  0.00    +0.000 A 
ATOM      7  C   UNL     1      -9.558  -4.471  14.384  0.00  0.00    +0.000 A 
ATOM      8  C   UNL     1      -9.653  -5.723  14.979  0.00  0.00    +0.000 A 
ATOM      9  H   UNL     1     -12.331  -5.181  17.011  0.00  0.00    +0.000 HD
ATOM     10  H   UNL     1      -8.949  -6.496  14.678  0.00  0.00    +0.000 HD
BRANCH   5  11
ATOM     11  O   UNL     1     -12.454  -2.805  15.914  0.00  0.00    +0.000 OA
ATOM     12  H   UNL     1     -12.056  -1.920  15.969  0.00  0.00    +0.000 HD
ENDBRANCH   5  11
BRANCH   6  13
ATOM     13  C   UNL     1     -10.377  -2.116  14.085  0.00  0.00    +0.000 C 
ATOM     14  O   UNL     1     -10.232  -1.145  14.842  0.00  0.00    +0.000 OA
BRANCH  13  15
ATOM     15  C   UNL     1     -10.200  -1.859  12.631  0.00  0.00    +0.000 A 
ATOM     16  C   UNL     1      -8.923  -1.403  12.235  0.00  0.00    +0.000 A 
ATOM     17  C   UNL     1      -8.610  -1.194  10.895  0.00  0.00    +0.000 A 
ATOM     18  C   UNL     1      -9.567  -1.419   9.915  0.00  0.00    +0.000 A 
ATOM     19  C   UNL     1     -10.837  -1.863  10.278  0.00  0.00    +0.000 A 
ATOM     20  C   UNL     1     -11.162  -2.095  11.631  0.00  0.00    +0.000 A 
ATOM     21  H   UNL     1      -7.619  -0.834  10.623  0.00  0.00    +0.000 HD
ATOM     22  H   UNL     1      -9.328  -1.230   8.869  0.00  0.00    +0.000 HD
ATOM     23  H   UNL     1     -11.577  -2.000   9.491  0.00  0.00    +0.000 HD
BRANCH  16  24
ATOM     24  O   UNL     1      -7.895  -1.185  13.118  0.00  0.00    +0.000 OA
ATOM     25  H   UNL     1      -7.308  -1.977  13.099  0.00  0.00    +0.000 HD
ENDBRANCH  16  24
BRANCH  20  26
ATOM     26  C   UNL     1     -12.544  -2.536  11.942  0.00  0.00    +0.000 C 
ATOM     27  O   UNL     1     -13.467  -1.763  12.119  0.00  0.00    +0.000 OA
BRANCH  26  28
ATOM     28  O   UNL     1     -12.688  -3.879  12.020  0.00  0.00    +0.000 OA
ATOM     29  H   UNL     1     -13.126  -4.309  11.262  0.00  0.00    +0.000 HD
ENDBRANCH  26  28
ENDBRANCH  20  26
ENDBRANCH  13  15
ENDBRANCH   6  13
BRANCH   7  30
ATOM     30  O   UNL     1      -8.511  -4.319  13.515  0.00  0.00    +0.000 OA
ATOM     31  H   UNL     1      -8.204  -5.202  13.239  0.00  0.00    +0.000 HD
ENDBRANCH   7  30
ENDBRANCH   1   3
BRANCH   1  32
ATOM     32  O   UNL     1     -10.277  -7.157  17.912  0.00  0.00    +0.000 OA
BRANCH  32  37
ATOM     33  C   UNL     1      -8.406  -8.583  18.629  0.00  0.00    +0.000 C 
ATOM     34  C   UNL     1      -8.821  -8.477  20.095  0.00  0.00    +0.000 C 
ATOM     35  C   UNL     1      -8.620  -7.004  20.454  0.00  0.00    +0.000 C 
ATOM     36  C   UNL     1      -8.474  -6.243  19.132  0.00  0.00    +0.000 C 
ATOM     37  C   UNL     1      -8.850  -7.243  18.041  0.00  0.00    +0.000 C 
ATOM     38  H   UNL     1      -7.310  -8.642  18.577  0.00  0.00    +0.000 HD
ATOM     39  H   UNL     1      -8.222  -9.124  20.742  0.00  0.00    +0.000 HD
ATOM     40  H   UNL     1      -9.872  -8.759  20.230  0.00  0.00    +0.000 HD
ATOM     41  H   UNL     1      -7.719  -6.865  21.062  0.00  0.00    +0.000 HD
ATOM     42  H   UNL     1      -9.469  -6.633  21.038  0.00  0.00    +0.000 HD
ATOM     43  H   UNL     1      -7.437  -5.916  19.006  0.00  0.00    +0.000 HD
ATOM     44  H   UNL     1      -9.114  -5.353  19.127  0.00  0.00    +0.000 HD
ATOM     45  H   UNL     1      -8.340  -7.014  17.098  0.00  0.00    +0.000 HD
BRANCH  33  48
ATOM     46  O   UNL     1      -7.793 -11.256  19.247  0.00  0.00    +0.000 OA
ATOM     47  C   UNL     1      -8.465 -11.006  18.248  0.00  0.00    +0.000 C 
ATOM     48  N   UNL     1      -8.927  -9.747  17.938  0.00  0.00    +0.000 N 
ATOM     49  H   UNL     1      -9.542  -9.608  17.144  0.00  0.00    +0.000 HD
BRANCH  47  50
ATOM     50  C   UNL     1      -8.751 -12.099  17.285  0.00  0.00    +0.000 A 
ATOM     51  C   UNL     1      -8.854 -13.411  17.769  0.00  0.00    +0.000 A 
ATOM     52  C   UNL     1      -8.912 -14.486  16.879  0.00  0.00    +0.000 A 
ATOM     53  C   UNL     1      -8.858 -14.238  15.511  0.00  0.00    +0.000 A 
ATOM     54  C   UNL     1      -8.801 -12.938  15.018  0.00  0.00    +0.000 A 
ATOM     55  C   UNL     1      -8.746 -11.861  15.905  0.00  0.00    +0.000 A 
ATOM     56  H   UNL     1      -8.851 -13.596  18.841  0.00  0.00    +0.000 HD
ATOM     57  H   UNL     1      -8.967 -15.497  17.268  0.00  0.00    +0.000 HD
ATOM     58  H   UNL     1      -8.752 -12.767  13.946  0.00  0.00    +0.000 HD
ATOM     59  H   UNL     1      -8.629 -10.856  15.508  0.00  0.00    +0.000 HD
BRANCH  53  60
ATOM     60  O   UNL     1      -8.825 -15.259  14.607  0.00  0.00    +0.000 OA
ATOM     61  H   UNL     1      -8.002 -15.192  14.095  0.00  0.00    +0.000 HD
ENDBRANCH  53  60
ENDBRANCH  47  50
ENDBRANCH  33  48
ENDBRANCH  32  37
ENDBRANCH   1  32
TORSDOF 13
ENDMDL
MODEL 7
REMARK VINA RESULT:    -9.205      1.460      5.170
REMARK INTER + INTRA:         -17.716
REMARK INTER:                 -17.183
REMARK INTRA:                  -0.533
REMARK UNBOUND:                -2.861
REMARK  Name = 
REMARK  13 active torsions:
REMARK  status: ('A' for Active; 'I' for Inactive)
REMARK    1  A    between atoms: C_2  and  C_32
REMARK    2  A    between atoms: N_3  and  C_4
REMARK    3  A    between atoms: C_8  and  O_9
REMARK    4  A    between atoms: O_9  and  C_10
REMARK    5  A    between atoms: C_10  and  C_12
REMARK    6  A    between atoms: C_14  and  O_15
REMARK    7  A    between atoms: C_16  and  C_17
REMARK    8  A    between atoms: C_17  and  C_19
REMARK    9  A    between atoms: C_20  and  O_21
REMARK   10  A    between atoms: C_25  and  C_26
REMARK   11  A    between atoms: C_26  and  O_28
REMARK   12  A    between atoms: C_29  and  O_30
REMARK   13  A    between atoms: C_35  and  O_36
REMARK                            x       y       z     vdW  Elec       q    Type
REMARK                         _______ _______ _______ _____ _____    ______ ____
ROOT
ATOM      1  C   UNL     1     -10.991  -4.306  14.504  0.00  0.00    +0.000 C 
ATOM      2  O   UNL     1     -10.848  -4.357  13.296  0.00  0.00    +0.000 OA
ENDROOT
BRANCH   1   3
ATOM      3  C   UNL     1     -10.538  -5.352  15.456  0.00  0.00    +0.000 A 
ATOM      4  C   UNL     1     -11.503  -6.059  16.180  0.00  0.00    +0.000 A 
ATOM      5  C   UNL     1     -11.102  -7.034  17.093  0.00  0.00    +0.000 A 
ATOM      6  C   UNL     1      -9.739  -7.341  17.272  0.00  0.00    +0.000 A 
ATOM      7  C   UNL     1      -8.786  -6.622  16.539  0.00  0.00    +0.000 A 
ATOM      8  C   UNL     1      -9.178  -5.608  15.673  0.00  0.00    +0.000 A 
ATOM      9  H   UNL     1     -12.557  -5.835  16.031  0.00  0.00    +0.000 HD
ATOM     10  H   UNL     1      -8.408  -5.035  15.162  0.00  0.00    +0.000 HD
BRANCH   5  11
ATOM     11  O   UNL     1     -12.061  -7.675  17.830  0.00  0.00    +0.000 OA
ATOM     12  H   UNL     1     -11.842  -8.616  17.924  0.00  0.00    +0.000 HD
ENDBRANCH   5  11
BRANCH   6  13
ATOM     13  C   UNL     1      -9.338  -8.445  18.176  0.00  0.00    +0.000 C 
ATOM     14  O   UNL     1      -9.445  -8.270  19.398  0.00  0.00    +0.000 OA
BRANCH  13  15
ATOM     15  C   UNL     1      -9.031  -9.829  17.725  0.00  0.00    +0.000 A 
ATOM     16  C   UNL     1      -8.584 -10.720  18.726  0.00  0.00    +0.000 A 
ATOM     17  C   UNL     1      -8.331 -12.060  18.447  0.00  0.00    +0.000 A 
ATOM     18  C   UNL     1      -8.503 -12.543  17.157  0.00  0.00    +0.000 A 
ATOM     19  C   UNL     1      -8.937 -11.685  16.148  0.00  0.00    +0.000 A 
ATOM     20  C   UNL     1      -9.213 -10.329  16.422  0.00  0.00    +0.000 A 
ATOM     21  H   UNL     1      -7.979 -12.718  19.239  0.00  0.00    +0.000 HD
ATOM     22  H   UNL     1      -8.280 -13.586  16.934  0.00  0.00    +0.000 HD
ATOM     23  H   UNL     1      -9.032 -12.085  15.140  0.00  0.00    +0.000 HD
BRANCH  16  24
ATOM     24  O   UNL     1      -8.417 -10.354  20.039  0.00  0.00    +0.000 OA
ATOM     25  H   UNL     1      -8.849  -9.477  20.165  0.00  0.00    +0.000 HD
ENDBRANCH  16  24
BRANCH  20  26
ATOM     26  C   UNL     1      -9.640  -9.470  15.291  0.00  0.00    +0.000 C 
ATOM     27  O   UNL     1      -8.858  -8.937  14.526  0.00  0.00    +0.000 OA
BRANCH  26  28
ATOM     28  O   UNL     1     -10.981  -9.324  15.188  0.00  0.00    +0.000 OA
ATOM     29  H   UNL     1     -11.523  -9.964  15.686  0.00  0.00    +0.000 HD
ENDBRANCH  26  28
ENDBRANCH  20  26
ENDBRANCH  13  15
ENDBRANCH   6  13
BRANCH   7  30
ATOM     30  O   UNL     1      -7.437  -6.846  16.597  0.00  0.00    +0.000 OA
ATOM     31  H   UNL     1      -7.280  -7.809  16.595  0.00  0.00    +0.000 HD
ENDBRANCH   7  30
ENDBRANCH   1   3
BRANCH   1  32
ATOM     32  O   UNL     1     -11.668  -3.351  15.177  0.00  0.00    +0.000 OA
BRANCH  32  37
ATOM     33  C   UNL     1     -10.833  -1.328  16.297  0.00  0.00    +0.000 C 
ATOM     34  C   UNL     1     -12.209  -1.026  16.888  0.00  0.00    +0.000 C 
ATOM     35  C   UNL     1     -13.095  -0.718  15.682  0.00  0.00    +0.000 C 
ATOM     36  C   UNL     1     -12.343  -1.211  14.442  0.00  0.00    +0.000 C 
ATOM     37  C   UNL     1     -11.164  -2.023  14.975  0.00  0.00    +0.000 C 
ATOM     38  H   UNL     1     -10.330  -0.376  16.075  0.00  0.00    +0.000 HD
ATOM     39  H   UNL     1     -12.184  -0.182  17.584  0.00  0.00    +0.000 HD
ATOM     40  H   UNL     1     -12.601  -1.891  17.435  0.00  0.00    +0.000 HD
ATOM     41  H   UNL     1     -13.284   0.359  15.596  0.00  0.00    +0.000 HD
ATOM     42  H   UNL     1     -14.067  -1.212  15.784  0.00  0.00    +0.000 HD
ATOM     43  H   UNL     1     -11.983  -0.355  13.863  0.00  0.00    +0.000 HD
ATOM     44  H   UNL     1     -13.005  -1.802  13.799  0.00  0.00    +0.000 HD
ATOM     45  H   UNL     1     -10.321  -2.007  14.276  0.00  0.00    +0.000 HD
BRANCH  33  48
ATOM     46  O   UNL     1     -11.663  -3.058  18.351  0.00  0.00    +0.000 OA
ATOM     47  C   UNL     1     -10.467  -2.805  18.221  0.00  0.00    +0.000 C 
ATOM     48  N   UNL     1      -9.953  -2.080  17.170  0.00  0.00    +0.000 N 
ATOM     49  H   UNL     1      -8.950  -1.966  17.068  0.00  0.00    +0.000 HD
BRANCH  47  50
ATOM     50  C   UNL     1      -9.522  -3.248  19.276  0.00  0.00    +0.000 A 
ATOM     51  C   UNL     1      -9.210  -2.358  20.314  0.00  0.00    +0.000 A 
ATOM     52  C   UNL     1      -8.173  -2.652  21.204  0.00  0.00    +0.000 A 
ATOM     53  C   UNL     1      -7.454  -3.832  21.042  0.00  0.00    +0.000 A 
ATOM     54  C   UNL     1      -7.784  -4.743  20.044  0.00  0.00    +0.000 A 
ATOM     55  C   UNL     1      -8.821  -4.454  19.154  0.00  0.00    +0.000 A 
ATOM     56  H   UNL     1      -9.750  -1.418  20.405  0.00  0.00    +0.000 HD
ATOM     57  H   UNL     1      -7.927  -1.943  21.987  0.00  0.00    +0.000 HD
ATOM     58  H   UNL     1      -7.204  -5.655  19.929  0.00  0.00    +0.000 HD
ATOM     59  H   UNL     1      -9.021  -5.140  18.336  0.00  0.00    +0.000 HD
BRANCH  53  60
ATOM     60  O   UNL     1      -6.380  -4.121  21.833  0.00  0.00    +0.000 OA
ATOM     61  H   UNL     1      -6.185  -5.069  21.753  0.00  0.00    +0.000 HD
ENDBRANCH  53  60
ENDBRANCH  47  50
ENDBRANCH  33  48
ENDBRANCH  32  37
ENDBRANCH   1  32
TORSDOF 13
ENDMDL
MODEL 8
REMARK VINA RESULT:    -9.080      2.221      5.549
REMARK INTER + INTRA:         -17.515
REMARK INTER:                 -15.775
REMARK INTRA:                  -1.740
REMARK UNBOUND:                -2.861
REMARK  Name = 
REMARK  13 active torsions:
REMARK  status: ('A' for Active; 'I' for Inactive)
REMARK    1  A    between atoms: C_2  and  C_32
REMARK    2  A    between atoms: N_3  and  C_4
REMARK    3  A    between atoms: C_8  and  O_9
REMARK    4  A    between atoms: O_9  and  C_10
REMARK    5  A    between atoms: C_10  and  C_12
REMARK    6  A    between atoms: C_14  and  O_15
REMARK    7  A    between atoms: C_16  and  C_17
REMARK    8  A    between atoms: C_17  and  C_19
REMARK    9  A    between atoms: C_20  and  O_21
REMARK   10  A    between atoms: C_25  and  C_26
REMARK   11  A    between atoms: C_26  and  O_28
REMARK   12  A    between atoms: C_29  and  O_30
REMARK   13  A    between atoms: C_35  and  O_36
REMARK                            x       y       z     vdW  Elec       q    Type
REMARK                         _______ _______ _______ _____ _____    ______ ____
ROOT
ATOM      1  C   UNL     1     -12.138  -2.484  17.036  0.00  0.00    +0.000 C 
ATOM      2  O   UNL     1     -12.960  -2.223  16.176  0.00  0.00    +0.000 OA
ENDROOT
BRANCH   1   3
ATOM      3  C   UNL     1     -11.229  -3.659  17.011  0.00  0.00    +0.000 A 
ATOM      4  C   UNL     1     -10.748  -4.105  15.777  0.00  0.00    +0.000 A 
ATOM      5  C   UNL     1      -9.907  -5.217  15.726  0.00  0.00    +0.000 A 
ATOM      6  C   UNL     1      -9.507  -5.876  16.905  0.00  0.00    +0.000 A 
ATOM      7  C   UNL     1     -10.000  -5.415  18.133  0.00  0.00    +0.000 A 
ATOM      8  C   UNL     1     -10.886  -4.346  18.183  0.00  0.00    +0.000 A 
ATOM      9  H   UNL     1     -11.042  -3.587  14.867  0.00  0.00    +0.000 HD
ATOM     10  H   UNL     1     -11.289  -4.050  19.148  0.00  0.00    +0.000 HD
BRANCH   5  11
ATOM     11  O   UNL     1      -9.492  -5.669  14.503  0.00  0.00    +0.000 OA
ATOM     12  H   UNL     1      -9.922  -6.514  14.291  0.00  0.00    +0.000 HD
ENDBRANCH   5  11
BRANCH   6  13
ATOM     13  C   UNL     1      -8.538  -6.995  16.839  0.00  0.00    +0.000 C 
ATOM     14  O   UNL     1      -7.332  -6.735  16.961  0.00  0.00    +0.000 OA
BRANCH  13  15
ATOM     15  C   UNL     1      -8.915  -8.434  16.868  0.00  0.00    +0.000 A 
ATOM     16  C   UNL     1      -9.177  -9.029  15.615  0.00  0.00    +0.000 A 
ATOM     17  C   UNL     1      -9.471 -10.385  15.501  0.00  0.00    +0.000 A 
ATOM     18  C   UNL     1      -9.526 -11.180  16.638  0.00  0.00    +0.000 A 
ATOM     19  C   UNL     1      -9.278 -10.617  17.888  0.00  0.00    +0.000 A 
ATOM     20  C   UNL     1      -8.963  -9.249  18.015  0.00  0.00    +0.000 A 
ATOM     21  H   UNL     1      -9.676 -10.812  14.521  0.00  0.00    +0.000 HD
ATOM     22  H   UNL     1      -9.781 -12.235  16.551  0.00  0.00    +0.000 HD
ATOM     23  H   UNL     1      -9.360 -11.259  18.765  0.00  0.00    +0.000 HD
BRANCH  16  24
ATOM     24  O   UNL     1      -9.112  -8.343  14.427  0.00  0.00    +0.000 OA
ATOM     25  H   UNL     1      -9.066  -9.005  13.698  0.00  0.00    +0.000 HD
ENDBRANCH  16  24
BRANCH  20  26
ATOM     26  C   UNL     1      -8.743  -8.715  19.382  0.00  0.00    +0.000 C 
ATOM     27  O   UNL     1      -7.774  -8.047  19.690  0.00  0.00    +0.000 OA
BRANCH  26  28
ATOM     28  O   UNL     1      -9.715  -9.045  20.263  0.00  0.00    +0.000 OA
ATOM     29  H   UNL     1     -10.631  -9.002  19.930  0.00  0.00    +0.000 HD
ENDBRANCH  26  28
ENDBRANCH  20  26
ENDBRANCH  13  15
ENDBRANCH   6  13
BRANCH   7  30
ATOM     30  O   UNL     1      -9.662  -5.947  19.349  0.00  0.00    +0.000 OA
ATOM     31  H   UNL     1      -8.821  -6.430  19.255  0.00  0.00    +0.000 HD
ENDBRANCH   7  30
ENDBRANCH   1   3
BRANCH   1  32
ATOM     32  O   UNL     1     -11.979  -1.820  18.201  0.00  0.00    +0.000 OA
BRANCH  32  37
ATOM     33  C   UNL     1     -10.656  -0.271  19.579  0.00  0.00    +0.000 C 
ATOM     34  C   UNL     1     -11.844   0.675  19.745  0.00  0.00    +0.000 C 
ATOM     35  C   UNL     1     -12.119   1.211  18.340  0.00  0.00    +0.000 C 
ATOM     36  C   UNL     1     -11.366   0.301  17.364  0.00  0.00    +0.000 C 
ATOM     37  C   UNL     1     -10.889  -0.886  18.198  0.00  0.00    +0.000 C 
ATOM     38  H   UNL     1      -9.734   0.326  19.545  0.00  0.00    +0.000 HD
ATOM     39  H   UNL     1     -11.629   1.490  20.442  0.00  0.00    +0.000 HD
ATOM     40  H   UNL     1     -12.723   0.141  20.125  0.00  0.00    +0.000 HD
ATOM     41  H   UNL     1     -11.762   2.242  18.235  0.00  0.00    +0.000 HD
ATOM     42  H   UNL     1     -13.195   1.216  18.135  0.00  0.00    +0.000 HD
ATOM     43  H   UNL     1     -10.510   0.838  16.943  0.00  0.00    +0.000 HD
ATOM     44  H   UNL     1     -12.018   0.000  16.537  0.00  0.00    +0.000 HD
ATOM     45  H   UNL     1      -9.976  -1.325  17.780  0.00  0.00    +0.000 HD
BRANCH  33  48
ATOM     46  O   UNL     1      -9.772   0.314  22.182  0.00  0.00    +0.000 OA
ATOM     47  C   UNL     1      -9.943  -0.857  21.851  0.00  0.00    +0.000 C 
ATOM     48  N   UNL     1     -10.498  -1.236  20.650  0.00  0.00    +0.000 N 
ATOM     49  H   UNL     1     -10.689  -2.213  20.458  0.00  0.00    +0.000 HD
BRANCH  47  50
ATOM     50  C   UNL     1      -9.477  -1.934  22.761  0.00  0.00    +0.000 A 
ATOM     51  C   UNL     1      -9.940  -1.943  24.084  0.00  0.00    +0.000 A 
ATOM     52  C   UNL     1      -9.369  -2.806  25.024  0.00  0.00    +0.000 A 
ATOM     53  C   UNL     1      -8.332  -3.646  24.631  0.00  0.00    +0.000 A 
ATOM     54  C   UNL     1      -7.894  -3.678  23.310  0.00  0.00    +0.000 A 
ATOM     55  C   UNL     1      -8.465  -2.819  22.368  0.00  0.00    +0.000 A 
ATOM     56  H   UNL     1     -10.721  -1.251  24.391  0.00  0.00    +0.000 HD
ATOM     57  H   UNL     1      -9.721  -2.784  26.049  0.00  0.00    +0.000 HD
ATOM     58  H   UNL     1      -7.077  -4.336  23.026  0.00  0.00    +0.000 HD
ATOM     59  H   UNL     1      -8.065  -2.803  21.358  0.00  0.00    +0.000 HD
BRANCH  53  60
ATOM     60  O   UNL     1      -7.687  -4.443  25.530  0.00  0.00    +0.000 OA
ATOM     61  H   UNL     1      -7.156  -5.093  25.041  0.00  0.00    +0.000 HD
ENDBRANCH  53  60
ENDBRANCH  47  50
ENDBRANCH  33  48
ENDBRANCH  32  37
ENDBRANCH   1  32
TORSDOF 13
ENDMDL
MODEL 9
REMARK VINA RESULT:    -9.043      2.810      8.967
REMARK INTER + INTRA:         -17.454
REMARK INTER:                 -16.096
REMARK INTRA:                  -1.358
REMARK UNBOUND:                -2.861
REMARK  Name = 
REMARK  13 active torsions:
REMARK  status: ('A' for Active; 'I' for Inactive)
REMARK    1  A    between atoms: C_2  and  C_32
REMARK    2  A    between atoms: N_3  and  C_4
REMARK    3  A    between atoms: C_8  and  O_9
REMARK    4  A    between atoms: O_9  and  C_10
REMARK    5  A    between atoms: C_10  and  C_12
REMARK    6  A    between atoms: C_14  and  O_15
REMARK    7  A    between atoms: C_16  and  C_17
REMARK    8  A    between atoms: C_17  and  C_19
REMARK    9  A    between atoms: C_20  and  O_21
REMARK   10  A    between atoms: C_25  and  C_26
REMARK   11  A    between atoms: C_26  and  O_28
REMARK   12  A    between atoms: C_29  and  O_30
REMARK   13  A    between atoms: C_35  and  O_36
REMARK                            x       y       z     vdW  Elec       q    Type
REMARK                         _______ _______ _______ _____ _____    ______ ____
ROOT
ATOM      1  C   UNL     1      -7.842  -5.308  19.620  0.00  0.00    +0.000 C 
ATOM      2  O   UNL     1      -7.211  -6.312  19.896  0.00  0.00    +0.000 OA
ENDROOT
BRANCH   1   3
ATOM      3  C   UNL     1      -8.107  -4.188  20.559  0.00  0.00    +0.000 A 
ATOM      4  C   UNL     1      -8.296  -2.907  20.033  0.00  0.00    +0.000 A 
ATOM      5  C   UNL     1      -8.529  -1.835  20.896  0.00  0.00    +0.000 A 
ATOM      6  C   UNL     1      -8.610  -2.031  22.288  0.00  0.00    +0.000 A 
ATOM      7  C   UNL     1      -8.416  -3.322  22.797  0.00  0.00    +0.000 A 
ATOM      8  C   UNL     1      -8.124  -4.382  21.946  0.00  0.00    +0.000 A 
ATOM      9  H   UNL     1      -8.251  -2.755  18.957  0.00  0.00    +0.000 HD
ATOM     10  H   UNL     1      -7.927  -5.358  22.381  0.00  0.00    +0.000 HD
BRANCH   5  11
ATOM     11  O   UNL     1      -8.657  -0.581  20.362  0.00  0.00    +0.000 OA
ATOM     12  H   UNL     1      -7.782  -0.182  20.223  0.00  0.00    +0.000 HD
ENDBRANCH   5  11
BRANCH   6  13
ATOM     13  C   UNL     1      -8.952  -0.899  23.181  0.00  0.00    +0.000 C 
ATOM     14  O   UNL     1      -8.105  -0.526  24.005  0.00  0.00    +0.000 OA
BRANCH  13  15
ATOM     15  C   UNL     1     -10.144  -0.026  23.010  0.00  0.00    +0.000 A 
ATOM     16  C   UNL     1      -9.910   1.364  23.098  0.00  0.00    +0.000 A 
ATOM     17  C   UNL     1     -10.930   2.287  22.887  0.00  0.00    +0.000 A 
ATOM     18  C   UNL     1     -12.215   1.848  22.599  0.00  0.00    +0.000 A 
ATOM     19  C   UNL     1     -12.475   0.482  22.512  0.00  0.00    +0.000 A 
ATOM     20  C   UNL     1     -11.447  -0.464  22.707  0.00  0.00    +0.000 A 
ATOM     21  H   UNL     1     -10.719   3.352  22.970  0.00  0.00    +0.000 HD
ATOM     22  H   UNL     1     -13.018   2.571  22.459  0.00  0.00    +0.000 HD
ATOM     23  H   UNL     1     -13.499   0.166  22.316  0.00  0.00    +0.000 HD
BRANCH  16  24
ATOM     24  O   UNL     1      -8.672   1.905  23.341  0.00  0.00    +0.000 OA
ATOM     25  H   UNL     1      -8.022   1.164  23.385  0.00  0.00    +0.000 HD
ENDBRANCH  16  24
BRANCH  20  26
ATOM     26  C   UNL     1     -11.808  -1.901  22.631  0.00  0.00    +0.000 C 
ATOM     27  O   UNL     1     -11.874  -2.625  23.607  0.00  0.00    +0.000 OA
BRANCH  26  28
ATOM     28  O   UNL     1     -12.051  -2.341  21.375  0.00  0.00    +0.000 OA
ATOM     29  H   UNL     1     -12.921  -2.755  21.225  0.00  0.00    +0.000 HD
ENDBRANCH  26  28
ENDBRANCH  20  26
ENDBRANCH  13  15
ENDBRANCH   6  13
BRANCH   7  30
ATOM     30  O   UNL     1      -8.502  -3.650  24.124  0.00  0.00    +0.000 OA
ATOM     31  H   UNL     1      -7.605  -3.839  24.456  0.00  0.00    +0.000 HD
ENDBRANCH   7  30
ENDBRANCH   1   3
BRANCH   1  32
ATOM     32  O   UNL     1      -8.494  -5.082  18.460  0.00  0.00    +0.000 OA
BRANCH  32  37
ATOM     33  C   UNL     1     -10.289  -6.391  17.403  0.00  0.00    +0.000 C 
ATOM     34  C   UNL     1     -10.226  -5.544  16.133  0.00  0.00    +0.000 C 
ATOM     35  C   UNL     1     -10.680  -4.151  16.567  0.00  0.00    +0.000 C 
ATOM     36  C   UNL     1     -10.622  -4.123  18.098  0.00  0.00    +0.000 C 
ATOM     37  C   UNL     1      -9.893  -5.403  18.502  0.00  0.00    +0.000 C 
ATOM     38  H   UNL     1     -11.330  -6.699  17.568  0.00  0.00    +0.000 HD
ATOM     39  H   UNL     1     -10.870  -5.939  15.341  0.00  0.00    +0.000 HD
ATOM     40  H   UNL     1      -9.205  -5.503  15.735  0.00  0.00    +0.000 HD
ATOM     41  H   UNL     1     -11.704  -3.947  16.232  0.00  0.00    +0.000 HD
ATOM     42  H   UNL     1     -10.035  -3.383  16.127  0.00  0.00    +0.000 HD
ATOM     43  H   UNL     1     -11.637  -4.119  18.507  0.00  0.00    +0.000 HD
ATOM     44  H   UNL     1     -10.111  -3.219  18.447  0.00  0.00    +0.000 HD
ATOM     45  H   UNL     1     -10.205  -5.742  19.496  0.00  0.00    +0.000 HD
BRANCH  33  48
ATOM     46  O   UNL     1     -10.964  -8.747  16.027  0.00  0.00    +0.000 OA
ATOM     47  C   UNL     1      -9.975  -8.736  16.755  0.00  0.00    +0.000 C 
ATOM     48  N   UNL     1      -9.489  -7.600  17.362  0.00  0.00    +0.000 N 
ATOM     49  H   UNL     1      -8.624  -7.631  17.891  0.00  0.00    +0.000 HD
BRANCH  47  50
ATOM     50  C   UNL     1      -9.291 -10.019  17.054  0.00  0.00    +0.000 A 
ATOM     51  C   UNL     1      -9.270 -11.015  16.066  0.00  0.00    +0.000 A 
ATOM     52  C   UNL     1      -8.826 -12.303  16.376  0.00  0.00    +0.000 A 
ATOM     53  C   UNL     1      -8.414 -12.585  17.675  0.00  0.00    +0.000 A 
ATOM     54  C   UNL     1      -8.388 -11.593  18.651  0.00  0.00    +0.000 A 
ATOM     55  C   UNL     1      -8.828 -10.304  18.344  0.00  0.00    +0.000 A 
ATOM     56  H   UNL     1      -9.635 -10.795  15.066  0.00  0.00    +0.000 HD
ATOM     57  H   UNL     1      -8.839 -13.069  15.609  0.00  0.00    +0.000 HD
ATOM     58  H   UNL     1      -8.070 -11.837  19.662  0.00  0.00    +0.000 HD
ATOM     59  H   UNL     1      -8.870  -9.559  19.134  0.00  0.00    +0.000 HD
BRANCH  53  60
ATOM     60  O   UNL     1      -8.054 -13.847  18.045  0.00  0.00    +0.000 OA
ATOM     61  H   UNL     1      -7.413 -13.784  18.773  0.00  0.00    +0.000 HD
ENDBRANCH  53  60
ENDBRANCH  47  50
ENDBRANCH  33  48
ENDBRANCH  32  37
ENDBRANCH   1  32
TORSDOF 13
ENDMDL
