MODEL 1
REMARK VINA RESULT:    -8.891      0.000      0.000
REMARK INTER + INTRA:         -11.685
REMARK INTER:                 -11.230
REMARK INTRA:                  -0.455
REMARK UNBOUND:                -0.455
REMARK  Name = 
REMARK  6 active torsions:
REMARK  status: ('A' for Active; 'I' for Inactive)
REMARK    1  A    between atoms: C_1  and  N_2
REMARK    2  A    between atoms: N_19  and  C_20
REMARK    3  A    between atoms: C_20  and  C_21
REMARK    4  A    between atoms: C_21  and  O_22
REMARK    5  A    between atoms: C_21  and  C_23
REMARK    6  A    between atoms: C_23  and  O_24
REMARK                            x       y       z     vdW  Elec       q    Type
REMARK                         _______ _______ _______ _____ _____    ______ ____
ROOT
ATOM      1  N   UNL     1     -10.360  -4.401  18.396  0.00  0.00    +0.000 N 
ATOM      2  C   UNL     1      -9.891  -5.401  17.531  0.00  0.00    +0.000 A 
ATOM      3  C   UNL     1     -10.560  -6.084  16.493  0.00  0.00    +0.000 A 
ATOM      4  C   UNL     1      -9.869  -7.063  15.782  0.00  0.00    +0.000 A 
ATOM      5  C   UNL     1      -8.546  -7.352  16.081  0.00  0.00    +0.000 A 
ATOM      6  C   UNL     1      -7.887  -6.687  17.122  0.00  0.00    +0.000 A 
ATOM      7  C   UNL     1      -8.560  -5.700  17.870  0.00  0.00    +0.000 A 
ATOM      8  C   UNL     1      -8.321  -4.884  18.970  0.00  0.00    +0.000 A 
ATOM      9  C   UNL     1      -7.124  -4.847  19.735  0.00  0.00    +0.000 A 
ATOM     10  C   UNL     1      -7.138  -4.123  20.957  0.00  0.00    +0.000 A 
ATOM     11  C   UNL     1      -8.282  -3.358  21.282  0.00  0.00    +0.000 A 
ATOM     12  C   UNL     1      -8.451  -2.555  22.394  0.00  0.00    +0.000 A 
ATOM     13  C   UNL     1      -8.219  -2.536  23.776  0.00  0.00    +0.000 A 
ATOM     14  C   UNL     1      -8.395  -1.327  24.454  0.00  0.00    +0.000 A 
ATOM     15  C   UNL     1      -8.565  -0.147  23.735  0.00  0.00    +0.000 A 
ATOM     16  C   UNL     1      -8.882  -0.185  22.377  0.00  0.00    +0.000 A 
ATOM     17  C   UNL     1      -9.084  -1.448  21.816  0.00  0.00    +0.000 A 
ATOM     18  N   UNL     1      -9.843  -1.970  20.763  0.00  0.00    +0.000 N 
ATOM     19  C   UNL     1      -9.220  -3.134  20.322  0.00  0.00    +0.000 A 
ATOM     20  C   UNL     1      -9.357  -4.041  19.276  0.00  0.00    +0.000 A 
ATOM     21  C   UNL     1      -5.829  -4.163  21.534  0.00  0.00    +0.000 C 
ATOM     22  O   UNL     1      -5.308  -3.607  22.485  0.00  0.00    +0.000 OA
ATOM     23  N   UNL     1      -5.135  -4.969  20.665  0.00  0.00    +0.000 N 
ATOM     24  C   UNL     1      -5.801  -5.365  19.538  0.00  0.00    +0.000 C 
ATOM     25  O   UNL     1      -5.227  -5.948  18.620  0.00  0.00    +0.000 OA
ATOM     26  H   UNL     1     -11.595  -5.878  16.242  0.00  0.00    +0.000 HD
ATOM     27  H   UNL     1     -10.374  -7.605  14.986  0.00  0.00    +0.000 HD
ATOM     28  H   UNL     1      -8.013  -8.108  15.511  0.00  0.00    +0.000 HD
ATOM     29  H   UNL     1      -6.861  -6.954  17.333  0.00  0.00    +0.000 HD
ATOM     30  H   UNL     1      -8.006  -3.452  24.317  0.00  0.00    +0.000 HD
ATOM     31  H   UNL     1      -8.331  -1.296  25.538  0.00  0.00    +0.000 HD
ATOM     32  H   UNL     1      -8.488   0.812  24.242  0.00  0.00    +0.000 HD
ATOM     33  H   UNL     1      -8.964   0.734  21.812  0.00  0.00    +0.000 HD
ATOM     34  H   UNL     1      -4.136  -5.071  20.733  0.00  0.00    +0.000 HD
ENDROOT
BRANCH   1  35
ATOM     35  C   UNL     1     -11.755  -4.020  18.449  0.00  0.00    +0.000 C 
ATOM     36  H   UNL     1     -11.881  -2.964  18.210  0.00  0.00    +0.000 HD
ATOM     37  H   UNL     1     -12.128  -4.172  19.465  0.00  0.00    +0.000 HD
ATOM     38  H   UNL     1     -12.299  -4.584  17.688  0.00  0.00    +0.000 HD
ENDBRANCH   1  35
BRANCH  18  39
ATOM     39  C   UNL     1     -11.234  -1.692  20.484  0.00  0.00    +0.000 C 
ATOM     40  H   UNL     1     -11.527  -2.524  19.831  0.00  0.00    +0.000 HD
ATOM     41  H   UNL     1     -11.228  -0.754  19.933  0.00  0.00    +0.000 HD
BRANCH  39  42
ATOM     42  C   UNL     1     -12.348  -1.572  21.525  0.00  0.00    +0.000 C 
ATOM     43  H   UNL     1     -13.224  -2.047  21.062  0.00  0.00    +0.000 HD
BRANCH  42  44
ATOM     44  C   UNL     1     -12.754  -0.133  21.839  0.00  0.00    +0.000 C 
ATOM     45  H   UNL     1     -12.578   0.518  20.978  0.00  0.00    +0.000 HD
ATOM     46  H   UNL     1     -12.210   0.269  22.684  0.00  0.00    +0.000 HD
BRANCH  44  47
ATOM     47  O   UNL     1     -14.129  -0.039  22.199  0.00  0.00    +0.000 OA
ATOM     48  H   UNL     1     -14.234  -0.398  23.095  0.00  0.00    +0.000 HD
ENDBRANCH  44  47
ENDBRANCH  42  44
BRANCH  42  49
ATOM     49  O   UNL     1     -12.110  -2.367  22.681  0.00  0.00    +0.000 OA
ATOM     50  H   UNL     1     -11.405  -3.009  22.485  0.00  0.00    +0.000 HD
ENDBRANCH  42  49
ENDBRANCH  39  42
ENDBRANCH  18  39
TORSDOF 6
ENDMDL
MODEL 2
REMARK VINA RESULT:    -8.510      3.326      5.500
REMARK INTER + INTRA:         -11.204
REMARK INTER:                 -10.759
REMARK INTRA:                  -0.444
REMARK UNBOUND:                -0.455
REMARK  Name = 
REMARK  6 active torsions:
REMARK  status: ('A' for Active; 'I' for Inactive)
REMARK    1  A    between atoms: C_1  and  N_2
REMARK    2  A    between atoms: N_19  and  C_20
REMARK    3  A    between atoms: C_20  and  C_21
REMARK    4  A    between atoms: C_21  and  O_22
REMARK    5  A    between atoms: C_21  and  C_23
REMARK    6  A    between atoms: C_23  and  O_24
REMARK                            x       y       z     vdW  Elec       q    Type
REMARK                         _______ _______ _______ _____ _____    ______ ____
ROOT
ATOM      1  N   UNL     1     -10.143  -6.308  17.235  0.00  0.00    +0.000 N 
ATOM      2  C   UNL     1      -9.528  -7.236  18.089  0.00  0.00    +0.000 A 
ATOM      3  C   UNL     1      -9.511  -8.646  18.029  0.00  0.00    +0.000 A 
ATOM      4  C   UNL     1      -8.836  -9.350  19.023  0.00  0.00    +0.000 A 
ATOM      5  C   UNL     1      -8.182  -8.679  20.045  0.00  0.00    +0.000 A 
ATOM      6  C   UNL     1      -8.214  -7.280  20.115  0.00  0.00    +0.000 A 
ATOM      7  C   UNL     1      -8.898  -6.537  19.134  0.00  0.00    +0.000 A 
ATOM      8  C   UNL     1      -9.221  -5.211  18.869  0.00  0.00    +0.000 A 
ATOM      9  C   UNL     1      -8.869  -4.092  19.671  0.00  0.00    +0.000 A 
ATOM     10  C   UNL     1      -9.475  -2.842  19.371  0.00  0.00    +0.000 A 
ATOM     11  C   UNL     1     -10.276  -2.735  18.211  0.00  0.00    +0.000 A 
ATOM     12  C   UNL     1     -10.897  -1.595  17.738  0.00  0.00    +0.000 A 
ATOM     13  C   UNL     1     -11.632  -0.486  18.177  0.00  0.00    +0.000 A 
ATOM     14  C   UNL     1     -11.860   0.553  17.270  0.00  0.00    +0.000 A 
ATOM     15  C   UNL     1     -11.178   0.574  16.056  0.00  0.00    +0.000 A 
ATOM     16  C   UNL     1     -10.523  -0.567  15.591  0.00  0.00    +0.000 A 
ATOM     17  C   UNL     1     -10.653  -1.723  16.365  0.00  0.00    +0.000 A 
ATOM     18  N   UNL     1     -10.645  -3.100  16.122  0.00  0.00    +0.000 N 
ATOM     19  C   UNL     1     -10.245  -3.739  17.293  0.00  0.00    +0.000 A 
ATOM     20  C   UNL     1      -9.912  -5.027  17.700  0.00  0.00    +0.000 A 
ATOM     21  C   UNL     1      -8.944  -1.847  20.252  0.00  0.00    +0.000 C 
ATOM     22  O   UNL     1      -9.043  -0.634  20.314  0.00  0.00    +0.000 OA
ATOM     23  N   UNL     1      -8.114  -2.574  21.070  0.00  0.00    +0.000 N 
ATOM     24  C   UNL     1      -7.956  -3.896  20.759  0.00  0.00    +0.000 C 
ATOM     25  O   UNL     1      -7.116  -4.596  21.323  0.00  0.00    +0.000 OA
ATOM     26  H   UNL     1     -10.016  -9.195  17.241  0.00  0.00    +0.000 HD
ATOM     27  H   UNL     1      -8.822 -10.437  18.996  0.00  0.00    +0.000 HD
ATOM     28  H   UNL     1      -7.648  -9.238  20.808  0.00  0.00    +0.000 HD
ATOM     29  H   UNL     1      -7.705  -6.797  20.938  0.00  0.00    +0.000 HD
ATOM     30  H   UNL     1     -12.094  -0.477  19.159  0.00  0.00    +0.000 HD
ATOM     31  H   UNL     1     -12.514   1.377  17.538  0.00  0.00    +0.000 HD
ATOM     32  H   UNL     1     -11.185   1.475  15.447  0.00  0.00    +0.000 HD
ATOM     33  H   UNL     1      -9.953  -0.530  14.673  0.00  0.00    +0.000 HD
ATOM     34  H   UNL     1      -7.485  -2.118  21.712  0.00  0.00    +0.000 HD
ENDROOT
BRANCH   1  35
ATOM     35  C   UNL     1     -11.051  -6.712  16.183  0.00  0.00    +0.000 C 
ATOM     36  H   UNL     1     -11.256  -7.782  16.235  0.00  0.00    +0.000 HD
ATOM     37  H   UNL     1     -10.585  -6.515  15.215  0.00  0.00    +0.000 HD
ATOM     38  H   UNL     1     -12.004  -6.200  16.330  0.00  0.00    +0.000 HD
ENDBRANCH   1  35
BRANCH  18  39
ATOM     39  C   UNL     1     -11.362  -3.795  15.076  0.00  0.00    +0.000 C 
ATOM     40  H   UNL     1     -12.227  -3.146  14.895  0.00  0.00    +0.000 HD
ATOM     41  H   UNL     1     -11.674  -4.735  15.527  0.00  0.00    +0.000 HD
BRANCH  39  42
ATOM     42  C   UNL     1     -10.810  -4.143  13.693  0.00  0.00    +0.000 C 
ATOM     43  H   UNL     1     -10.386  -5.151  13.801  0.00  0.00    +0.000 HD
BRANCH  42  44
ATOM     44  C   UNL     1      -9.666  -3.241  13.234  0.00  0.00    +0.000 C 
ATOM     45  H   UNL     1      -9.705  -2.274  13.743  0.00  0.00    +0.000 HD
ATOM     46  H   UNL     1      -9.690  -3.063  12.167  0.00  0.00    +0.000 HD
BRANCH  44  47
ATOM     47  O   UNL     1      -8.394  -3.831  13.488  0.00  0.00    +0.000 OA
ATOM     48  H   UNL     1      -8.538  -4.690  13.917  0.00  0.00    +0.000 HD
ENDBRANCH  44  47
ENDBRANCH  42  44
BRANCH  42  49
ATOM     49  O   UNL     1     -11.833  -4.314  12.719  0.00  0.00    +0.000 OA
ATOM     50  H   UNL     1     -12.492  -3.605  12.823  0.00  0.00    +0.000 HD
ENDBRANCH  42  49
ENDBRANCH  39  42
ENDBRANCH  18  39
TORSDOF 6
ENDMDL
MODEL 3
REMARK VINA RESULT:    -8.434      3.241      6.679
REMARK INTER + INTRA:         -11.108
REMARK INTER:                 -10.867
REMARK INTRA:                  -0.241
REMARK UNBOUND:                -0.455
REMARK  Name = 
REMARK  6 active torsions:
REMARK  status: ('A' for Active; 'I' for Inactive)
REMARK    1  A    between atoms: C_1  and  N_2
REMARK    2  A    between atoms: N_19  and  C_20
REMARK    3  A    between atoms: C_20  and  C_21
REMARK    4  A    between atoms: C_21  and  O_22
REMARK    5  A    between atoms: C_21  and  C_23
REMARK    6  A    between atoms: C_23  and  O_24
REMARK                            x       y       z     vdW  Elec       q    Type
REMARK                         _______ _______ _______ _____ _____    ______ ____
ROOT
ATOM      1  N   UNL     1     -11.564  -3.389  15.510  0.00  0.00    +0.000 N 
ATOM      2  C   UNL     1     -12.106  -2.104  15.355  0.00  0.00    +0.000 A 
ATOM      3  C   UNL     1     -12.773  -1.532  14.251  0.00  0.00    +0.000 A 
ATOM      4  C   UNL     1     -13.206  -0.211  14.341  0.00  0.00    +0.000 A 
ATOM      5  C   UNL     1     -12.995   0.525  15.497  0.00  0.00    +0.000 A 
ATOM      6  C   UNL     1     -12.317  -0.036  16.586  0.00  0.00    +0.000 A 
ATOM      7  C   UNL     1     -11.856  -1.365  16.525  0.00  0.00    +0.000 A 
ATOM      8  C   UNL     1     -11.120  -2.250  17.307  0.00  0.00    +0.000 A 
ATOM      9  C   UNL     1     -10.563  -1.967  18.583  0.00  0.00    +0.000 A 
ATOM     10  C   UNL     1      -9.652  -2.908  19.134  0.00  0.00    +0.000 A 
ATOM     11  C   UNL     1      -9.456  -4.138  18.465  0.00  0.00    +0.000 A 
ATOM     12  C   UNL     1      -8.655  -5.185  18.878  0.00  0.00    +0.000 A 
ATOM     13  C   UNL     1      -7.395  -5.447  19.432  0.00  0.00    +0.000 A 
ATOM     14  C   UNL     1      -7.131  -6.744  19.882  0.00  0.00    +0.000 A 
ATOM     15  C   UNL     1      -8.169  -7.666  19.982  0.00  0.00    +0.000 A 
ATOM     16  C   UNL     1      -9.391  -7.431  19.351  0.00  0.00    +0.000 A 
ATOM     17  C   UNL     1      -9.480  -6.274  18.572  0.00  0.00    +0.000 A 
ATOM     18  N   UNL     1     -10.202  -5.878  17.441  0.00  0.00    +0.000 N 
ATOM     19  C   UNL     1     -10.313  -4.491  17.468  0.00  0.00    +0.000 A 
ATOM     20  C   UNL     1     -10.981  -3.498  16.758  0.00  0.00    +0.000 A 
ATOM     21  C   UNL     1      -9.260  -2.464  20.437  0.00  0.00    +0.000 C 
ATOM     22  O   UNL     1      -8.614  -2.965  21.341  0.00  0.00    +0.000 OA
ATOM     23  N   UNL     1      -9.897  -1.253  20.553  0.00  0.00    +0.000 N 
ATOM     24  C   UNL     1     -10.742  -0.909  19.535  0.00  0.00    +0.000 C 
ATOM     25  O   UNL     1     -11.482   0.070  19.613  0.00  0.00    +0.000 OA
ATOM     26  H   UNL     1     -12.949  -2.086  13.334  0.00  0.00    +0.000 HD
ATOM     27  H   UNL     1     -13.713   0.247  13.494  0.00  0.00    +0.000 HD
ATOM     28  H   UNL     1     -13.348   1.550  15.560  0.00  0.00    +0.000 HD
ATOM     29  H   UNL     1     -12.160   0.577  17.463  0.00  0.00    +0.000 HD
ATOM     30  H   UNL     1      -6.614  -4.693  19.422  0.00  0.00    +0.000 HD
ATOM     31  H   UNL     1      -6.134  -7.013  20.216  0.00  0.00    +0.000 HD
ATOM     32  H   UNL     1      -8.017  -8.596  20.526  0.00  0.00    +0.000 HD
ATOM     33  H   UNL     1     -10.210  -8.125  19.474  0.00  0.00    +0.000 HD
ATOM     34  H   UNL     1      -9.923  -0.760  21.431  0.00  0.00    +0.000 HD
ENDROOT
BRANCH   1  35
ATOM     35  C   UNL     1     -11.466  -4.322  14.409  0.00  0.00    +0.000 C 
ATOM     36  H   UNL     1     -12.332  -4.239  13.750  0.00  0.00    +0.000 HD
ATOM     37  H   UNL     1     -11.453  -5.340  14.804  0.00  0.00    +0.000 HD
ATOM     38  H   UNL     1     -10.589  -4.066  13.812  0.00  0.00    +0.000 HD
ENDBRANCH   1  35
BRANCH  18  39
ATOM     39  C   UNL     1     -10.383  -6.638  16.224  0.00  0.00    +0.000 C 
ATOM     40  H   UNL     1      -9.622  -6.217  15.554  0.00  0.00    +0.000 HD
ATOM     41  H   UNL     1     -11.383  -6.381  15.880  0.00  0.00    +0.000 HD
BRANCH  39  42
ATOM     42  C   UNL     1     -10.258  -8.156  16.091  0.00  0.00    +0.000 C 
ATOM     43  H   UNL     1     -10.173  -8.527  17.121  0.00  0.00    +0.000 HD
BRANCH  42  44
ATOM     44  C   UNL     1      -8.998  -8.615  15.361  0.00  0.00    +0.000 C 
ATOM     45  H   UNL     1      -8.635  -9.563  15.769  0.00  0.00    +0.000 HD
ATOM     46  H   UNL     1      -8.199  -7.889  15.429  0.00  0.00    +0.000 HD
BRANCH  44  47
ATOM     47  O   UNL     1      -9.230  -8.788  13.966  0.00  0.00    +0.000 OA
ATOM     48  H   UNL     1      -9.513  -9.706  13.816  0.00  0.00    +0.000 HD
ENDBRANCH  44  47
ENDBRANCH  42  44
BRANCH  42  49
ATOM     49  O   UNL     1     -11.453  -8.767  15.615  0.00  0.00    +0.000 OA
ATOM     50  H   UNL     1     -11.858  -8.190  14.943  0.00  0.00    +0.000 HD
ENDBRANCH  42  49
ENDBRANCH  39  42
ENDBRANCH  18  39
TORSDOF 6
ENDMDL
MODEL 4
REMARK VINA RESULT:    -8.417      3.036      6.224
REMARK INTER + INTRA:         -11.086
REMARK INTER:                 -10.819
REMARK INTRA:                  -0.267
REMARK UNBOUND:                -0.455
REMARK  Name = 
REMARK  6 active torsions:
REMARK  status: ('A' for Active; 'I' for Inactive)
REMARK    1  A    between atoms: C_1  and  N_2
REMARK    2  A    between atoms: N_19  and  C_20
REMARK    3  A    between atoms: C_20  and  C_21
REMARK    4  A    between atoms: C_21  and  O_22
REMARK    5  A    between atoms: C_21  and  C_23
REMARK    6  A    between atoms: C_23  and  O_24
REMARK                            x       y       z     vdW  Elec       q    Type
REMARK                         _______ _______ _______ _____ _____    ______ ____
ROOT
ATOM      1  N   UNL     1     -10.528  -1.268  18.914  0.00  0.00    +0.000 N 
ATOM      2  C   UNL     1     -11.352  -0.549  18.035  0.00  0.00    +0.000 A 
ATOM      3  C   UNL     1     -11.878   0.756  18.153  0.00  0.00    +0.000 A 
ATOM      4  C   UNL     1     -12.698   1.241  17.136  0.00  0.00    +0.000 A 
ATOM      5  C   UNL     1     -12.984   0.462  16.025  0.00  0.00    +0.000 A 
ATOM      6  C   UNL     1     -12.477  -0.839  15.917  0.00  0.00    +0.000 A 
ATOM      7  C   UNL     1     -11.654  -1.366  16.931  0.00  0.00    +0.000 A 
ATOM      8  C   UNL     1     -11.024  -2.566  17.243  0.00  0.00    +0.000 A 
ATOM      9  C   UNL     1     -11.070  -3.756  16.469  0.00  0.00    +0.000 A 
ATOM     10  C   UNL     1     -10.561  -4.948  17.051  0.00  0.00    +0.000 A 
ATOM     11  C   UNL     1      -9.903  -4.868  18.300  0.00  0.00    +0.000 A 
ATOM     12  C   UNL     1      -9.303  -5.907  18.986  0.00  0.00    +0.000 A 
ATOM     13  C   UNL     1      -9.506  -7.249  19.336  0.00  0.00    +0.000 A 
ATOM     14  C   UNL     1      -8.433  -7.951  19.895  0.00  0.00    +0.000 A 
ATOM     15  C   UNL     1      -7.158  -7.394  19.879  0.00  0.00    +0.000 A 
ATOM     16  C   UNL     1      -6.980  -6.036  19.614  0.00  0.00    +0.000 A 
ATOM     17  C   UNL     1      -8.140  -5.275  19.440  0.00  0.00    +0.000 A 
ATOM     18  N   UNL     1      -8.506  -3.942  19.651  0.00  0.00    +0.000 N 
ATOM     19  C   UNL     1      -9.557  -3.646  18.787  0.00  0.00    +0.000 A 
ATOM     20  C   UNL     1     -10.282  -2.525  18.395  0.00  0.00    +0.000 A 
ATOM     21  C   UNL     1     -10.648  -6.006  16.091  0.00  0.00    +0.000 C 
ATOM     22  O   UNL     1     -10.239  -7.154  16.059  0.00  0.00    +0.000 OA
ATOM     23  N   UNL     1     -11.271  -5.403  15.026  0.00  0.00    +0.000 N 
ATOM     24  C   UNL     1     -11.499  -4.059  15.134  0.00  0.00    +0.000 C 
ATOM     25  O   UNL     1     -11.900  -3.393  14.181  0.00  0.00    +0.000 OA
ATOM     26  H   UNL     1     -11.671   1.384  19.012  0.00  0.00    +0.000 HD
ATOM     27  H   UNL     1     -13.119   2.241  17.217  0.00  0.00    +0.000 HD
ATOM     28  H   UNL     1     -13.614   0.855  15.233  0.00  0.00    +0.000 HD
ATOM     29  H   UNL     1     -12.737  -1.419  15.042  0.00  0.00    +0.000 HD
ATOM     30  H   UNL     1     -10.490  -7.700  19.269  0.00  0.00    +0.000 HD
ATOM     31  H   UNL     1      -8.580  -8.956  20.278  0.00  0.00    +0.000 HD
ATOM     32  H   UNL     1      -6.294  -8.012  20.112  0.00  0.00    +0.000 HD
ATOM     33  H   UNL     1      -5.985  -5.619  19.553  0.00  0.00    +0.000 HD
ATOM     34  H   UNL     1     -11.346  -5.866  14.135  0.00  0.00    +0.000 HD
ENDROOT
BRANCH   1  35
ATOM     35  C   UNL     1     -10.213  -0.787  20.242  0.00  0.00    +0.000 C 
ATOM     36  H   UNL     1      -9.150  -0.904  20.458  0.00  0.00    +0.000 HD
ATOM     37  H   UNL     1     -10.763  -1.380  20.976  0.00  0.00    +0.000 HD
ATOM     38  H   UNL     1     -10.428   0.283  20.285  0.00  0.00    +0.000 HD
ENDBRANCH   1  35
BRANCH  18  39
ATOM     39  C   UNL     1      -8.238  -3.150  20.830  0.00  0.00    +0.000 C 
ATOM     40  H   UNL     1      -9.193  -3.176  21.370  0.00  0.00    +0.000 HD
ATOM     41  H   UNL     1      -8.035  -2.149  20.455  0.00  0.00    +0.000 HD
BRANCH  39  42
ATOM     42  C   UNL     1      -7.164  -3.443  21.878  0.00  0.00    +0.000 C 
ATOM     43  H   UNL     1      -6.743  -4.417  21.592  0.00  0.00    +0.000 HD
BRANCH  42  44
ATOM     44  C   UNL     1      -7.706  -3.607  23.297  0.00  0.00    +0.000 C 
ATOM     45  H   UNL     1      -7.310  -2.831  23.957  0.00  0.00    +0.000 HD
ATOM     46  H   UNL     1      -7.456  -4.571  23.720  0.00  0.00    +0.000 HD
BRANCH  44  47
ATOM     47  O   UNL     1      -9.128  -3.541  23.329  0.00  0.00    +0.000 OA
ATOM     48  H   UNL     1      -9.391  -3.031  24.113  0.00  0.00    +0.000 HD
ENDBRANCH  44  47
ENDBRANCH  42  44
BRANCH  42  49
ATOM     49  O   UNL     1      -6.051  -2.560  21.787  0.00  0.00    +0.000 OA
ATOM     50  H   UNL     1      -5.934  -2.290  20.859  0.00  0.00    +0.000 HD
ENDBRANCH  42  49
ENDBRANCH  39  42
ENDBRANCH  18  39
TORSDOF 6
ENDMDL
MODEL 5
REMARK VINA RESULT:    -8.272      2.924      6.786
REMARK INTER + INTRA:         -10.903
REMARK INTER:                 -10.214
REMARK INTRA:                  -0.689
REMARK UNBOUND:                -0.455
REMARK  Name = 
REMARK  6 active torsions:
REMARK  status: ('A' for Active; 'I' for Inactive)
REMARK    1  A    between atoms: C_1  and  N_2
REMARK    2  A    between atoms: N_19  and  C_20
REMARK    3  A    between atoms: C_20  and  C_21
REMARK    4  A    between atoms: C_21  and  O_22
REMARK    5  A    between atoms: C_21  and  C_23
REMARK    6  A    between atoms: C_23  and  O_24
REMARK                            x       y       z     vdW  Elec       q    Type
REMARK                         _______ _______ _______ _____ _____    ______ ____
ROOT
ATOM      1  N   UNL     1     -11.225  -1.681  17.365  0.00  0.00    +0.000 N 
ATOM      2  C   UNL     1     -11.041  -0.625  18.270  0.00  0.00    +0.000 A 
ATOM      3  C   UNL     1     -11.477   0.715  18.195  0.00  0.00    +0.000 A 
ATOM      4  C   UNL     1     -11.144   1.586  19.230  0.00  0.00    +0.000 A 
ATOM      5  C   UNL     1     -10.408   1.143  20.318  0.00  0.00    +0.000 A 
ATOM      6  C   UNL     1      -9.960  -0.182  20.384  0.00  0.00    +0.000 A 
ATOM      7  C   UNL     1     -10.268  -1.087  19.349  0.00  0.00    +0.000 A 
ATOM      8  C   UNL     1      -9.985  -2.402  18.997  0.00  0.00    +0.000 A 
ATOM      9  C   UNL     1      -9.174  -3.305  19.735  0.00  0.00    +0.000 A 
ATOM     10  C   UNL     1      -8.808  -4.530  19.114  0.00  0.00    +0.000 A 
ATOM     11  C   UNL     1      -9.383  -4.858  17.865  0.00  0.00    +0.000 A 
ATOM     12  C   UNL     1      -9.186  -6.020  17.144  0.00  0.00    +0.000 A 
ATOM     13  C   UNL     1      -8.175  -6.908  16.753  0.00  0.00    +0.000 A 
ATOM     14  C   UNL     1      -8.555  -8.120  16.168  0.00  0.00    +0.000 A 
ATOM     15  C   UNL     1      -9.890  -8.512  16.193  0.00  0.00    +0.000 A 
ATOM     16  C   UNL     1     -10.894  -7.593  16.499  0.00  0.00    +0.000 A 
ATOM     17  C   UNL     1     -10.491  -6.270  16.703  0.00  0.00    +0.000 A 
ATOM     18  N   UNL     1     -11.069  -5.008  16.535  0.00  0.00    +0.000 N 
ATOM     19  C   UNL     1     -10.440  -4.130  17.413  0.00  0.00    +0.000 A 
ATOM     20  C   UNL     1     -10.598  -2.816  17.843  0.00  0.00    +0.000 A 
ATOM     21  C   UNL     1      -8.048  -5.310  20.042  0.00  0.00    +0.000 C 
ATOM     22  O   UNL     1      -7.623  -6.453  20.036  0.00  0.00    +0.000 OA
ATOM     23  N   UNL     1      -7.940  -4.477  21.128  0.00  0.00    +0.000 N 
ATOM     24  C   UNL     1      -8.630  -3.298  21.062  0.00  0.00    +0.000 C 
ATOM     25  O   UNL     1      -8.735  -2.556  22.037  0.00  0.00    +0.000 OA
ATOM     26  H   UNL     1     -12.053   1.087  17.354  0.00  0.00    +0.000 HD
ATOM     27  H   UNL     1     -11.465   2.625  19.182  0.00  0.00    +0.000 HD
ATOM     28  H   UNL     1     -10.165   1.828  21.125  0.00  0.00    +0.000 HD
ATOM     29  H   UNL     1      -9.374  -0.483  21.243  0.00  0.00    +0.000 HD
ATOM     30  H   UNL     1      -7.130  -6.624  16.813  0.00  0.00    +0.000 HD
ATOM     31  H   UNL     1      -7.803  -8.785  15.755  0.00  0.00    +0.000 HD
ATOM     32  H   UNL     1     -10.159  -9.534  15.937  0.00  0.00    +0.000 HD
ATOM     33  H   UNL     1     -11.924  -7.914  16.567  0.00  0.00    +0.000 HD
ATOM     34  H   UNL     1      -7.572  -4.808  22.005  0.00  0.00    +0.000 HD
ENDROOT
BRANCH   1  35
ATOM     35  C   UNL     1     -11.795  -1.479  16.050  0.00  0.00    +0.000 C 
ATOM     36  H   UNL     1     -12.407  -2.332  15.755  0.00  0.00    +0.000 HD
ATOM     37  H   UNL     1     -10.987  -1.388  15.321  0.00  0.00    +0.000 HD
ATOM     38  H   UNL     1     -12.459  -0.612  16.088  0.00  0.00    +0.000 HD
ENDBRANCH   1  35
BRANCH  18  39
ATOM     39  C   UNL     1     -11.801  -4.542  15.378  0.00  0.00    +0.000 C 
ATOM     40  H   UNL     1     -12.076  -3.516  15.656  0.00  0.00    +0.000 HD
ATOM     41  H   UNL     1     -12.683  -5.177  15.331  0.00  0.00    +0.000 HD
BRANCH  39  42
ATOM     42  C   UNL     1     -11.257  -4.453  13.952  0.00  0.00    +0.000 C 
ATOM     43  H   UNL     1     -11.040  -5.490  13.664  0.00  0.00    +0.000 HD
BRANCH  42  44
ATOM     44  C   UNL     1      -9.941  -3.687  13.834  0.00  0.00    +0.000 C 
ATOM     45  H   UNL     1      -9.825  -2.982  14.663  0.00  0.00    +0.000 HD
ATOM     46  H   UNL     1      -9.871  -3.135  12.907  0.00  0.00    +0.000 HD
BRANCH  44  47
ATOM     47  O   UNL     1      -8.819  -4.565  13.833  0.00  0.00    +0.000 OA
ATOM     48  H   UNL     1      -8.651  -4.846  14.748  0.00  0.00    +0.000 HD
ENDBRANCH  44  47
ENDBRANCH  42  44
BRANCH  42  49
ATOM     49  O   UNL     1     -12.245  -4.045  13.011  0.00  0.00    +0.000 OA
ATOM     50  H   UNL     1     -13.066  -3.826  13.487  0.00  0.00    +0.000 HD
ENDBRANCH  42  49
ENDBRANCH  39  42
ENDBRANCH  18  39
TORSDOF 6
ENDMDL
MODEL 6
REMARK VINA RESULT:    -8.256      2.326      7.348
REMARK INTER + INTRA:         -10.883
REMARK INTER:                 -10.652
REMARK INTRA:                  -0.231
REMARK UNBOUND:                -0.455
REMARK  Name = 
REMARK  6 active torsions:
REMARK  status: ('A' for Active; 'I' for Inactive)
REMARK    1  A    between atoms: C_1  and  N_2
REMARK    2  A    between atoms: N_19  and  C_20
REMARK    3  A    between atoms: C_20  and  C_21
REMARK    4  A    between atoms: C_21  and  O_22
REMARK    5  A    between atoms: C_21  and  C_23
REMARK    6  A    between atoms: C_23  and  O_24
REMARK                            x       y       z     vdW  Elec       q    Type
REMARK                         _______ _______ _______ _____ _____    ______ ____
ROOT
ATOM      1  N   UNL     1      -9.401  -2.081  20.854  0.00  0.00    +0.000 N 
ATOM      2  C   UNL     1     -10.034  -0.831  20.930  0.00  0.00    +0.000 A 
ATOM      3  C   UNL     1      -9.992   0.143  21.951  0.00  0.00    +0.000 A 
ATOM      4  C   UNL     1     -10.735   1.311  21.793  0.00  0.00    +0.000 A 
ATOM      5  C   UNL     1     -11.492   1.518  20.650  0.00  0.00    +0.000 A 
ATOM      6  C   UNL     1     -11.548   0.544  19.645  0.00  0.00    +0.000 A 
ATOM      7  C   UNL     1     -10.819  -0.653  19.777  0.00  0.00    +0.000 A 
ATOM      8  C   UNL     1     -10.648  -1.850  19.090  0.00  0.00    +0.000 A 
ATOM      9  C   UNL     1     -11.284  -2.209  17.871  0.00  0.00    +0.000 A 
ATOM     10  C   UNL     1     -11.171  -3.555  17.432  0.00  0.00    +0.000 A 
ATOM     11  C   UNL     1     -10.317  -4.432  18.140  0.00  0.00    +0.000 A 
ATOM     12  C   UNL     1     -10.045  -5.750  17.829  0.00  0.00    +0.000 A 
ATOM     13  C   UNL     1     -10.676  -6.929  17.409  0.00  0.00    +0.000 A 
ATOM     14  C   UNL     1      -9.870  -8.001  17.014  0.00  0.00    +0.000 A 
ATOM     15  C   UNL     1      -8.504  -7.808  16.827  0.00  0.00    +0.000 A 
ATOM     16  C   UNL     1      -7.874  -6.668  17.328  0.00  0.00    +0.000 A 
ATOM     17  C   UNL     1      -8.667  -5.790  18.073  0.00  0.00    +0.000 A 
ATOM     18  N   UNL     1      -8.454  -4.885  19.117  0.00  0.00    +0.000 N 
ATOM     19  C   UNL     1      -9.450  -3.915  19.053  0.00  0.00    +0.000 A 
ATOM     20  C   UNL     1      -9.751  -2.707  19.673  0.00  0.00    +0.000 A 
ATOM     21  C   UNL     1     -11.826  -3.686  16.167  0.00  0.00    +0.000 C 
ATOM     22  O   UNL     1     -11.899  -4.580  15.342  0.00  0.00    +0.000 OA
ATOM     23  N   UNL     1     -12.355  -2.435  15.964  0.00  0.00    +0.000 N 
ATOM     24  C   UNL     1     -12.030  -1.479  16.886  0.00  0.00    +0.000 C 
ATOM     25  O   UNL     1     -12.313  -0.295  16.715  0.00  0.00    +0.000 OA
ATOM     26  H   UNL     1      -9.409   0.004  22.855  0.00  0.00    +0.000 HD
ATOM     27  H   UNL     1     -10.721   2.066  22.575  0.00  0.00    +0.000 HD
ATOM     28  H   UNL     1     -12.058   2.438  20.532  0.00  0.00    +0.000 HD
ATOM     29  H   UNL     1     -12.163   0.739  18.777  0.00  0.00    +0.000 HD
ATOM     30  H   UNL     1     -11.753  -7.041  17.483  0.00  0.00    +0.000 HD
ATOM     31  H   UNL     1     -10.317  -8.964  16.785  0.00  0.00    +0.000 HD
ATOM     32  H   UNL     1      -7.914  -8.567  16.319  0.00  0.00    +0.000 HD
ATOM     33  H   UNL     1      -6.824  -6.499  17.137  0.00  0.00    +0.000 HD
ATOM     34  H   UNL     1     -12.761  -2.178  15.079  0.00  0.00    +0.000 HD
ENDROOT
BRANCH   1  35
ATOM     35  C   UNL     1      -8.692  -2.654  21.978  0.00  0.00    +0.000 C 
ATOM     36  H   UNL     1      -8.131  -1.889  22.517  0.00  0.00    +0.000 HD
ATOM     37  H   UNL     1      -7.971  -3.387  21.608  0.00  0.00    +0.000 HD
ATOM     38  H   UNL     1      -9.422  -3.064  22.678  0.00  0.00    +0.000 HD
ENDBRANCH   1  35
BRANCH  18  39
ATOM     39  C   UNL     1      -7.695  -5.125  20.324  0.00  0.00    +0.000 C 
ATOM     40  H   UNL     1      -7.978  -6.150  20.596  0.00  0.00    +0.000 HD
ATOM     41  H   UNL     1      -8.086  -4.413  21.047  0.00  0.00    +0.000 HD
BRANCH  39  42
ATOM     42  C   UNL     1      -6.171  -5.071  20.448  0.00  0.00    +0.000 C 
ATOM     43  H   UNL     1      -5.890  -6.021  20.921  0.00  0.00    +0.000 HD
BRANCH  42  44
ATOM     44  C   UNL     1      -5.660  -3.963  21.366  0.00  0.00    +0.000 C 
ATOM     45  H   UNL     1      -5.636  -4.299  22.407  0.00  0.00    +0.000 HD
ATOM     46  H   UNL     1      -6.274  -3.073  21.312  0.00  0.00    +0.000 HD
BRANCH  44  47
ATOM     47  O   UNL     1      -4.350  -3.538  21.002  0.00  0.00    +0.000 OA
ATOM     48  H   UNL     1      -4.244  -2.611  21.275  0.00  0.00    +0.000 HD
ENDBRANCH  44  47
ENDBRANCH  42  44
BRANCH  42  49
ATOM     49  O   UNL     1      -5.515  -5.119  19.186  0.00  0.00    +0.000 OA
ATOM     50  H   UNL     1      -6.031  -4.606  18.539  0.00  0.00    +0.000 HD
ENDBRANCH  42  49
ENDBRANCH  39  42
ENDBRANCH  18  39
TORSDOF 6
ENDMDL
MODEL 7
REMARK VINA RESULT:    -8.160      2.887      4.925
REMARK INTER + INTRA:         -10.762
REMARK INTER:                 -10.398
REMARK INTRA:                  -0.364
REMARK UNBOUND:                -0.455
REMARK  Name = 
REMARK  6 active torsions:
REMARK  status: ('A' for Active; 'I' for Inactive)
REMARK    1  A    between atoms: C_1  and  N_2
REMARK    2  A    between atoms: N_19  and  C_20
REMARK    3  A    between atoms: C_20  and  C_21
REMARK    4  A    between atoms: C_21  and  O_22
REMARK    5  A    between atoms: C_21  and  C_23
REMARK    6  A    between atoms: C_23  and  O_24
REMARK                            x       y       z     vdW  Elec       q    Type
REMARK                         _______ _______ _______ _____ _____    ______ ____
ROOT
ATOM      1  N   UNL     1      -8.888  -5.625  19.141  0.00  0.00    +0.000 N 
ATOM      2  C   UNL     1      -9.155  -6.742  18.336  0.00  0.00    +0.000 A 
ATOM      3  C   UNL     1      -8.739  -8.083  18.484  0.00  0.00    +0.000 A 
ATOM      4  C   UNL     1      -9.127  -9.014  17.523  0.00  0.00    +0.000 A 
ATOM      5  C   UNL     1      -9.917  -8.634  16.448  0.00  0.00    +0.000 A 
ATOM      6  C   UNL     1     -10.314  -7.301  16.291  0.00  0.00    +0.000 A 
ATOM      7  C   UNL     1      -9.929  -6.330  17.237  0.00  0.00    +0.000 A 
ATOM      8  C   UNL     1     -10.041  -4.957  17.425  0.00  0.00    +0.000 A 
ATOM      9  C   UNL     1     -10.689  -4.047  16.547  0.00  0.00    +0.000 A 
ATOM     10  C   UNL     1     -10.509  -2.657  16.779  0.00  0.00    +0.000 A 
ATOM     11  C   UNL     1      -9.824  -2.245  17.946  0.00  0.00    +0.000 A 
ATOM     12  C   UNL     1      -9.603  -0.945  18.358  0.00  0.00    +0.000 A 
ATOM     13  C   UNL     1      -9.229   0.312  17.864  0.00  0.00    +0.000 A 
ATOM     14  C   UNL     1      -9.366   1.418  18.709  0.00  0.00    +0.000 A 
ATOM     15  C   UNL     1     -10.066   1.292  19.905  0.00  0.00    +0.000 A 
ATOM     16  C   UNL     1     -10.355   0.032  20.429  0.00  0.00    +0.000 A 
ATOM     17  C   UNL     1      -9.847  -1.068  19.731  0.00  0.00    +0.000 A 
ATOM     18  N   UNL     1      -9.440  -2.365  20.060  0.00  0.00    +0.000 N 
ATOM     19  C   UNL     1      -9.579  -3.158  18.925  0.00  0.00    +0.000 A 
ATOM     20  C   UNL     1      -9.484  -4.506  18.593  0.00  0.00    +0.000 A 
ATOM     21  C   UNL     1     -11.287  -1.924  15.828  0.00  0.00    +0.000 C 
ATOM     22  O   UNL     1     -11.563  -0.745  15.692  0.00  0.00    +0.000 OA
ATOM     23  N   UNL     1     -11.822  -2.914  15.041  0.00  0.00    +0.000 N 
ATOM     24  C   UNL     1     -11.577  -4.201  15.431  0.00  0.00    +0.000 C 
ATOM     25  O   UNL     1     -12.138  -5.156  14.897  0.00  0.00    +0.000 OA
ATOM     26  H   UNL     1      -8.120  -8.405  19.314  0.00  0.00    +0.000 HD
ATOM     27  H   UNL     1      -8.807 -10.049  17.618  0.00  0.00    +0.000 HD
ATOM     28  H   UNL     1     -10.224  -9.371  15.712  0.00  0.00    +0.000 HD
ATOM     29  H   UNL     1     -10.916  -7.043  15.430  0.00  0.00    +0.000 HD
ATOM     30  H   UNL     1      -8.755   0.410  16.893  0.00  0.00    +0.000 HD
ATOM     31  H   UNL     1      -8.987   2.388  18.403  0.00  0.00    +0.000 HD
ATOM     32  H   UNL     1     -10.359   2.182  20.457  0.00  0.00    +0.000 HD
ATOM     33  H   UNL     1     -10.943  -0.061  21.332  0.00  0.00    +0.000 HD
ATOM     34  H   UNL     1     -12.536  -2.711  14.361  0.00  0.00    +0.000 HD
ENDROOT
BRANCH   1  35
ATOM     35  C   UNL     1      -7.940  -5.672  20.233  0.00  0.00    +0.000 C 
ATOM     36  H   UNL     1      -6.915  -5.626  19.863  0.00  0.00    +0.000 HD
ATOM     37  H   UNL     1      -8.053  -6.621  20.763  0.00  0.00    +0.000 HD
ATOM     38  H   UNL     1      -8.089  -4.792  20.862  0.00  0.00    +0.000 HD
ENDBRANCH   1  35
BRANCH  18  39
ATOM     39  C   UNL     1      -8.584  -2.746  21.161  0.00  0.00    +0.000 C 
ATOM     40  H   UNL     1      -7.619  -2.298  20.892  0.00  0.00    +0.000 HD
ATOM     41  H   UNL     1      -8.530  -3.832  21.111  0.00  0.00    +0.000 HD
BRANCH  39  42
ATOM     42  C   UNL     1      -8.808  -2.394  22.632  0.00  0.00    +0.000 C 
ATOM     43  H   UNL     1      -9.768  -1.861  22.655  0.00  0.00    +0.000 HD
BRANCH  42  44
ATOM     44  C   UNL     1      -7.769  -1.434  23.208  0.00  0.00    +0.000 C 
ATOM     45  H   UNL     1      -7.605  -1.630  24.271  0.00  0.00    +0.000 HD
ATOM     46  H   UNL     1      -8.063  -0.399  23.096  0.00  0.00    +0.000 HD
BRANCH  44  47
ATOM     47  O   UNL     1      -6.518  -1.544  22.534  0.00  0.00    +0.000 OA
ATOM     48  H   UNL     1      -6.691  -1.588  21.579  0.00  0.00    +0.000 HD
ENDBRANCH  44  47
ENDBRANCH  42  44
BRANCH  42  49
ATOM     49  O   UNL     1      -9.043  -3.540  23.443  0.00  0.00    +0.000 OA
ATOM     50  H   UNL     1      -8.729  -3.359  24.347  0.00  0.00    +0.000 HD
ENDBRANCH  42  49
ENDBRANCH  39  42
ENDBRANCH  18  39
TORSDOF 6
ENDMDL
MODEL 8
REMARK VINA RESULT:    -8.002      2.452      6.327
REMARK INTER + INTRA:         -10.562
REMARK INTER:                 -10.223
REMARK INTRA:                  -0.339
REMARK UNBOUND:                -0.455
REMARK  Name = 
REMARK  6 active torsions:
REMARK  status: ('A' for Active; 'I' for Inactive)
REMARK    1  A    between atoms: C_1  and  N_2
REMARK    2  A    between atoms: N_19  and  C_20
REMARK    3  A    between atoms: C_20  and  C_21
REMARK    4  A    between atoms: C_21  and  O_22
REMARK    5  A    between atoms: C_21  and  C_23
REMARK    6  A    between atoms: C_23  and  O_24
REMARK                            x       y       z     vdW  Elec       q    Type
REMARK                         _______ _______ _______ _____ _____    ______ ____
ROOT
ATOM      1  N   UNL     1     -11.132  -1.291  18.109  0.00  0.00    +0.000 N 
ATOM      2  C   UNL     1     -11.483  -0.025  18.603  0.00  0.00    +0.000 A 
ATOM      3  C   UNL     1     -12.219   1.011  17.990  0.00  0.00    +0.000 A 
ATOM      4  C   UNL     1     -12.417   2.198  18.693  0.00  0.00    +0.000 A 
ATOM      5  C   UNL     1     -11.911   2.352  19.975  0.00  0.00    +0.000 A 
ATOM      6  C   UNL     1     -11.165   1.331  20.576  0.00  0.00    +0.000 A 
ATOM      7  C   UNL     1     -10.935   0.124  19.889  0.00  0.00    +0.000 A 
ATOM      8  C   UNL     1     -10.233  -1.063  20.074  0.00  0.00    +0.000 A 
ATOM      9  C   UNL     1      -9.442  -1.394  21.206  0.00  0.00    +0.000 A 
ATOM     10  C   UNL     1      -8.614  -2.546  21.126  0.00  0.00    +0.000 A 
ATOM     11  C   UNL     1      -8.725  -3.385  19.994  0.00  0.00    +0.000 A 
ATOM     12  C   UNL     1      -8.043  -4.566  19.771  0.00  0.00    +0.000 A 
ATOM     13  C   UNL     1      -6.768  -5.134  19.893  0.00  0.00    +0.000 A 
ATOM     14  C   UNL     1      -6.645  -6.516  19.715  0.00  0.00    +0.000 A 
ATOM     15  C   UNL     1      -7.785  -7.311  19.652  0.00  0.00    +0.000 A 
ATOM     16  C   UNL     1      -9.039  -6.736  19.443  0.00  0.00    +0.000 A 
ATOM     17  C   UNL     1      -9.068  -5.355  19.234  0.00  0.00    +0.000 A 
ATOM     18  N   UNL     1      -9.890  -4.462  18.538  0.00  0.00    +0.000 N 
ATOM     19  C   UNL     1      -9.775  -3.214  19.145  0.00  0.00    +0.000 A 
ATOM     20  C   UNL     1     -10.382  -1.965  19.053  0.00  0.00    +0.000 A 
ATOM     21  C   UNL     1      -7.954  -2.730  22.382  0.00  0.00    +0.000 C 
ATOM     22  O   UNL     1      -7.259  -3.616  22.849  0.00  0.00    +0.000 OA
ATOM     23  N   UNL     1      -8.366  -1.640  23.108  0.00  0.00    +0.000 N 
ATOM     24  C   UNL     1      -9.297  -0.831  22.518  0.00  0.00    +0.000 C 
ATOM     25  O   UNL     1      -9.852   0.074  23.138  0.00  0.00    +0.000 OA
ATOM     26  H   UNL     1     -12.624   0.915  16.988  0.00  0.00    +0.000 HD
ATOM     27  H   UNL     1     -12.975   3.009  18.231  0.00  0.00    +0.000 HD
ATOM     28  H   UNL     1     -12.083   3.277  20.519  0.00  0.00    +0.000 HD
ATOM     29  H   UNL     1     -10.775   1.499  21.571  0.00  0.00    +0.000 HD
ATOM     30  H   UNL     1      -5.890  -4.510  20.023  0.00  0.00    +0.000 HD
ATOM     31  H   UNL     1      -5.661  -6.976  19.694  0.00  0.00    +0.000 HD
ATOM     32  H   UNL     1      -7.697  -8.392  19.730  0.00  0.00    +0.000 HD
ATOM     33  H   UNL     1      -9.928  -7.352  19.446  0.00  0.00    +0.000 HD
ATOM     34  H   UNL     1      -8.173  -1.566  24.094  0.00  0.00    +0.000 HD
ENDROOT
BRANCH   1  35
ATOM     35  C   UNL     1     -11.361  -1.671  16.731  0.00  0.00    +0.000 C 
ATOM     36  H   UNL     1     -11.960  -2.580  16.671  0.00  0.00    +0.000 HD
ATOM     37  H   UNL     1     -10.400  -1.881  16.256  0.00  0.00    +0.000 HD
ATOM     38  H   UNL     1     -11.934  -0.881  16.243  0.00  0.00    +0.000 HD
ENDBRANCH   1  35
BRANCH  18  39
ATOM     39  C   UNL     1     -10.380  -4.614  17.187  0.00  0.00    +0.000 C 
ATOM     40  H   UNL     1      -9.700  -3.982  16.603  0.00  0.00    +0.000 HD
ATOM     41  H   UNL     1     -11.382  -4.189  17.203  0.00  0.00    +0.000 HD
BRANCH  39  42
ATOM     42  C   UNL     1     -10.484  -5.932  16.417  0.00  0.00    +0.000 C 
ATOM     43  H   UNL     1     -10.468  -6.714  17.187  0.00  0.00    +0.000 HD
BRANCH  42  44
ATOM     44  C   UNL     1      -9.298  -6.209  15.496  0.00  0.00    +0.000 C 
ATOM     45  H   UNL     1      -9.230  -5.452  14.709  0.00  0.00    +0.000 HD
ATOM     46  H   UNL     1      -9.366  -7.181  15.025  0.00  0.00    +0.000 HD
BRANCH  44  47
ATOM     47  O   UNL     1      -8.066  -6.224  16.211  0.00  0.00    +0.000 OA
ATOM     48  H   UNL     1      -7.779  -5.305  16.340  0.00  0.00    +0.000 HD
ENDBRANCH  44  47
ENDBRANCH  42  44
BRANCH  42  49
ATOM     49  O   UNL     1     -11.751  -6.105  15.791  0.00  0.00    +0.000 OA
ATOM     50  H   UNL     1     -11.623  -6.542  14.931  0.00  0.00    +0.000 HD
ENDBRANCH  42  49
ENDBRANCH  39  42
ENDBRANCH  18  39
TORSDOF 6
ENDMDL
MODEL 9
REMARK VINA RESULT:    -7.927      3.065      4.466
REMARK INTER + INTRA:         -10.467
REMARK INTER:                  -9.885
REMARK INTRA:                  -0.582
REMARK UNBOUND:                -0.455
REMARK  Name = 
REMARK  6 active torsions:
REMARK  status: ('A' for Active; 'I' for Inactive)
REMARK    1  A    between atoms: C_1  and  N_2
REMARK    2  A    between atoms: N_19  and  C_20
REMARK    3  A    between atoms: C_20  and  C_21
REMARK    4  A    between atoms: C_21  and  O_22
REMARK    5  A    between atoms: C_21  and  C_23
REMARK    6  A    between atoms: C_23  and  O_24
REMARK                            x       y       z     vdW  Elec       q    Type
REMARK                         _______ _______ _______ _____ _____    ______ ____
ROOT
ATOM      1  N   UNL     1     -10.753  -5.843  16.361  0.00  0.00    +0.000 N 
ATOM      2  C   UNL     1     -10.345  -7.164  16.597  0.00  0.00    +0.000 A 
ATOM      3  C   UNL     1     -10.735  -8.358  15.953  0.00  0.00    +0.000 A 
ATOM      4  C   UNL     1     -10.191  -9.564  16.393  0.00  0.00    +0.000 A 
ATOM      5  C   UNL     1      -9.277  -9.589  17.434  0.00  0.00    +0.000 A 
ATOM      6  C   UNL     1      -8.904  -8.407  18.085  0.00  0.00    +0.000 A 
ATOM      7  C   UNL     1      -9.443  -7.172  17.675  0.00  0.00    +0.000 A 
ATOM      8  C   UNL     1      -9.401  -5.837  18.063  0.00  0.00    +0.000 A 
ATOM      9  C   UNL     1      -8.670  -5.311  19.161  0.00  0.00    +0.000 A 
ATOM     10  C   UNL     1      -8.923  -3.968  19.548  0.00  0.00    +0.000 A 
ATOM     11  C   UNL     1      -9.771  -3.176  18.740  0.00  0.00    +0.000 A 
ATOM     12  C   UNL     1     -10.087  -1.844  18.930  0.00  0.00    +0.000 A 
ATOM     13  C   UNL     1     -10.430  -0.934  19.939  0.00  0.00    +0.000 A 
ATOM     14  C   UNL     1     -10.443   0.427  19.618  0.00  0.00    +0.000 A 
ATOM     15  C   UNL     1      -9.906   0.859  18.409  0.00  0.00    +0.000 A 
ATOM     16  C   UNL     1      -9.651  -0.050  17.382  0.00  0.00    +0.000 A 
ATOM     17  C   UNL     1     -10.025  -1.377  17.612  0.00  0.00    +0.000 A 
ATOM     18  N   UNL     1     -10.432  -2.456  16.822  0.00  0.00    +0.000 N 
ATOM     19  C   UNL     1     -10.116  -3.628  17.504  0.00  0.00    +0.000 A 
ATOM     20  C   UNL     1     -10.124  -4.998  17.255  0.00  0.00    +0.000 A 
ATOM     21  C   UNL     1      -8.047  -3.623  20.626  0.00  0.00    +0.000 C 
ATOM     22  O   UNL     1      -7.792  -2.583  21.207  0.00  0.00    +0.000 OA
ATOM     23  N   UNL     1      -7.380  -4.799  20.868  0.00  0.00    +0.000 N 
ATOM     24  C   UNL     1      -7.635  -5.832  20.008  0.00  0.00    +0.000 C 
ATOM     25  O   UNL     1      -6.977  -6.870  20.034  0.00  0.00    +0.000 OA
ATOM     26  H   UNL     1     -11.450  -8.366  15.137  0.00  0.00    +0.000 HD
ATOM     27  H   UNL     1     -10.489 -10.493  15.913  0.00  0.00    +0.000 HD
ATOM     28  H   UNL     1      -8.850 -10.533  17.760  0.00  0.00    +0.000 HD
ATOM     29  H   UNL     1      -8.200  -8.472  18.904  0.00  0.00    +0.000 HD
ATOM     30  H   UNL     1     -10.771  -1.280  20.909  0.00  0.00    +0.000 HD
ATOM     31  H   UNL     1     -10.807   1.153  20.339  0.00  0.00    +0.000 HD
ATOM     32  H   UNL     1      -9.718   1.918  18.247  0.00  0.00    +0.000 HD
ATOM     33  H   UNL     1      -9.188   0.283  16.464  0.00  0.00    +0.000 HD
ATOM     34  H   UNL     1      -6.588  -4.831  21.488  0.00  0.00    +0.000 HD
ENDROOT
BRANCH   1  35
ATOM     35  C   UNL     1     -11.837  -5.520  15.459  0.00  0.00    +0.000 C 
ATOM     36  H   UNL     1     -12.112  -4.468  15.539  0.00  0.00    +0.000 HD
ATOM     37  H   UNL     1     -12.716  -6.109  15.734  0.00  0.00    +0.000 HD
ATOM     38  H   UNL     1     -11.497  -5.681  14.434  0.00  0.00    +0.000 HD
ENDBRANCH   1  35
BRANCH  18  39
ATOM     39  C   UNL     1     -11.416  -2.428  15.763  0.00  0.00    +0.000 C 
ATOM     40  H   UNL     1     -12.004  -1.530  15.995  0.00  0.00    +0.000 HD
ATOM     41  H   UNL     1     -12.013  -3.326  15.910  0.00  0.00    +0.000 HD
BRANCH  39  42
ATOM     42  C   UNL     1     -11.116  -2.350  14.266  0.00  0.00    +0.000 C 
ATOM     43  H   UNL     1     -11.492  -3.295  13.850  0.00  0.00    +0.000 HD
BRANCH  42  44
ATOM     44  C   UNL     1      -9.627  -2.294  13.931  0.00  0.00    +0.000 C 
ATOM     45  H   UNL     1      -9.085  -1.695  14.668  0.00  0.00    +0.000 HD
ATOM     46  H   UNL     1      -9.445  -1.873  12.952  0.00  0.00    +0.000 HD
BRANCH  44  47
ATOM     47  O   UNL     1      -9.045  -3.594  13.895  0.00  0.00    +0.000 OA
ATOM     48  H   UNL     1      -8.673  -3.785  14.772  0.00  0.00    +0.000 HD
ENDBRANCH  44  47
ENDBRANCH  42  44
BRANCH  42  49
ATOM     49  O   UNL     1     -11.892  -1.360  13.599  0.00  0.00    +0.000 OA
ATOM     50  H   UNL     1     -12.794  -1.363  13.967  0.00  0.00    +0.000 HD
ENDBRANCH  42  49
ENDBRANCH  39  42
ENDBRANCH  18  39
TORSDOF 6
ENDMDL
