
 OpenBabel01112422113D

 34 36  0  0  0  0  0  0  0  0999 V2000
    3.4183   -1.1659    1.8765 N   0  0  0  0  0  0  0  0  0  0  0  0
    2.7741   -1.9070    0.7865 C   0  0  0  0  0  0  0  0  0  0  0  0
    3.0689   -1.2624   -0.5839 C   0  0  0  0  0  0  0  0  0  0  0  0
    4.5242   -1.2021   -0.8176 N   0  0  0  0  0  0  0  0  0  0  0  0
    5.1652   -2.2406   -1.4871 C   0  0  0  0  0  0  0  0  0  0  0  0
    5.0112   -2.7568   -2.7160 C   0  0  0  0  0  0  0  0  0  0  0  0
    4.1502   -2.2716   -3.7220 C   0  0  0  0  0  0  0  0  0  0  0  0
    3.4184   -2.8686   -4.7280 C   0  0  0  0  0  0  0  0  0  0  0  0
    2.7595   -1.8451   -5.4651 C   0  0  0  0  0  0  0  0  0  0  0  0
    1.8884   -1.8400   -6.5714 C   0  0  0  0  0  0  0  0  0  0  0  0
    1.4312   -0.6170   -7.0769 C   0  0  0  0  0  0  0  0  0  0  0  0
    1.8342    0.5862   -6.5017 C   0  0  0  0  0  0  0  0  0  0  0  0
    2.6946    0.6050   -5.3988 C   0  0  0  0  0  0  0  0  0  0  0  0
    3.1330   -0.6259   -4.9007 C   0  0  0  0  0  0  0  0  0  0  0  0
    3.9620   -0.9125   -3.8397 N   0  0  0  0  0  0  0  0  0  0  0  0
    5.9124   -3.9250   -2.8389 C   0  0  0  0  0  0  0  0  0  0  0  0
    5.9853   -4.6944   -3.7799 O   0  0  0  0  0  0  0  0  0  0  0  0
    6.6320   -3.9903   -1.6996 N   0  0  0  0  0  0  0  0  0  0  0  0
    6.2531   -3.0275   -0.8363 C   0  0  0  0  0  0  0  0  0  0  0  0
    6.6905   -2.8279    0.2829 O   0  0  0  0  0  0  0  0  0  0  0  0
    3.2032   -1.6205    2.7644 H   0  0  0  0  0  0  0  0  0  0  0  0
    3.0199   -0.2288    1.9360 H   0  0  0  0  0  0  0  0  0  0  0  0
    1.6931   -1.9462    0.9548 H   0  0  0  0  0  0  0  0  0  0  0  0
    3.1523   -2.9356    0.7989 H   0  0  0  0  0  0  0  0  0  0  0  0
    2.6748   -0.2404   -0.6034 H   0  0  0  0  0  0  0  0  0  0  0  0
    2.5534   -1.8258   -1.3689 H   0  0  0  0  0  0  0  0  0  0  0  0
    4.9745   -1.0719    0.1043 H   0  0  0  0  0  0  0  0  0  0  0  0
    3.3634   -3.9332   -4.9202 H   0  0  0  0  0  0  0  0  0  0  0  0
    1.5761   -2.7731   -7.0300 H   0  0  0  0  0  0  0  0  0  0  0  0
    0.7599   -0.6088   -7.9324 H   0  0  0  0  0  0  0  0  0  0  0  0
    1.4772    1.5258   -6.9170 H   0  0  0  0  0  0  0  0  0  0  0  0
    3.0115    1.5435   -4.9564 H   0  0  0  0  0  0  0  0  0  0  0  0
    4.3738   -0.2204   -3.2272 H   0  0  0  0  0  0  0  0  0  0  0  0
    7.3289   -4.6888   -1.5062 H   0  0  0  0  0  0  0  0  0  0  0  0
  1  2  1  0  0  0  0
  1 21  1  0  0  0  0
  1 22  1  0  0  0  0
  2  3  1  0  0  0  0
  2 23  1  0  0  0  0
  2 24  1  0  0  0  0
  3  4  1  0  0  0  0
  3 25  1  0  0  0  0
  3 26  1  0  0  0  0
  4  5  1  0  0  0  0
  4 27  1  0  0  0  0
  5  6  2  0  0  0  0
  5 19  1  0  0  0  0
  6  7  1  0  0  0  0
  6 16  1  0  0  0  0
  7  8  2  0  0  0  0
  7 15  1  0  0  0  0
  8  9  1  0  0  0  0
  8 28  1  0  0  0  0
  9 10  1  0  0  0  0
  9 14  2  0  0  0  0
 10 11  2  0  0  0  0
 10 29  1  0  0  0  0
 11 12  1  0  0  0  0
 11 30  1  0  0  0  0
 12 13  2  0  0  0  0
 12 31  1  0  0  0  0
 13 14  1  0  0  0  0
 13 32  1  0  0  0  0
 14 15  1  0  0  0  0
 15 33  1  0  0  0  0
 16 17  2  0  0  0  0
 16 18  1  0  0  0  0
 18 19  1  0  0  0  0
 18 34  1  0  0  0  0
 19 20  2  0  0  0  0
M  END
$$$$
