REMARK  Name = 
REMARK  6 active torsions:
REMARK  status: ('A' for Active; 'I' for Inactive)
REMARK    1  A    between atoms: S_2  and  C_4
REMARK    2  A    between atoms: S_2  and  N_12
REMARK    3  A    between atoms: C_15  and  O_16
REMARK    4  A    between atoms: C_17  and  O_18
REMARK    5  A    between atoms: C_24  and  O_25
REMARK    6  A    between atoms: C_26  and  O_27
REMARK                            x       y       z     vdW  Elec       q    Type
REMARK                         _______ _______ _______ _____ _____    ______ ____
ROOT
ATOM      1  N   UNL     1       0.251  -0.258   0.774  0.00  0.00    +0.000 N 
ATOM      2  C   UNL     1       1.544   0.127   1.110  0.00  0.00    +0.000 A 
ATOM      3  C   UNL     1       2.725  -0.598   1.389  0.00  0.00    +0.000 A 
ATOM      4  C   UNL     1       3.900   0.115   1.611  0.00  0.00    +0.000 A 
ATOM      5  C   UNL     1       3.910   1.500   1.591  0.00  0.00    +0.000 A 
ATOM      6  C   UNL     1       2.749   2.223   1.359  0.00  0.00    +0.000 A 
ATOM      7  C   UNL     1       1.544   1.528   1.111  0.00  0.00    +0.000 A 
ATOM      8  C   UNL     1       0.213   1.968   0.830  0.00  0.00    +0.000 A 
ATOM      9  C   UNL     1      -0.362   3.255   0.704  0.00  0.00    +0.000 A 
ATOM     10  C   UNL     1      -1.715   3.400   0.387  0.00  0.00    +0.000 A 
ATOM     11  C   UNL     1      -2.488   2.269   0.199  0.00  0.00    +0.000 A 
ATOM     12  C   UNL     1      -1.947   0.984   0.322  0.00  0.00    +0.000 A 
ATOM     13  C   UNL     1      -0.589   0.835   0.640  0.00  0.00    +0.000 A 
ATOM     14  H   UNL     1       2.743  -1.680   1.418  0.00  0.00    +0.000 HD
ATOM     15  H   UNL     1       2.780   3.308   1.355  0.00  0.00    +0.000 HD
ATOM     16  H   UNL     1       0.258   4.139   0.841  0.00  0.00    +0.000 HD
ATOM     17  H   UNL     1      -2.128   4.398   0.280  0.00  0.00    +0.000 HD
ENDROOT
BRANCH   1  19
ATOM     18  O   UNL     1      -1.216  -2.078   1.672  0.00  0.00    +0.000 OA
ATOM     19  S   UNL     1      -0.246  -1.883   0.610  0.00  0.00    +0.000 S 
ATOM     20  O   UNL     1       0.951  -2.701   0.557  0.00  0.00    +0.000 OA
BRANCH  19  21
ATOM     21  C   UNL     1      -1.025  -2.159  -0.947  0.00  0.00    +0.000 A 
ATOM     22  C   UNL     1      -1.963  -3.207  -0.966  0.00  0.00    +0.000 A 
ATOM     23  C   UNL     1      -2.611  -3.544  -2.150  0.00  0.00    +0.000 A 
ATOM     24 CL   UNL     1      -3.741  -4.838  -2.170  0.00  0.00    +0.000 Cl
ATOM     25  C   UNL     1      -2.337  -2.844  -3.318  0.00  0.00    +0.000 A 
ATOM     26  C   UNL     1      -1.389  -1.817  -3.305  0.00  0.00    +0.000 A 
ATOM     27  C   UNL     1      -0.710  -1.481  -2.126  0.00  0.00    +0.000 A 
ATOM     28 CL   UNL     1       0.526  -0.294  -2.290  0.00  0.00    +0.000 Cl
ATOM     29  H   UNL     1      -2.173  -3.771  -0.058  0.00  0.00    +0.000 HD
ATOM     30  H   UNL     1      -2.840  -3.101  -4.247  0.00  0.00    +0.000 HD
ATOM     31  H   UNL     1      -1.169  -1.292  -4.233  0.00  0.00    +0.000 HD
ENDBRANCH  19  21
ENDBRANCH   1  19
BRANCH   4  32
ATOM     32  O   UNL     1       5.086  -0.529   1.842  0.00  0.00    +0.000 OA
ATOM     33  H   UNL     1       4.921  -1.488   1.795  0.00  0.00    +0.000 HD
ENDBRANCH   4  32
BRANCH   5  34
ATOM     34  O   UNL     1       5.082   2.171   1.799  0.00  0.00    +0.000 OA
ATOM     35  H   UNL     1       5.747   1.464   1.923  0.00  0.00    +0.000 HD
ENDBRANCH   5  34
BRANCH  11  36
ATOM     36  O   UNL     1      -3.815   2.360  -0.135  0.00  0.00    +0.000 OA
ATOM     37  H   UNL     1      -4.057   3.301  -0.160  0.00  0.00    +0.000 HD
ENDBRANCH  11  36
BRANCH  12  38
ATOM     38  O   UNL     1      -2.765  -0.088   0.076  0.00  0.00    +0.000 OA
ATOM     39  H   UNL     1      -3.646   0.307  -0.092  0.00  0.00    +0.000 HD
ENDBRANCH  12  38
TORSDOF 6
