MODEL 1
REMARK VINA RESULT:   -11.921      0.000      0.000
REMARK INTER + INTRA:         -17.602
REMARK INTER:                 -16.800
REMARK INTRA:                  -0.802
REMARK UNBOUND:                -0.802
REMARK  Name = 
REMARK  8 active torsions:
REMARK  status: ('A' for Active; 'I' for Inactive)
REMARK    1  A    between atoms: N_1  and  C_2
REMARK    2  A    between atoms: C_11  and  C_12
REMARK    3  A    between atoms: C_16  and  O_17
REMARK    4  A    between atoms: O_17  and  C_18
REMARK    5  A    between atoms: C_18  and  C_19
REMARK    6  A    between atoms: C_19  and  N_20
REMARK    7  A    between atoms: C_19  and  C_21
REMARK    8  A    between atoms: C_21  and  C_22
REMARK                            x       y       z     vdW  Elec       q    Type
REMARK                         _______ _______ _______ _____ _____    ______ ____
ROOT
ATOM      1  O   UNL     1      -7.415  -6.418  18.714  0.00  0.00    +0.000 OA
ENDROOT
BRANCH   1   6
ATOM      2  C   UNL     1      -6.743  -4.001  21.350  0.00  0.00    +0.000 A 
ATOM      3  C   UNL     1      -5.349  -4.002  21.283  0.00  0.00    +0.000 A 
ATOM      4  N   UNL     1      -4.607  -4.684  20.371  0.00  0.00    +0.000 NA
ATOM      5  C   UNL     1      -5.282  -5.471  19.503  0.00  0.00    +0.000 A 
ATOM      6  C   UNL     1      -6.657  -5.610  19.508  0.00  0.00    +0.000 A 
ATOM      7  C   UNL     1      -7.381  -4.847  20.427  0.00  0.00    +0.000 A 
ATOM      8  H   UNL     1      -4.749  -3.432  21.990  0.00  0.00    +0.000 HD
ATOM      9  H   UNL     1      -4.643  -5.993  18.799  0.00  0.00    +0.000 HD
ATOM     10  H   UNL     1      -8.465  -4.930  20.410  0.00  0.00    +0.000 HD
BRANCH   2  20
ATOM     11  C   UNL     1      -8.356  -2.103  21.969  0.00  0.00    +0.000 A 
ATOM     12  C   UNL     1      -8.990  -1.317  22.956  0.00  0.00    +0.000 A 
ATOM     13  C   UNL     1      -8.896  -1.721  24.287  0.00  0.00    +0.000 A 
ATOM     14  N   UNL     1      -9.439  -1.214  25.439  0.00  0.00    +0.000 N 
ATOM     15  N   UNL     1      -9.128  -1.909  26.546  0.00  0.00    +0.000 NA
ATOM     16  C   UNL     1      -8.338  -2.883  26.084  0.00  0.00    +0.000 A 
ATOM     17 CL   UNL     1      -7.683  -4.037  27.138  0.00  0.00    +0.000 Cl
ATOM     18  C   UNL     1      -8.150  -2.819  24.685  0.00  0.00    +0.000 A 
ATOM     19  C   UNL     1      -7.440  -3.541  23.707  0.00  0.00    +0.000 A 
ATOM     20  C   UNL     1      -7.518  -3.192  22.332  0.00  0.00    +0.000 A 
ATOM     21  H   UNL     1      -9.568  -0.439  22.683  0.00  0.00    +0.000 HD
ATOM     22  H   UNL     1     -10.040  -0.403  25.534  0.00  0.00    +0.000 HD
ATOM     23  H   UNL     1      -6.819  -4.371  24.036  0.00  0.00    +0.000 HD
BRANCH  11  24
ATOM     24  N   UNL     1      -8.459  -1.640  20.638  0.00  0.00    +0.000 N 
ATOM     25  H   UNL     1      -8.949  -0.755  20.543  0.00  0.00    +0.000 HD
ATOM     26  H   UNL     1      -8.839  -2.335  20.000  0.00  0.00    +0.000 HD
ENDBRANCH  11  24
ENDBRANCH   2  20
ENDBRANCH   1   6
BRANCH   1  27
ATOM     27  C   UNL     1      -8.726  -5.959  18.360  0.00  0.00    +0.000 C 
ATOM     28  H   UNL     1      -8.739  -5.635  17.312  0.00  0.00    +0.000 HD
ATOM     29  H   UNL     1      -9.012  -5.123  19.009  0.00  0.00    +0.000 HD
BRANCH  27  30
ATOM     30  C   UNL     1      -9.711  -7.139  18.550  0.00  0.00    +0.000 C 
ATOM     31  H   UNL     1      -9.479  -7.637  19.498  0.00  0.00    +0.000 HD
BRANCH  30  32
ATOM     32  N   UNL     1     -11.089  -6.618  18.670  0.00  0.00    +0.000 NA
ATOM     33  H   UNL     1     -11.336  -6.513  19.650  0.00  0.00    +0.000 HD
ATOM     34  H   UNL     1     -11.721  -7.329  18.299  0.00  0.00    +0.000 HD
ENDBRANCH  30  32
BRANCH  30  35
ATOM     35  C   UNL     1      -9.553  -8.140  17.389  0.00  0.00    +0.000 C 
ATOM     36  H   UNL     1      -8.758  -7.779  16.719  0.00  0.00    +0.000 HD
ATOM     37  H   UNL     1     -10.466  -8.158  16.781  0.00  0.00    +0.000 HD
BRANCH  35  38
ATOM     38  C   UNL     1      -9.197  -9.543  17.794  0.00  0.00    +0.000 A 
ATOM     39  C   UNL     1      -8.878  -9.968  19.069  0.00  0.00    +0.000 A 
ATOM     40  N   UNL     1      -8.525 -11.289  19.007  0.00  0.00    +0.000 N 
ATOM     41  C   UNL     1      -8.592 -11.742  17.710  0.00  0.00    +0.000 A 
ATOM     42  C   UNL     1      -8.278 -12.997  17.174  0.00  0.00    +0.000 A 
ATOM     43  C   UNL     1      -8.457 -13.180  15.801  0.00  0.00    +0.000 A 
ATOM     44  C   UNL     1      -8.950 -12.152  15.000  0.00  0.00    +0.000 A 
ATOM     45  C   UNL     1      -9.252 -10.903  15.553  0.00  0.00    +0.000 A 
ATOM     46  C   UNL     1      -9.055 -10.680  16.933  0.00  0.00    +0.000 A 
ATOM     47  H   UNL     1      -8.853  -9.439  20.012  0.00  0.00    +0.000 HD
ATOM     48  H   UNL     1      -8.232 -11.853  19.793  0.00  0.00    +0.000 HD
ATOM     49  H   UNL     1      -7.900 -13.803  17.797  0.00  0.00    +0.000 HD
ATOM     50  H   UNL     1      -8.212 -14.139  15.352  0.00  0.00    +0.000 HD
ATOM     51  H   UNL     1      -9.099 -12.320  13.937  0.00  0.00    +0.000 HD
ATOM     52  H   UNL     1      -9.637 -10.110  14.920  0.00  0.00    +0.000 HD
ENDBRANCH  35  38
ENDBRANCH  30  35
ENDBRANCH  27  30
ENDBRANCH   1  27
TORSDOF 8
ENDMDL
MODEL 2
REMARK VINA RESULT:   -11.639      2.934     10.013
REMARK INTER + INTRA:         -17.204
REMARK INTER:                 -16.399
REMARK INTRA:                  -0.805
REMARK UNBOUND:                -0.802
REMARK  Name = 
REMARK  8 active torsions:
REMARK  status: ('A' for Active; 'I' for Inactive)
REMARK    1  A    between atoms: N_1  and  C_2
REMARK    2  A    between atoms: C_11  and  C_12
REMARK    3  A    between atoms: C_16  and  O_17
REMARK    4  A    between atoms: O_17  and  C_18
REMARK    5  A    between atoms: C_18  and  C_19
REMARK    6  A    between atoms: C_19  and  N_20
REMARK    7  A    between atoms: C_19  and  C_21
REMARK    8  A    between atoms: C_21  and  C_22
REMARK                            x       y       z     vdW  Elec       q    Type
REMARK                         _______ _______ _______ _____ _____    ______ ____
ROOT
ATOM      1  O   UNL     1      -7.653  -5.516  18.824  0.00  0.00    +0.000 OA
ENDROOT
BRANCH   1   6
ATOM      2  C   UNL     1      -9.496  -8.200  17.199  0.00  0.00    +0.000 A 
ATOM      3  C   UNL     1     -10.788  -7.697  17.368  0.00  0.00    +0.000 A 
ATOM      4  N   UNL     1     -11.096  -6.490  17.909  0.00  0.00    +0.000 NA
ATOM      5  C   UNL     1     -10.065  -5.750  18.376  0.00  0.00    +0.000 A 
ATOM      6  C   UNL     1      -8.746  -6.163  18.331  0.00  0.00    +0.000 A 
ATOM      7  C   UNL     1      -8.473  -7.387  17.716  0.00  0.00    +0.000 A 
ATOM      8  H   UNL     1     -11.661  -8.271  17.062  0.00  0.00    +0.000 HD
ATOM      9  H   UNL     1     -10.366  -4.798  18.799  0.00  0.00    +0.000 HD
ATOM     10  H   UNL     1      -7.433  -7.698  17.649  0.00  0.00    +0.000 HD
BRANCH   2  20
ATOM     11  C   UNL     1      -8.940  -9.653  15.158  0.00  0.00    +0.000 A 
ATOM     12  C   UNL     1      -8.761 -10.931  14.585  0.00  0.00    +0.000 A 
ATOM     13  C   UNL     1      -8.698 -12.035  15.435  0.00  0.00    +0.000 A 
ATOM     14  N   UNL     1      -8.477 -13.366  15.193  0.00  0.00    +0.000 N 
ATOM     15  N   UNL     1      -8.468 -14.132  16.297  0.00  0.00    +0.000 NA
ATOM     16  C   UNL     1      -8.717 -13.259  17.277  0.00  0.00    +0.000 A 
ATOM     17 CL   UNL     1      -8.805 -13.772  18.890  0.00  0.00    +0.000 Cl
ATOM     18  C   UNL     1      -8.873 -11.935  16.806  0.00  0.00    +0.000 A 
ATOM     19  C   UNL     1      -9.150 -10.671  17.360  0.00  0.00    +0.000 A 
ATOM     20  C   UNL     1      -9.202  -9.506  16.548  0.00  0.00    +0.000 A 
ATOM     21  H   UNL     1      -8.638 -11.049  13.513  0.00  0.00    +0.000 HD
ATOM     22  H   UNL     1      -8.313 -13.812  14.297  0.00  0.00    +0.000 HD
ATOM     23  H   UNL     1      -9.335 -10.612  18.430  0.00  0.00    +0.000 HD
BRANCH  11  24
ATOM     24  N   UNL     1      -9.022  -8.568  14.256  0.00  0.00    +0.000 N 
ATOM     25  H   UNL     1      -8.761  -7.673  14.658  0.00  0.00    +0.000 HD
ATOM     26  H   UNL     1      -9.921  -8.506  13.784  0.00  0.00    +0.000 HD
ENDBRANCH  11  24
ENDBRANCH   2  20
ENDBRANCH   1   6
BRANCH   1  27
ATOM     27  C   UNL     1      -7.841  -4.673  19.968  0.00  0.00    +0.000 C 
ATOM     28  H   UNL     1      -8.671  -5.050  20.579  0.00  0.00    +0.000 HD
ATOM     29  H   UNL     1      -8.058  -3.649  19.641  0.00  0.00    +0.000 HD
BRANCH  27  30
ATOM     30  C   UNL     1      -6.534  -4.698  20.798  0.00  0.00    +0.000 C 
ATOM     31  H   UNL     1      -6.542  -5.591  21.435  0.00  0.00    +0.000 HD
BRANCH  30  32
ATOM     32  N   UNL     1      -5.375  -4.837  19.890  0.00  0.00    +0.000 NA
ATOM     33  H   UNL     1      -5.213  -5.819  19.682  0.00  0.00    +0.000 HD
ATOM     34  H   UNL     1      -4.547  -4.520  20.397  0.00  0.00    +0.000 HD
ENDBRANCH  30  32
BRANCH  30  35
ATOM     35  C   UNL     1      -6.452  -3.436  21.678  0.00  0.00    +0.000 C 
ATOM     36  H   UNL     1      -6.588  -2.552  21.038  0.00  0.00    +0.000 HD
ATOM     37  H   UNL     1      -5.447  -3.340  22.105  0.00  0.00    +0.000 HD
BRANCH  35  38
ATOM     38  C   UNL     1      -7.470  -3.355  22.781  0.00  0.00    +0.000 A 
ATOM     39  C   UNL     1      -7.396  -3.985  24.009  0.00  0.00    +0.000 A 
ATOM     40  N   UNL     1      -8.556  -3.738  24.691  0.00  0.00    +0.000 N 
ATOM     41  C   UNL     1      -9.404  -2.967  23.930  0.00  0.00    +0.000 A 
ATOM     42  C   UNL     1     -10.702  -2.516  24.199  0.00  0.00    +0.000 A 
ATOM     43  C   UNL     1     -11.329  -1.725  23.233  0.00  0.00    +0.000 A 
ATOM     44  C   UNL     1     -10.673  -1.383  22.052  0.00  0.00    +0.000 A 
ATOM     45  C   UNL     1      -9.379  -1.849  21.798  0.00  0.00    +0.000 A 
ATOM     46  C   UNL     1      -8.730  -2.673  22.744  0.00  0.00    +0.000 A 
ATOM     47  H   UNL     1      -6.625  -4.603  24.447  0.00  0.00    +0.000 HD
ATOM     48  H   UNL     1      -8.778  -4.088  25.613  0.00  0.00    +0.000 HD
ATOM     49  H   UNL     1     -11.214  -2.775  25.122  0.00  0.00    +0.000 HD
ATOM     50  H   UNL     1     -12.341  -1.369  23.407  0.00  0.00    +0.000 HD
ATOM     51  H   UNL     1     -11.171  -0.753  21.321  0.00  0.00    +0.000 HD
ATOM     52  H   UNL     1      -8.876  -1.576  20.876  0.00  0.00    +0.000 HD
ENDBRANCH  35  38
ENDBRANCH  30  35
ENDBRANCH  27  30
ENDBRANCH   1  27
TORSDOF 8
ENDMDL
MODEL 3
REMARK VINA RESULT:   -11.234      2.242      2.775
REMARK INTER + INTRA:         -16.633
REMARK INTER:                 -15.799
REMARK INTRA:                  -0.834
REMARK UNBOUND:                -0.802
REMARK  Name = 
REMARK  8 active torsions:
REMARK  status: ('A' for Active; 'I' for Inactive)
REMARK    1  A    between atoms: N_1  and  C_2
REMARK    2  A    between atoms: C_11  and  C_12
REMARK    3  A    between atoms: C_16  and  O_17
REMARK    4  A    between atoms: O_17  and  C_18
REMARK    5  A    between atoms: C_18  and  C_19
REMARK    6  A    between atoms: C_19  and  N_20
REMARK    7  A    between atoms: C_19  and  C_21
REMARK    8  A    between atoms: C_21  and  C_22
REMARK                            x       y       z     vdW  Elec       q    Type
REMARK                         _______ _______ _______ _____ _____    ______ ____
ROOT
ATOM      1  O   UNL     1      -7.957  -6.272  18.430  0.00  0.00    +0.000 OA
ENDROOT
BRANCH   1   6
ATOM      2  C   UNL     1      -7.588  -3.706  20.984  0.00  0.00    +0.000 A 
ATOM      3  C   UNL     1      -6.238  -3.902  21.282  0.00  0.00    +0.000 A 
ATOM      4  N   UNL     1      -5.410  -4.769  20.643  0.00  0.00    +0.000 NA
ATOM      5  C   UNL     1      -5.964  -5.544  19.682  0.00  0.00    +0.000 A 
ATOM      6  C   UNL     1      -7.302  -5.496  19.338  0.00  0.00    +0.000 A 
ATOM      7  C   UNL     1      -8.102  -4.551  19.985  0.00  0.00    +0.000 A 
ATOM      8  H   UNL     1      -5.751  -3.347  22.082  0.00  0.00    +0.000 HD
ATOM      9  H   UNL     1      -5.261  -6.217  19.205  0.00  0.00    +0.000 HD
ATOM     10  H   UNL     1      -9.147  -4.488  19.692  0.00  0.00    +0.000 HD
BRANCH   2  20
ATOM     11  C   UNL     1      -8.816  -2.795  23.045  0.00  0.00    +0.000 A 
ATOM     12  C   UNL     1      -9.709  -1.862  23.617  0.00  0.00    +0.000 A 
ATOM     13  C   UNL     1     -10.102  -0.764  22.851  0.00  0.00    +0.000 A 
ATOM     14  N   UNL     1     -10.892   0.318  23.139  0.00  0.00    +0.000 N 
ATOM     15  N   UNL     1     -11.019   1.191  22.126  0.00  0.00    +0.000 NA
ATOM     16  C   UNL     1     -10.303   0.631  21.147  0.00  0.00    +0.000 A 
ATOM     17 CL   UNL     1     -10.167   1.384  19.635  0.00  0.00    +0.000 Cl
ATOM     18  C   UNL     1      -9.708  -0.592  21.534  0.00  0.00    +0.000 A 
ATOM     19  C   UNL     1      -8.898  -1.577  20.937  0.00  0.00    +0.000 A 
ATOM     20  C   UNL     1      -8.445  -2.703  21.675  0.00  0.00    +0.000 A 
ATOM     21  H   UNL     1     -10.053  -1.974  24.640  0.00  0.00    +0.000 HD
ATOM     22  H   UNL     1     -11.362   0.525  24.013  0.00  0.00    +0.000 HD
ATOM     23  H   UNL     1      -8.636  -1.456  19.889  0.00  0.00    +0.000 HD
BRANCH  11  24
ATOM     24  N   UNL     1      -8.466  -3.901  23.850  0.00  0.00    +0.000 N 
ATOM     25  H   UNL     1      -7.699  -3.722  24.491  0.00  0.00    +0.000 HD
ATOM     26  H   UNL     1      -8.302  -4.751  23.315  0.00  0.00    +0.000 HD
ENDBRANCH  11  24
ENDBRANCH   2  20
ENDBRANCH   1   6
BRANCH   1  27
ATOM     27  C   UNL     1      -9.285  -5.882  18.058  0.00  0.00    +0.000 C 
ATOM     28  H   UNL     1      -9.262  -5.331  17.110  0.00  0.00    +0.000 HD
ATOM     29  H   UNL     1      -9.717  -5.250  18.844  0.00  0.00    +0.000 HD
BRANCH  27  30
ATOM     30  C   UNL     1     -10.129  -7.169  17.889  0.00  0.00    +0.000 C 
ATOM     31  H   UNL     1     -10.280  -7.619  18.877  0.00  0.00    +0.000 HD
BRANCH  30  32
ATOM     32  N   UNL     1     -11.469  -6.816  17.374  0.00  0.00    +0.000 NA
ATOM     33  H   UNL     1     -11.942  -6.201  18.031  0.00  0.00    +0.000 HD
ATOM     34  H   UNL     1     -12.024  -7.674  17.347  0.00  0.00    +0.000 HD
ENDBRANCH  30  32
BRANCH  30  35
ATOM     35  C   UNL     1      -9.384  -8.163  16.977  0.00  0.00    +0.000 C 
ATOM     36  H   UNL     1      -8.409  -7.731  16.709  0.00  0.00    +0.000 HD
ATOM     37  H   UNL     1      -9.925  -8.282  16.030  0.00  0.00    +0.000 HD
BRANCH  35  38
ATOM     38  C   UNL     1      -9.127  -9.517  17.577  0.00  0.00    +0.000 A 
ATOM     39  C   UNL     1      -8.909  -9.789  18.914  0.00  0.00    +0.000 A 
ATOM     40  N   UNL     1      -8.622 -11.122  19.040  0.00  0.00    +0.000 N 
ATOM     41  C   UNL     1      -8.633 -11.733  17.809  0.00  0.00    +0.000 A 
ATOM     42  C   UNL     1      -8.353 -13.059  17.455  0.00  0.00    +0.000 A 
ATOM     43  C   UNL     1      -8.456 -13.408  16.106  0.00  0.00    +0.000 A 
ATOM     44  C   UNL     1      -8.846 -12.470  15.152  0.00  0.00    +0.000 A 
ATOM     45  C   UNL     1      -9.116 -11.149  15.524  0.00  0.00    +0.000 A 
ATOM     46  C   UNL     1      -8.992 -10.760  16.876  0.00  0.00    +0.000 A 
ATOM     47  H   UNL     1      -8.914  -9.146  19.782  0.00  0.00    +0.000 HD
ATOM     48  H   UNL     1      -8.407 -11.593  19.909  0.00  0.00    +0.000 HD
ATOM     49  H   UNL     1      -8.056 -13.795  18.198  0.00  0.00    +0.000 HD
ATOM     50  H   UNL     1      -8.234 -14.426  15.798  0.00  0.00    +0.000 HD
ATOM     51  H   UNL     1      -8.937 -12.765  14.111  0.00  0.00    +0.000 HD
ATOM     52  H   UNL     1      -9.420 -10.426  14.773  0.00  0.00    +0.000 HD
ENDBRANCH  35  38
ENDBRANCH  30  35
ENDBRANCH  27  30
ENDBRANCH   1  27
TORSDOF 8
ENDMDL
MODEL 4
REMARK VINA RESULT:   -10.896      2.591      3.265
REMARK INTER + INTRA:         -16.157
REMARK INTER:                 -15.339
REMARK INTRA:                  -0.818
REMARK UNBOUND:                -0.802
REMARK  Name = 
REMARK  8 active torsions:
REMARK  status: ('A' for Active; 'I' for Inactive)
REMARK    1  A    between atoms: N_1  and  C_2
REMARK    2  A    between atoms: C_11  and  C_12
REMARK    3  A    between atoms: C_16  and  O_17
REMARK    4  A    between atoms: O_17  and  C_18
REMARK    5  A    between atoms: C_18  and  C_19
REMARK    6  A    between atoms: C_19  and  N_20
REMARK    7  A    between atoms: C_19  and  C_21
REMARK    8  A    between atoms: C_21  and  C_22
REMARK                            x       y       z     vdW  Elec       q    Type
REMARK                         _______ _______ _______ _____ _____    ______ ____
ROOT
ATOM      1  O   UNL     1      -6.678  -6.355  19.018  0.00  0.00    +0.000 OA
ENDROOT
BRANCH   1   6
ATOM      2  C   UNL     1      -7.342  -3.578  21.274  0.00  0.00    +0.000 A 
ATOM      3  C   UNL     1      -6.033  -3.328  21.688  0.00  0.00    +0.000 A 
ATOM      4  N   UNL     1      -4.926  -3.958  21.214  0.00  0.00    +0.000 NA
ATOM      5  C   UNL     1      -5.126  -4.948  20.314  0.00  0.00    +0.000 A 
ATOM      6  C   UNL     1      -6.377  -5.338  19.873  0.00  0.00    +0.000 A 
ATOM      7  C   UNL     1      -7.480  -4.625  20.347  0.00  0.00    +0.000 A 
ATOM      8  H   UNL     1      -5.814  -2.582  22.449  0.00  0.00    +0.000 HD
ATOM      9  H   UNL     1      -4.211  -5.417  19.970  0.00  0.00    +0.000 HD
ATOM     10  H   UNL     1      -8.462  -4.908  19.975  0.00  0.00    +0.000 HD
BRANCH   2  20
ATOM     11  C   UNL     1      -9.002  -2.915  23.116  0.00  0.00    +0.000 A 
ATOM     12  C   UNL     1     -10.182  -2.247  23.509  0.00  0.00    +0.000 A 
ATOM     13  C   UNL     1     -10.785  -1.376  22.601  0.00  0.00    +0.000 A 
ATOM     14  N   UNL     1     -11.879  -0.557  22.705  0.00  0.00    +0.000 N 
ATOM     15  N   UNL     1     -12.137   0.159  21.598  0.00  0.00    +0.000 NA
ATOM     16  C   UNL     1     -11.186  -0.238  20.748  0.00  0.00    +0.000 A 
ATOM     17 CL   UNL     1     -11.104   0.405  19.182  0.00  0.00    +0.000 Cl
ATOM     18  C   UNL     1     -10.313  -1.197  21.311  0.00  0.00    +0.000 A 
ATOM     19  C   UNL     1      -9.194  -1.941  20.892  0.00  0.00    +0.000 A 
ATOM     20  C   UNL     1      -8.522  -2.823  21.780  0.00  0.00    +0.000 A 
ATOM     21  H   UNL     1     -10.591  -2.377  24.506  0.00  0.00    +0.000 HD
ATOM     22  H   UNL     1     -12.483  -0.432  23.510  0.00  0.00    +0.000 HD
ATOM     23  H   UNL     1      -8.862  -1.829  19.863  0.00  0.00    +0.000 HD
BRANCH  11  24
ATOM     24  N   UNL     1      -8.442  -3.804  24.060  0.00  0.00    +0.000 N 
ATOM     25  H   UNL     1      -9.105  -4.154  24.746  0.00  0.00    +0.000 HD
ATOM     26  H   UNL     1      -7.611  -3.434  24.516  0.00  0.00    +0.000 HD
ENDBRANCH  11  24
ENDBRANCH   2  20
ENDBRANCH   1   6
BRANCH   1  27
ATOM     27  C   UNL     1      -8.040  -6.482  18.591  0.00  0.00    +0.000 C 
ATOM     28  H   UNL     1      -8.121  -6.256  17.521  0.00  0.00    +0.000 HD
ATOM     29  H   UNL     1      -8.672  -5.792  19.163  0.00  0.00    +0.000 HD
BRANCH  27  30
ATOM     30  C   UNL     1      -8.485  -7.943  18.847  0.00  0.00    +0.000 C 
ATOM     31  H   UNL     1      -7.630  -8.604  18.666  0.00  0.00    +0.000 HD
BRANCH  30  32
ATOM     32  N   UNL     1      -8.854  -8.105  20.269  0.00  0.00    +0.000 NA
ATOM     33  H   UNL     1      -8.817  -7.206  20.742  0.00  0.00    +0.000 HD
ATOM     34  H   UNL     1      -8.134  -8.681  20.710  0.00  0.00    +0.000 HD
ENDBRANCH  30  32
BRANCH  30  35
ATOM     35  C   UNL     1      -9.634  -8.311  17.889  0.00  0.00    +0.000 C 
ATOM     36  H   UNL     1     -10.073  -7.383  17.493  0.00  0.00    +0.000 HD
ATOM     37  H   UNL     1     -10.441  -8.807  18.442  0.00  0.00    +0.000 HD
BRANCH  35  38
ATOM     38  C   UNL     1      -9.243  -9.162  16.713  0.00  0.00    +0.000 A 
ATOM     39  C   UNL     1      -9.180  -8.753  15.394  0.00  0.00    +0.000 A 
ATOM     40  N   UNL     1      -8.877  -9.840  14.620  0.00  0.00    +0.000 N 
ATOM     41  C   UNL     1      -8.753 -10.965  15.402  0.00  0.00    +0.000 A 
ATOM     42  C   UNL     1      -8.500 -12.293  15.040  0.00  0.00    +0.000 A 
ATOM     43  C   UNL     1      -8.413 -13.241  16.062  0.00  0.00    +0.000 A 
ATOM     44  C   UNL     1      -8.552 -12.867  17.397  0.00  0.00    +0.000 A 
ATOM     45  C   UNL     1      -8.810 -11.536  17.739  0.00  0.00    +0.000 A 
ATOM     46  C   UNL     1      -8.932 -10.561  16.725  0.00  0.00    +0.000 A 
ATOM     47  H   UNL     1      -9.343  -7.786  14.940  0.00  0.00    +0.000 HD
ATOM     48  H   UNL     1      -8.781  -9.832  13.614  0.00  0.00    +0.000 HD
ATOM     49  H   UNL     1      -8.384 -12.587  14.000  0.00  0.00    +0.000 HD
ATOM     50  H   UNL     1      -8.229 -14.283  15.813  0.00  0.00    +0.000 HD
ATOM     51  H   UNL     1      -8.464 -13.616  18.180  0.00  0.00    +0.000 HD
ATOM     52  H   UNL     1      -8.916 -11.255  18.783  0.00  0.00    +0.000 HD
ENDBRANCH  35  38
ENDBRANCH  30  35
ENDBRANCH  27  30
ENDBRANCH   1  27
TORSDOF 8
ENDMDL
MODEL 5
REMARK VINA RESULT:   -10.859      2.766      4.232
REMARK INTER + INTRA:         -16.104
REMARK INTER:                 -15.547
REMARK INTRA:                  -0.557
REMARK UNBOUND:                -0.802
REMARK  Name = 
REMARK  8 active torsions:
REMARK  status: ('A' for Active; 'I' for Inactive)
REMARK    1  A    between atoms: N_1  and  C_2
REMARK    2  A    between atoms: C_11  and  C_12
REMARK    3  A    between atoms: C_16  and  O_17
REMARK    4  A    between atoms: O_17  and  C_18
REMARK    5  A    between atoms: C_18  and  C_19
REMARK    6  A    between atoms: C_19  and  N_20
REMARK    7  A    between atoms: C_19  and  C_21
REMARK    8  A    between atoms: C_21  and  C_22
REMARK                            x       y       z     vdW  Elec       q    Type
REMARK                         _______ _______ _______ _____ _____    ______ ____
ROOT
ATOM      1  O   UNL     1     -10.870  -8.145  17.330  0.00  0.00    +0.000 OA
ENDROOT
BRANCH   1   6
ATOM      2  C   UNL     1      -9.803  -4.821  18.357  0.00  0.00    +0.000 A 
ATOM      3  C   UNL     1     -10.494  -4.076  17.400  0.00  0.00    +0.000 A 
ATOM      4  N   UNL     1     -11.358  -4.583  16.483  0.00  0.00    +0.000 NA
ATOM      5  C   UNL     1     -11.506  -5.928  16.464  0.00  0.00    +0.000 A 
ATOM      6  C   UNL     1     -10.829  -6.783  17.313  0.00  0.00    +0.000 A 
ATOM      7  C   UNL     1      -9.993  -6.211  18.275  0.00  0.00    +0.000 A 
ATOM      8  H   UNL     1     -10.372  -2.996  17.330  0.00  0.00    +0.000 HD
ATOM      9  H   UNL     1     -12.205  -6.280  15.714  0.00  0.00    +0.000 HD
ATOM     10  H   UNL     1      -9.486  -6.880  18.966  0.00  0.00    +0.000 HD
BRANCH   2  20
ATOM     11  C   UNL     1      -9.313  -3.182  20.271  0.00  0.00    +0.000 A 
ATOM     12  C   UNL     1      -8.389  -2.584  21.155  0.00  0.00    +0.000 A 
ATOM     13  C   UNL     1      -7.107  -3.128  21.242  0.00  0.00    +0.000 A 
ATOM     14  N   UNL     1      -6.032  -2.815  22.033  0.00  0.00    +0.000 N 
ATOM     15  N   UNL     1      -4.958  -3.598  21.835  0.00  0.00    +0.000 NA
ATOM     16  C   UNL     1      -5.357  -4.426  20.865  0.00  0.00    +0.000 A 
ATOM     17 CL   UNL     1      -4.316  -5.621  20.265  0.00  0.00    +0.000 Cl
ATOM     18  C   UNL     1      -6.686  -4.182  20.449  0.00  0.00    +0.000 A 
ATOM     19  C   UNL     1      -7.581  -4.711  19.499  0.00  0.00    +0.000 A 
ATOM     20  C   UNL     1      -8.907  -4.215  19.381  0.00  0.00    +0.000 A 
ATOM     21  H   UNL     1      -8.678  -1.744  21.779  0.00  0.00    +0.000 HD
ATOM     22  H   UNL     1      -5.972  -2.086  22.735  0.00  0.00    +0.000 HD
ATOM     23  H   UNL     1      -7.224  -5.505  18.848  0.00  0.00    +0.000 HD
BRANCH  11  24
ATOM     24  N   UNL     1     -10.589  -2.582  20.199  0.00  0.00    +0.000 N 
ATOM     25  H   UNL     1     -10.570  -1.588  19.991  0.00  0.00    +0.000 HD
ATOM     26  H   UNL     1     -11.168  -2.770  21.014  0.00  0.00    +0.000 HD
ENDBRANCH  11  24
ENDBRANCH   2  20
ENDBRANCH   1   6
BRANCH   1  27
ATOM     27  C   UNL     1     -11.113  -8.818  16.089  0.00  0.00    +0.000 C 
ATOM     28  H   UNL     1     -11.575  -8.127  15.372  0.00  0.00    +0.000 HD
ATOM     29  H   UNL     1     -11.776  -9.675  16.257  0.00  0.00    +0.000 HD
BRANCH  27  30
ATOM     30  C   UNL     1      -9.751  -9.303  15.535  0.00  0.00    +0.000 C 
ATOM     31  H   UNL     1      -9.911 -10.236  14.983  0.00  0.00    +0.000 HD
BRANCH  30  32
ATOM     32  N   UNL     1      -9.234  -8.318  14.561  0.00  0.00    +0.000 NA
ATOM     33  H   UNL     1      -9.902  -7.560  14.446  0.00  0.00    +0.000 HD
ATOM     34  H   UNL     1      -9.180  -8.782  13.653  0.00  0.00    +0.000 HD
ENDBRANCH  30  32
BRANCH  30  35
ATOM     35  C   UNL     1      -8.776  -9.553  16.702  0.00  0.00    +0.000 C 
ATOM     36  H   UNL     1      -9.000  -8.839  17.507  0.00  0.00    +0.000 HD
ATOM     37  H   UNL     1      -7.749  -9.331  16.388  0.00  0.00    +0.000 HD
BRANCH  35  38
ATOM     38  C   UNL     1      -8.826 -10.933  17.296  0.00  0.00    +0.000 A 
ATOM     39  C   UNL     1      -8.822 -11.242  18.644  0.00  0.00    +0.000 A 
ATOM     40  N   UNL     1      -8.782 -12.604  18.773  0.00  0.00    +0.000 N 
ATOM     41  C   UNL     1      -8.745 -13.202  17.535  0.00  0.00    +0.000 A 
ATOM     42  C   UNL     1      -8.651 -14.555  17.187  0.00  0.00    +0.000 A 
ATOM     43  C   UNL     1      -8.646 -14.878  15.828  0.00  0.00    +0.000 A 
ATOM     44  C   UNL     1      -8.752 -13.885  14.856  0.00  0.00    +0.000 A 
ATOM     45  C   UNL     1      -8.838 -12.538  15.223  0.00  0.00    +0.000 A 
ATOM     46  C   UNL     1      -8.818 -12.179  16.588  0.00  0.00    +0.000 A 
ATOM     47  H   UNL     1      -8.826 -10.609  19.520  0.00  0.00    +0.000 HD
ATOM     48  H   UNL     1      -8.758 -13.107  19.650  0.00  0.00    +0.000 HD
ATOM     49  H   UNL     1      -8.576 -15.332  17.943  0.00  0.00    +0.000 HD
ATOM     50  H   UNL     1      -8.563 -15.918  15.525  0.00  0.00    +0.000 HD
ATOM     51  H   UNL     1      -8.763 -14.158  13.804  0.00  0.00    +0.000 HD
ATOM     52  H   UNL     1      -8.922 -11.773  14.458  0.00  0.00    +0.000 HD
ENDBRANCH  35  38
ENDBRANCH  30  35
ENDBRANCH  27  30
ENDBRANCH   1  27
TORSDOF 8
ENDMDL
MODEL 6
REMARK VINA RESULT:   -10.764      2.806      3.557
REMARK INTER + INTRA:         -15.971
REMARK INTER:                 -15.396
REMARK INTRA:                  -0.575
REMARK UNBOUND:                -0.802
REMARK  Name = 
REMARK  8 active torsions:
REMARK  status: ('A' for Active; 'I' for Inactive)
REMARK    1  A    between atoms: N_1  and  C_2
REMARK    2  A    between atoms: C_11  and  C_12
REMARK    3  A    between atoms: C_16  and  O_17
REMARK    4  A    between atoms: O_17  and  C_18
REMARK    5  A    between atoms: C_18  and  C_19
REMARK    6  A    between atoms: C_19  and  N_20
REMARK    7  A    between atoms: C_19  and  C_21
REMARK    8  A    between atoms: C_21  and  C_22
REMARK                            x       y       z     vdW  Elec       q    Type
REMARK                         _______ _______ _______ _____ _____    ______ ____
ROOT
ATOM      1  O   UNL     1     -11.498  -4.968  17.165  0.00  0.00    +0.000 OA
ENDROOT
BRANCH   1   6
ATOM      2  C   UNL     1     -10.962  -2.064  19.292  0.00  0.00    +0.000 A 
ATOM      3  C   UNL     1     -11.368  -1.072  18.397  0.00  0.00    +0.000 A 
ATOM      4  N   UNL     1     -11.886  -1.295  17.161  0.00  0.00    +0.000 NA
ATOM      5  C   UNL     1     -11.953  -2.582  16.751  0.00  0.00    +0.000 A 
ATOM      6  C   UNL     1     -11.522  -3.651  17.514  0.00  0.00    +0.000 A 
ATOM      7  C   UNL     1     -11.047  -3.377  18.799  0.00  0.00    +0.000 A 
ATOM      8  H   UNL     1     -11.286  -0.017  18.648  0.00  0.00    +0.000 HD
ATOM      9  H   UNL     1     -12.374  -2.704  15.758  0.00  0.00    +0.000 HD
ATOM     10  H   UNL     1     -10.739  -4.219  19.414  0.00  0.00    +0.000 HD
BRANCH   2  20
ATOM     11  C   UNL     1      -9.370  -0.890  20.927  0.00  0.00    +0.000 A 
ATOM     12  C   UNL     1      -8.871  -0.731  22.239  0.00  0.00    +0.000 A 
ATOM     13  C   UNL     1      -9.554  -1.347  23.287  0.00  0.00    +0.000 A 
ATOM     14  N   UNL     1      -9.356  -1.332  24.644  0.00  0.00    +0.000 N 
ATOM     15  N   UNL     1     -10.257  -2.046  25.339  0.00  0.00    +0.000 NA
ATOM     16  C   UNL     1     -11.044  -2.556  24.387  0.00  0.00    +0.000 A 
ATOM     17 CL   UNL     1     -12.354  -3.553  24.790  0.00  0.00    +0.000 Cl
ATOM     18  C   UNL     1     -10.657  -2.161  23.086  0.00  0.00    +0.000 A 
ATOM     19  C   UNL     1     -11.091  -2.395  21.767  0.00  0.00    +0.000 A 
ATOM     20  C   UNL     1     -10.450  -1.775  20.661  0.00  0.00    +0.000 A 
ATOM     21  H   UNL     1      -7.998  -0.116  22.433  0.00  0.00    +0.000 HD
ATOM     22  H   UNL     1      -8.632  -0.842  25.157  0.00  0.00    +0.000 HD
ATOM     23  H   UNL     1     -11.926  -3.075  21.617  0.00  0.00    +0.000 HD
BRANCH  11  24
ATOM     24  N   UNL     1      -8.631  -0.268  19.897  0.00  0.00    +0.000 N 
ATOM     25  H   UNL     1      -9.024   0.611  19.576  0.00  0.00    +0.000 HD
ATOM     26  H   UNL     1      -8.437  -0.887  19.113  0.00  0.00    +0.000 HD
ENDBRANCH  11  24
ENDBRANCH   2  20
ENDBRANCH   1   6
BRANCH   1  27
ATOM     27  C   UNL     1     -10.680  -5.847  17.948  0.00  0.00    +0.000 C 
ATOM     28  H   UNL     1     -11.120  -5.979  18.944  0.00  0.00    +0.000 HD
ATOM     29  H   UNL     1      -9.672  -5.427  18.042  0.00  0.00    +0.000 HD
BRANCH  27  30
ATOM     30  C   UNL     1     -10.620  -7.213  17.222  0.00  0.00    +0.000 C 
ATOM     31  H   UNL     1     -11.279  -7.915  17.746  0.00  0.00    +0.000 HD
BRANCH  30  32
ATOM     32  N   UNL     1     -11.158  -7.069  15.852  0.00  0.00    +0.000 NA
ATOM     33  H   UNL     1     -11.931  -7.714  15.714  0.00  0.00    +0.000 HD
ATOM     34  H   UNL     1     -10.427  -7.366  15.203  0.00  0.00    +0.000 HD
ENDBRANCH  30  32
BRANCH  30  35
ATOM     35  C   UNL     1      -9.175  -7.748  17.241  0.00  0.00    +0.000 C 
ATOM     36  H   UNL     1      -8.568  -7.099  17.889  0.00  0.00    +0.000 HD
ATOM     37  H   UNL     1      -8.731  -7.666  16.242  0.00  0.00    +0.000 HD
BRANCH  35  38
ATOM     38  C   UNL     1      -9.018  -9.157  17.741  0.00  0.00    +0.000 A 
ATOM     39  C   UNL     1      -8.860  -9.542  19.059  0.00  0.00    +0.000 A 
ATOM     40  N   UNL     1      -8.656 -10.895  19.090  0.00  0.00    +0.000 N 
ATOM     41  C   UNL     1      -8.662 -11.410  17.815  0.00  0.00    +0.000 A 
ATOM     42  C   UNL     1      -8.449 -12.720  17.368  0.00  0.00    +0.000 A 
ATOM     43  C   UNL     1      -8.528 -12.959  15.994  0.00  0.00    +0.000 A 
ATOM     44  C   UNL     1      -8.831 -11.930  15.105  0.00  0.00    +0.000 A 
ATOM     45  C   UNL     1      -9.035 -10.626  15.570  0.00  0.00    +0.000 A 
ATOM     46  C   UNL     1      -8.933 -10.349  16.951  0.00  0.00    +0.000 A 
ATOM     47  H   UNL     1      -8.856  -8.967  19.974  0.00  0.00    +0.000 HD
ATOM     48  H   UNL     1      -8.498 -11.443  19.925  0.00  0.00    +0.000 HD
ATOM     49  H   UNL     1      -8.220 -13.526  18.060  0.00  0.00    +0.000 HD
ATOM     50  H   UNL     1      -8.357 -13.963  15.615  0.00  0.00    +0.000 HD
ATOM     51  H   UNL     1      -8.905 -12.140  14.041  0.00  0.00    +0.000 HD
ATOM     52  H   UNL     1      -9.271  -9.832  14.869  0.00  0.00    +0.000 HD
ENDBRANCH  35  38
ENDBRANCH  30  35
ENDBRANCH  27  30
ENDBRANCH   1  27
TORSDOF 8
ENDMDL
MODEL 7
REMARK VINA RESULT:   -10.665      2.378      3.969
REMARK INTER + INTRA:         -15.831
REMARK INTER:                 -15.417
REMARK INTRA:                  -0.414
REMARK UNBOUND:                -0.802
REMARK  Name = 
REMARK  8 active torsions:
REMARK  status: ('A' for Active; 'I' for Inactive)
REMARK    1  A    between atoms: N_1  and  C_2
REMARK    2  A    between atoms: C_11  and  C_12
REMARK    3  A    between atoms: C_16  and  O_17
REMARK    4  A    between atoms: O_17  and  C_18
REMARK    5  A    between atoms: C_18  and  C_19
REMARK    6  A    between atoms: C_19  and  N_20
REMARK    7  A    between atoms: C_19  and  C_21
REMARK    8  A    between atoms: C_21  and  C_22
REMARK                            x       y       z     vdW  Elec       q    Type
REMARK                         _______ _______ _______ _____ _____    ______ ____
ROOT
ATOM      1  O   UNL     1     -10.847  -8.054  17.432  0.00  0.00    +0.000 OA
ENDROOT
BRANCH   1   6
ATOM      2  C   UNL     1      -9.678  -4.779  18.502  0.00  0.00    +0.000 A 
ATOM      3  C   UNL     1     -10.347  -4.000  17.557  0.00  0.00    +0.000 A 
ATOM      4  N   UNL     1     -11.227  -4.468  16.634  0.00  0.00    +0.000 NA
ATOM      5  C   UNL     1     -11.416  -5.807  16.597  0.00  0.00    +0.000 A 
ATOM      6  C   UNL     1     -10.764  -6.694  17.433  0.00  0.00    +0.000 A 
ATOM      7  C   UNL     1      -9.910  -6.161  18.402  0.00  0.00    +0.000 A 
ATOM      8  H   UNL     1     -10.193  -2.923  17.501  0.00  0.00    +0.000 HD
ATOM      9  H   UNL     1     -12.126  -6.128  15.843  0.00  0.00    +0.000 HD
ATOM     10  H   UNL     1      -9.423  -6.854  19.082  0.00  0.00    +0.000 HD
BRANCH   2  20
ATOM     11  C   UNL     1      -7.475  -4.745  19.820  0.00  0.00    +0.000 A 
ATOM     12  C   UNL     1      -6.695  -4.222  20.874  0.00  0.00    +0.000 A 
ATOM     13  C   UNL     1      -7.150  -3.080  21.532  0.00  0.00    +0.000 A 
ATOM     14  N   UNL     1      -6.600  -2.319  22.532  0.00  0.00    +0.000 N 
ATOM     15  N   UNL     1      -7.347  -1.262  22.892  0.00  0.00    +0.000 NA
ATOM     16  C   UNL     1      -8.425  -1.367  22.108  0.00  0.00    +0.000 A 
ATOM     17 CL   UNL     1      -9.678  -0.231  22.204  0.00  0.00    +0.000 Cl
ATOM     18  C   UNL     1      -8.365  -2.482  21.240  0.00  0.00    +0.000 A 
ATOM     19  C   UNL     1      -9.184  -3.065  20.255  0.00  0.00    +0.000 A 
ATOM     20  C   UNL     1      -8.763  -4.214  19.533  0.00  0.00    +0.000 A 
ATOM     21  H   UNL     1      -5.746  -4.676  21.143  0.00  0.00    +0.000 HD
ATOM     22  H   UNL     1      -5.713  -2.462  23.000  0.00  0.00    +0.000 HD
ATOM     23  H   UNL     1     -10.157  -2.616  20.069  0.00  0.00    +0.000 HD
BRANCH  11  24
ATOM     24  N   UNL     1      -6.986  -5.916  19.200  0.00  0.00    +0.000 N 
ATOM     25  H   UNL     1      -6.796  -6.678  19.843  0.00  0.00    +0.000 HD
ATOM     26  H   UNL     1      -6.188  -5.746  18.593  0.00  0.00    +0.000 HD
ENDBRANCH  11  24
ENDBRANCH   2  20
ENDBRANCH   1   6
BRANCH   1  27
ATOM     27  C   UNL     1     -11.128  -8.701  16.185  0.00  0.00    +0.000 C 
ATOM     28  H   UNL     1     -11.517  -7.972  15.463  0.00  0.00    +0.000 HD
ATOM     29  H   UNL     1     -11.867  -9.497  16.341  0.00  0.00    +0.000 HD
BRANCH  27  30
ATOM     30  C   UNL     1      -9.806  -9.304  15.651  0.00  0.00    +0.000 C 
ATOM     31  H   UNL     1     -10.032 -10.252  15.150  0.00  0.00    +0.000 HD
BRANCH  30  32
ATOM     32  N   UNL     1      -9.234  -8.407  14.623  0.00  0.00    +0.000 NA
ATOM     33  H   UNL     1      -9.852  -7.615  14.471  0.00  0.00    +0.000 HD
ATOM     34  H   UNL     1      -9.218  -8.922  13.741  0.00  0.00    +0.000 HD
ENDBRANCH  30  32
BRANCH  30  35
ATOM     35  C   UNL     1      -8.839  -9.556  16.824  0.00  0.00    +0.000 C 
ATOM     36  H   UNL     1      -9.092  -8.866  17.643  0.00  0.00    +0.000 HD
ATOM     37  H   UNL     1      -7.814  -9.301  16.529  0.00  0.00    +0.000 HD
BRANCH  35  38
ATOM     38  C   UNL     1      -8.862 -10.950  17.387  0.00  0.00    +0.000 A 
ATOM     39  C   UNL     1      -8.832 -11.290  18.727  0.00  0.00    +0.000 A 
ATOM     40  N   UNL     1      -8.772 -12.654  18.823  0.00  0.00    +0.000 N 
ATOM     41  C   UNL     1      -8.747 -13.222  17.571  0.00  0.00    +0.000 A 
ATOM     42  C   UNL     1      -8.641 -14.565  17.190  0.00  0.00    +0.000 A 
ATOM     43  C   UNL     1      -8.653 -14.857  15.824  0.00  0.00    +0.000 A 
ATOM     44  C   UNL     1      -8.788 -13.843  14.877  0.00  0.00    +0.000 A 
ATOM     45  C   UNL     1      -8.886 -12.506  15.277  0.00  0.00    +0.000 A 
ATOM     46  C   UNL     1      -8.848 -12.179  16.650  0.00  0.00    +0.000 A 
ATOM     47  H   UNL     1      -8.830 -10.678  19.617  0.00  0.00    +0.000 HD
ATOM     48  H   UNL     1      -8.727 -13.176  19.687  0.00  0.00    +0.000 HD
ATOM     49  H   UNL     1      -8.543 -15.359  17.926  0.00  0.00    +0.000 HD
ATOM     50  H   UNL     1      -8.561 -15.889  15.496  0.00  0.00    +0.000 HD
ATOM     51  H   UNL     1      -8.813 -14.092  13.820  0.00  0.00    +0.000 HD
ATOM     52  H   UNL     1      -8.992 -11.724  14.531  0.00  0.00    +0.000 HD
ENDBRANCH  35  38
ENDBRANCH  30  35
ENDBRANCH  27  30
ENDBRANCH   1  27
TORSDOF 8
ENDMDL
MODEL 8
REMARK VINA RESULT:   -10.593      2.571      3.462
REMARK INTER + INTRA:         -15.730
REMARK INTER:                 -15.213
REMARK INTRA:                  -0.517
REMARK UNBOUND:                -0.802
REMARK  Name = 
REMARK  8 active torsions:
REMARK  status: ('A' for Active; 'I' for Inactive)
REMARK    1  A    between atoms: N_1  and  C_2
REMARK    2  A    between atoms: C_11  and  C_12
REMARK    3  A    between atoms: C_16  and  O_17
REMARK    4  A    between atoms: O_17  and  C_18
REMARK    5  A    between atoms: C_18  and  C_19
REMARK    6  A    between atoms: C_19  and  N_20
REMARK    7  A    between atoms: C_19  and  C_21
REMARK    8  A    between atoms: C_21  and  C_22
REMARK                            x       y       z     vdW  Elec       q    Type
REMARK                         _______ _______ _______ _____ _____    ______ ____
ROOT
ATOM      1  O   UNL     1     -11.367  -5.318  16.883  0.00  0.00    +0.000 OA
ENDROOT
BRANCH   1   6
ATOM      2  C   UNL     1      -9.855  -2.675  18.876  0.00  0.00    +0.000 A 
ATOM      3  C   UNL     1      -9.710  -1.715  17.873  0.00  0.00    +0.000 A 
ATOM      4  N   UNL     1     -10.150  -1.843  16.594  0.00  0.00    +0.000 NA
ATOM      5  C   UNL     1     -10.719  -3.024  16.261  0.00  0.00    +0.000 A 
ATOM      6  C   UNL     1     -10.862  -4.079  17.142  0.00  0.00    +0.000 A 
ATOM      7  C   UNL     1     -10.443  -3.882  18.460  0.00  0.00    +0.000 A 
ATOM      8  H   UNL     1      -9.211  -0.767  18.067  0.00  0.00    +0.000 HD
ATOM      9  H   UNL     1     -11.052  -3.073  15.230  0.00  0.00    +0.000 HD
ATOM     10  H   UNL     1     -10.586  -4.699  19.163  0.00  0.00    +0.000 HD
BRANCH   2  20
ATOM     11  C   UNL     1      -8.502  -3.339  20.954  0.00  0.00    +0.000 A 
ATOM     12  C   UNL     1      -8.189  -3.142  22.317  0.00  0.00    +0.000 A 
ATOM     13  C   UNL     1      -8.667  -1.994  22.948  0.00  0.00    +0.000 A 
ATOM     14  N   UNL     1      -8.487  -1.504  24.216  0.00  0.00    +0.000 N 
ATOM     15  N   UNL     1      -9.105  -0.333  24.445  0.00  0.00    +0.000 NA
ATOM     16  C   UNL     1      -9.721  -0.080  23.287  0.00  0.00    +0.000 A 
ATOM     17 CL   UNL     1     -10.651   1.323  23.091  0.00  0.00    +0.000 Cl
ATOM     18  C   UNL     1      -9.491  -1.079  22.313  0.00  0.00    +0.000 A 
ATOM     19  C   UNL     1      -9.881  -1.331  20.985  0.00  0.00    +0.000 A 
ATOM     20  C   UNL     1      -9.405  -2.470  20.281  0.00  0.00    +0.000 A 
ATOM     21  H   UNL     1      -7.560  -3.847  22.852  0.00  0.00    +0.000 HD
ATOM     22  H   UNL     1      -7.944  -1.915  24.966  0.00  0.00    +0.000 HD
ATOM     23  H   UNL     1     -10.567  -0.633  20.512  0.00  0.00    +0.000 HD
BRANCH  11  24
ATOM     24  N   UNL     1      -8.016  -4.527  20.365  0.00  0.00    +0.000 N 
ATOM     25  H   UNL     1      -8.304  -4.660  19.400  0.00  0.00    +0.000 HD
ATOM     26  H   UNL     1      -8.210  -5.358  20.919  0.00  0.00    +0.000 HD
ENDBRANCH  11  24
ENDBRANCH   2  20
ENDBRANCH   1   6
BRANCH   1  27
ATOM     27  C   UNL     1     -10.556  -6.220  16.121  0.00  0.00    +0.000 C 
ATOM     28  H   UNL     1      -9.526  -5.845  16.070  0.00  0.00    +0.000 HD
ATOM     29  H   UNL     1     -10.964  -6.318  15.108  0.00  0.00    +0.000 HD
BRANCH  27  30
ATOM     30  C   UNL     1     -10.572  -7.594  16.834  0.00  0.00    +0.000 C 
ATOM     31  H   UNL     1     -10.970  -7.457  17.846  0.00  0.00    +0.000 HD
BRANCH  30  32
ATOM     32  N   UNL     1     -11.503  -8.504  16.132  0.00  0.00    +0.000 NA
ATOM     33  H   UNL     1     -12.337  -8.648  16.695  0.00  0.00    +0.000 HD
ATOM     34  H   UNL     1     -11.050  -9.417  16.067  0.00  0.00    +0.000 HD
ENDBRANCH  30  32
BRANCH  30  35
ATOM     35  C   UNL     1      -9.139  -8.155  16.914  0.00  0.00    +0.000 C 
ATOM     36  H   UNL     1      -8.529  -7.474  17.525  0.00  0.00    +0.000 HD
ATOM     37  H   UNL     1      -8.679  -8.154  15.919  0.00  0.00    +0.000 HD
BRANCH  35  38
ATOM     38  C   UNL     1      -9.019  -9.527  17.516  0.00  0.00    +0.000 A 
ATOM     39  C   UNL     1      -8.906  -9.822  18.861  0.00  0.00    +0.000 A 
ATOM     40  N   UNL     1      -8.725 -11.173  18.992  0.00  0.00    +0.000 N 
ATOM     41  C   UNL     1      -8.703 -11.775  17.756  0.00  0.00    +0.000 A 
ATOM     42  C   UNL     1      -8.498 -13.116  17.408  0.00  0.00    +0.000 A 
ATOM     43  C   UNL     1      -8.541 -13.449  16.052  0.00  0.00    +0.000 A 
ATOM     44  C   UNL     1      -8.801 -12.481  15.085  0.00  0.00    +0.000 A 
ATOM     45  C   UNL     1      -8.997 -11.145  15.452  0.00  0.00    +0.000 A 
ATOM     46  C   UNL     1      -8.931 -10.773  16.813  0.00  0.00    +0.000 A 
ATOM     47  H   UNL     1      -8.920  -9.185  19.734  0.00  0.00    +0.000 HD
ATOM     48  H   UNL     1      -8.600 -11.663  19.868  0.00  0.00    +0.000 HD
ATOM     49  H   UNL     1      -8.302 -13.875  18.161  0.00  0.00    +0.000 HD
ATOM     50  H   UNL     1      -8.375 -14.479  15.749  0.00  0.00    +0.000 HD
ATOM     51  H   UNL     1      -8.848 -12.763  14.037  0.00  0.00    +0.000 HD
ATOM     52  H   UNL     1      -9.200 -10.398  14.691  0.00  0.00    +0.000 HD
ENDBRANCH  35  38
ENDBRANCH  30  35
ENDBRANCH  27  30
ENDBRANCH   1  27
TORSDOF 8
ENDMDL
MODEL 9
REMARK VINA RESULT:   -10.586      3.699      4.550
REMARK INTER + INTRA:         -15.719
REMARK INTER:                 -14.907
REMARK INTRA:                  -0.812
REMARK UNBOUND:                -0.802
REMARK  Name = 
REMARK  8 active torsions:
REMARK  status: ('A' for Active; 'I' for Inactive)
REMARK    1  A    between atoms: N_1  and  C_2
REMARK    2  A    between atoms: C_11  and  C_12
REMARK    3  A    between atoms: C_16  and  O_17
REMARK    4  A    between atoms: O_17  and  C_18
REMARK    5  A    between atoms: C_18  and  C_19
REMARK    6  A    between atoms: C_19  and  N_20
REMARK    7  A    between atoms: C_19  and  C_21
REMARK    8  A    between atoms: C_21  and  C_22
REMARK                            x       y       z     vdW  Elec       q    Type
REMARK                         _______ _______ _______ _____ _____    ______ ____
ROOT
ATOM      1  O   UNL     1      -9.435  -4.877  18.042  0.00  0.00    +0.000 OA
ENDROOT
BRANCH   1   6
ATOM      2  C   UNL     1      -9.989  -2.226  20.472  0.00  0.00    +0.000 A 
ATOM      3  C   UNL     1      -8.845  -2.413  21.249  0.00  0.00    +0.000 A 
ATOM      4  N   UNL     1      -7.853  -3.303  20.985  0.00  0.00    +0.000 NA
ATOM      5  C   UNL     1      -8.028  -4.110  19.913  0.00  0.00    +0.000 A 
ATOM      6  C   UNL     1      -9.146  -4.071  19.102  0.00  0.00    +0.000 A 
ATOM      7  C   UNL     1     -10.114  -3.103  19.382  0.00  0.00    +0.000 A 
ATOM      8  H   UNL     1      -8.675  -1.832  22.154  0.00  0.00    +0.000 HD
ATOM      9  H   UNL     1      -7.209  -4.801  19.748  0.00  0.00    +0.000 HD
ATOM     10  H   UNL     1     -10.978  -3.048  18.724  0.00  0.00    +0.000 HD
BRANCH   2  20
ATOM     11  C   UNL     1     -11.865  -1.235  21.917  0.00  0.00    +0.000 A 
ATOM     12  C   UNL     1     -12.892  -0.282  22.093  0.00  0.00    +0.000 A 
ATOM     13  C   UNL     1     -12.969   0.783  21.196  0.00  0.00    +0.000 A 
ATOM     14  N   UNL     1     -13.797   1.875  21.139  0.00  0.00    +0.000 N 
ATOM     15  N   UNL     1     -13.541   2.706  20.115  0.00  0.00    +0.000 NA
ATOM     16  C   UNL     1     -12.527   2.108  19.482  0.00  0.00    +0.000 A 
ATOM     17 CL   UNL     1     -11.847   2.802  18.093  0.00  0.00    +0.000 Cl
ATOM     18  C   UNL     1     -12.126   0.904  20.103  0.00  0.00    +0.000 A 
ATOM     19  C   UNL     1     -11.168  -0.102  19.876  0.00  0.00    +0.000 A 
ATOM     20  C   UNL     1     -11.025  -1.198  20.770  0.00  0.00    +0.000 A 
ATOM     21  H   UNL     1     -13.582  -0.354  22.928  0.00  0.00    +0.000 HD
ATOM     22  H   UNL     1     -14.547   2.115  21.777  0.00  0.00    +0.000 HD
ATOM     23  H   UNL     1     -10.545  -0.024  18.989  0.00  0.00    +0.000 HD
BRANCH  11  24
ATOM     24  N   UNL     1     -11.842  -2.308  22.835  0.00  0.00    +0.000 N 
ATOM     25  H   UNL     1     -11.195  -2.179  23.608  0.00  0.00    +0.000 HD
ATOM     26  H   UNL     1     -11.702  -3.212  22.392  0.00  0.00    +0.000 HD
ENDBRANCH  11  24
ENDBRANCH   2  20
ENDBRANCH   1   6
BRANCH   1  27
ATOM     27  C   UNL     1     -10.762  -5.411  17.955  0.00  0.00    +0.000 C 
ATOM     28  H   UNL     1     -11.154  -5.278  16.939  0.00  0.00    +0.000 HD
ATOM     29  H   UNL     1     -11.413  -4.897  18.673  0.00  0.00    +0.000 HD
BRANCH  27  30
ATOM     30  C   UNL     1     -10.691  -6.921  18.290  0.00  0.00    +0.000 C 
ATOM     31  H   UNL     1     -10.765  -7.041  19.377  0.00  0.00    +0.000 HD
BRANCH  30  32
ATOM     32  N   UNL     1     -11.861  -7.612  17.707  0.00  0.00    +0.000 NA
ATOM     33  H   UNL     1     -12.220  -8.300  18.363  0.00  0.00    +0.000 HD
ATOM     34  H   UNL     1     -11.533  -8.142  16.898  0.00  0.00    +0.000 HD
ENDBRANCH  30  32
BRANCH  30  35
ATOM     35  C   UNL     1      -9.351  -7.500  17.796  0.00  0.00    +0.000 C 
ATOM     36  H   UNL     1      -8.531  -6.919  18.243  0.00  0.00    +0.000 HD
ATOM     37  H   UNL     1      -9.257  -7.358  16.712  0.00  0.00    +0.000 HD
BRANCH  35  38
ATOM     38  C   UNL     1      -9.114  -8.946  18.130  0.00  0.00    +0.000 A 
ATOM     39  C   UNL     1      -8.842  -9.460  19.384  0.00  0.00    +0.000 A 
ATOM     40  N   UNL     1      -8.597 -10.800  19.255  0.00  0.00    +0.000 N 
ATOM     41  C   UNL     1      -8.687 -11.180  17.937  0.00  0.00    +0.000 A 
ATOM     42  C   UNL     1      -8.472 -12.427  17.338  0.00  0.00    +0.000 A 
ATOM     43  C   UNL     1      -8.652 -12.526  15.957  0.00  0.00    +0.000 A 
ATOM     44  C   UNL     1      -9.053 -11.422  15.207  0.00  0.00    +0.000 A 
ATOM     45  C   UNL     1      -9.258 -10.182  15.822  0.00  0.00    +0.000 A 
ATOM     46  C   UNL     1      -9.056 -10.046  17.213  0.00  0.00    +0.000 A 
ATOM     47  H   UNL     1      -8.783  -8.983  20.352  0.00  0.00    +0.000 HD
ATOM     48  H   UNL     1      -8.358 -11.425  20.013  0.00  0.00    +0.000 HD
ATOM     49  H   UNL     1      -8.166 -13.292  17.921  0.00  0.00    +0.000 HD
ATOM     50  H   UNL     1      -8.481 -13.477  15.461  0.00  0.00    +0.000 HD
ATOM     51  H   UNL     1      -9.204 -11.522  14.136  0.00  0.00    +0.000 HD
ATOM     52  H   UNL     1      -9.572  -9.329  15.229  0.00  0.00    +0.000 HD
ENDBRANCH  35  38
ENDBRANCH  30  35
ENDBRANCH  27  30
ENDBRANCH   1  27
TORSDOF 8
ENDMDL
