MODEL 1
REMARK VINA RESULT:   -10.632      0.000      0.000
REMARK INTER + INTRA:         -14.178
REMARK INTER:                 -14.051
REMARK INTRA:                  -0.127
REMARK UNBOUND:                -0.127
REMARK  Name = 
REMARK  7 active torsions:
REMARK  status: ('A' for Active; 'I' for Inactive)
REMARK    1  A    between atoms: C_1  and  O_2
REMARK    2  A    between atoms: O_2  and  C_3
REMARK    3  A    between atoms: C_4  and  N_5
REMARK    4  A    between atoms: N_5  and  C_6
REMARK    5  A    between atoms: N_5  and  C_7
REMARK    6  A    between atoms: C_7  and  C_8
REMARK    7  A    between atoms: C_17  and  C_18
REMARK                            x       y       z     vdW  Elec       q    Type
REMARK                         _______ _______ _______ _____ _____    ______ ____
ROOT
ATOM      1  C   UNL     1     -10.138  -7.813  17.921  0.00  0.00    +0.000 C 
ATOM      2  C   UNL     1      -8.912  -8.633  17.335  0.00  0.00    +0.000 C 
ATOM      3  C   UNL     1      -8.587  -7.917  15.968  0.00  0.00    +0.000 C 
ATOM      4  C   UNL     1      -8.644  -6.338  16.214  0.00  0.00    +0.000 C 
ATOM      5  O   UNL     1      -8.200  -6.258  17.611  0.00  0.00    +0.000 OA
ATOM      6  C   UNL     1      -9.291  -6.571  18.541  0.00  0.00    +0.000 C 
ATOM      7  N   UNL     1      -9.617  -5.216  18.870  0.00  0.00    +0.000 N 
ATOM      8  C   UNL     1      -8.835  -4.365  19.737  0.00  0.00    +0.000 A 
ATOM      9  C   UNL     1      -7.686  -4.612  20.515  0.00  0.00    +0.000 A 
ATOM     10  C   UNL     1      -7.227  -3.669  21.419  0.00  0.00    +0.000 A 
ATOM     11  C   UNL     1      -7.876  -2.447  21.551  0.00  0.00    +0.000 A 
ATOM     12  C   UNL     1      -8.844  -2.081  20.626  0.00  0.00    +0.000 A 
ATOM     13  C   UNL     1      -9.222  -2.981  19.616  0.00  0.00    +0.000 A 
ATOM     14  C   UNL     1      -9.772  -2.905  18.350  0.00  0.00    +0.000 A 
ATOM     15  C   UNL     1      -9.907  -1.718  17.625  0.00  0.00    +0.000 A 
ATOM     16  C   UNL     1     -10.859  -1.914  16.646  0.00  0.00    +0.000 A 
ATOM     17  C   UNL     1     -10.823  -3.233  16.098  0.00  0.00    +0.000 A 
ATOM     18  C   UNL     1      -9.802  -3.360  15.034  0.00  0.00    +0.000 A 
ATOM     19  C   UNL     1      -9.489  -2.491  13.980  0.00  0.00    +0.000 A 
ATOM     20  C   UNL     1     -10.540  -2.399  13.095  0.00  0.00    +0.000 A 
ATOM     21  C   UNL     1     -11.380  -3.511  12.976  0.00  0.00    +0.000 A 
ATOM     22  C   UNL     1     -11.096  -4.749  13.662  0.00  0.00    +0.000 A 
ATOM     23  C   UNL     1     -10.061  -4.735  14.657  0.00  0.00    +0.000 A 
ATOM     24  N   UNL     1      -9.836  -5.475  15.889  0.00  0.00    +0.000 N 
ATOM     25  C   UNL     1     -10.362  -4.463  16.703  0.00  0.00    +0.000 A 
ATOM     26  C   UNL     1     -10.014  -4.249  18.015  0.00  0.00    +0.000 A 
ATOM     27  C   UNL     1     -11.840  -0.895  16.882  0.00  0.00    +0.000 C 
ATOM     28  O   UNL     1     -13.057  -0.859  16.766  0.00  0.00    +0.000 OA
ATOM     29  N   UNL     1     -11.124   0.084  17.614  0.00  0.00    +0.000 N 
ATOM     30  C   UNL     1      -9.760  -0.306  17.918  0.00  0.00    +0.000 C 
ATOM     31  H   UNL     1     -10.699  -8.354  18.691  0.00  0.00    +0.000 HD
ATOM     32  H   UNL     1      -8.056  -8.305  17.930  0.00  0.00    +0.000 HD
ATOM     33  H   UNL     1      -7.545  -8.167  15.727  0.00  0.00    +0.000 HD
ATOM     34  H   UNL     1      -9.194  -8.240  15.122  0.00  0.00    +0.000 HD
ATOM     35  H   UNL     1      -7.847  -5.890  15.607  0.00  0.00    +0.000 HD
ATOM     36  H   UNL     1      -7.093  -5.520  20.378  0.00  0.00    +0.000 HD
ATOM     37  H   UNL     1      -6.360  -3.887  22.032  0.00  0.00    +0.000 HD
ATOM     38  H   UNL     1      -7.553  -1.737  22.301  0.00  0.00    +0.000 HD
ATOM     39  H   UNL     1      -9.257  -1.079  20.659  0.00  0.00    +0.000 HD
ATOM     40  H   UNL     1      -8.481  -2.449  13.568  0.00  0.00    +0.000 HD
ATOM     41  H   UNL     1     -10.642  -1.513  12.477  0.00  0.00    +0.000 HD
ATOM     42  H   UNL     1     -12.270  -3.407  12.358  0.00  0.00    +0.000 HD
ATOM     43  H   UNL     1     -11.809  -5.563  13.590  0.00  0.00    +0.000 HD
ATOM     44  H   UNL     1     -11.669   0.588  18.298  0.00  0.00    +0.000 HD
ATOM     45  H   UNL     1      -9.118   0.163  17.159  0.00  0.00    +0.000 HD
ATOM     46  H   UNL     1      -9.433  -0.012  18.906  0.00  0.00    +0.000 HD
ENDROOT
BRANCH   6  47
ATOM     47  C   UNL     1      -8.867  -7.227  19.919  0.00  0.00    +0.000 C 
ATOM     48  H   UNL     1      -7.954  -6.771  20.328  0.00  0.00    +0.000 HD
ATOM     49  H   UNL     1      -9.573  -7.046  20.734  0.00  0.00    +0.000 HD
ATOM     50  H   UNL     1      -8.777  -8.316  19.857  0.00  0.00    +0.000 HD
ENDBRANCH   6  47
BRANCH   1  51
ATOM     51  O   UNL     1     -11.092  -7.496  16.895  0.00  0.00    +0.000 OA
BRANCH  51  52
ATOM     52  C   UNL     1     -11.854  -8.587  16.378  0.00  0.00    +0.000 C 
ATOM     53  H   UNL     1     -11.329  -9.516  16.618  0.00  0.00    +0.000 HD
ATOM     54  H   UNL     1     -11.964  -8.506  15.296  0.00  0.00    +0.000 HD
ATOM     55  H   UNL     1     -12.840  -8.680  16.839  0.00  0.00    +0.000 HD
ENDBRANCH  51  52
ENDBRANCH   1  51
BRANCH   2  56
ATOM     56  N   UNL     1      -8.699 -10.043  17.752  0.00  0.00    +0.000 NA
BRANCH  56  57
ATOM     57  C   UNL     1      -8.356 -10.332  19.124  0.00  0.00    +0.000 C 
ATOM     58  H   UNL     1      -9.240 -10.330  19.767  0.00  0.00    +0.000 HD
ATOM     59  H   UNL     1      -7.718  -9.542  19.537  0.00  0.00    +0.000 HD
ATOM     60  H   UNL     1      -7.833 -11.286  19.222  0.00  0.00    +0.000 HD
ENDBRANCH  56  57
BRANCH  56  61
ATOM     61  C   UNL     1      -9.677 -10.974  17.153  0.00  0.00    +0.000 C 
ATOM     62  H   UNL     1     -10.176 -10.489  16.300  0.00  0.00    +0.000 HD
ATOM     63  H   UNL     1     -10.471 -11.191  17.878  0.00  0.00    +0.000 HD
BRANCH  61  64
ATOM     64  C   UNL     1      -9.142 -12.273  16.569  0.00  0.00    +0.000 A 
ATOM     65  C   UNL     1      -9.100 -13.423  17.376  0.00  0.00    +0.000 A 
ATOM     66  C   UNL     1      -8.789 -14.674  16.834  0.00  0.00    +0.000 A 
ATOM     67  C   UNL     1      -8.498 -14.795  15.484  0.00  0.00    +0.000 A 
ATOM     68  C   UNL     1      -8.487 -13.653  14.670  0.00  0.00    +0.000 A 
ATOM     69  C   UNL     1      -8.806 -12.405  15.207  0.00  0.00    +0.000 A 
ATOM     70  H   UNL     1      -9.343 -13.351  18.431  0.00  0.00    +0.000 HD
ATOM     71  H   UNL     1      -8.796 -15.552  17.473  0.00  0.00    +0.000 HD
ATOM     72  H   UNL     1      -8.301 -15.775  15.055  0.00  0.00    +0.000 HD
ATOM     73  H   UNL     1      -8.261 -13.756  13.612  0.00  0.00    +0.000 HD
ATOM     74  H   UNL     1      -8.810 -11.536  14.554  0.00  0.00    +0.000 HD
ENDBRANCH  61  64
ENDBRANCH  56  61
ENDBRANCH   2  56
TORSDOF 7
ENDMDL
MODEL 2
REMARK VINA RESULT:   -10.053      1.934      5.085
REMARK INTER + INTRA:         -13.412
REMARK INTER:                 -12.761
REMARK INTRA:                  -0.651
REMARK UNBOUND:                -0.127
REMARK  Name = 
REMARK  7 active torsions:
REMARK  status: ('A' for Active; 'I' for Inactive)
REMARK    1  A    between atoms: C_1  and  O_2
REMARK    2  A    between atoms: O_2  and  C_3
REMARK    3  A    between atoms: C_4  and  N_5
REMARK    4  A    between atoms: N_5  and  C_6
REMARK    5  A    between atoms: N_5  and  C_7
REMARK    6  A    between atoms: C_7  and  C_8
REMARK    7  A    between atoms: C_17  and  C_18
REMARK                            x       y       z     vdW  Elec       q    Type
REMARK                         _______ _______ _______ _____ _____    ______ ____
ROOT
ATOM      1  C   UNL     1      -9.423  -5.697  17.079  0.00  0.00    +0.000 C 
ATOM      2  C   UNL     1     -10.611  -6.641  17.545  0.00  0.00    +0.000 C 
ATOM      3  C   UNL     1     -11.259  -5.875  18.761  0.00  0.00    +0.000 C 
ATOM      4  C   UNL     1     -11.373  -4.330  18.365  0.00  0.00    +0.000 C 
ATOM      5  O   UNL     1     -11.577  -4.429  16.915  0.00  0.00    +0.000 OA
ATOM      6  C   UNL     1     -10.310  -4.649  16.207  0.00  0.00    +0.000 C 
ATOM      7  N   UNL     1     -10.118  -3.291  15.796  0.00  0.00    +0.000 N 
ATOM      8  C   UNL     1     -10.846  -2.639  14.732  0.00  0.00    +0.000 A 
ATOM      9  C   UNL     1     -11.801  -3.116  13.812  0.00  0.00    +0.000 A 
ATOM     10  C   UNL     1     -12.220  -2.328  12.754  0.00  0.00    +0.000 A 
ATOM     11  C   UNL     1     -11.728  -1.037  12.600  0.00  0.00    +0.000 A 
ATOM     12  C   UNL     1     -10.991  -0.457  13.624  0.00  0.00    +0.000 A 
ATOM     13  C   UNL     1     -10.675  -1.207  14.769  0.00  0.00    +0.000 A 
ATOM     14  C   UNL     1     -10.366  -0.949  16.091  0.00  0.00    +0.000 A 
ATOM     15  C   UNL     1     -10.518   0.299  16.702  0.00  0.00    +0.000 A 
ATOM     16  C   UNL     1      -9.730   0.326  17.834  0.00  0.00    +0.000 A 
ATOM     17  C   UNL     1      -9.683  -0.935  18.503  0.00  0.00    +0.000 A 
ATOM     18  C   UNL     1     -10.845  -1.128  19.399  0.00  0.00    +0.000 A 
ATOM     19  C   UNL     1     -11.447  -0.234  20.294  0.00  0.00    +0.000 A 
ATOM     20  C   UNL     1     -10.586   0.084  21.321  0.00  0.00    +0.000 A 
ATOM     21  C   UNL     1      -9.638  -0.877  21.686  0.00  0.00    +0.000 A 
ATOM     22  C   UNL     1      -9.630  -2.194  21.096  0.00  0.00    +0.000 A 
ATOM     23  C   UNL     1     -10.472  -2.415  19.953  0.00  0.00    +0.000 A 
ATOM     24  N   UNL     1     -10.381  -3.276  18.784  0.00  0.00    +0.000 N 
ATOM     25  C   UNL     1      -9.863  -2.265  17.963  0.00  0.00    +0.000 A 
ATOM     26  C   UNL     1     -10.007  -2.211  16.598  0.00  0.00    +0.000 A 
ATOM     27  C   UNL     1      -8.869   1.458  17.653  0.00  0.00    +0.000 C 
ATOM     28  O   UNL     1      -7.706   1.685  17.955  0.00  0.00    +0.000 OA
ATOM     29  N   UNL     1      -9.573   2.258  16.719  0.00  0.00    +0.000 N 
ATOM     30  C   UNL     1     -10.800   1.645  16.244  0.00  0.00    +0.000 C 
ATOM     31  H   UNL     1      -8.672  -6.207  16.467  0.00  0.00    +0.000 HD
ATOM     32  H   UNL     1     -11.388  -6.493  16.791  0.00  0.00    +0.000 HD
ATOM     33  H   UNL     1     -12.284  -6.258  18.859  0.00  0.00    +0.000 HD
ATOM     34  H   UNL     1     -10.768  -6.036  19.722  0.00  0.00    +0.000 HD
ATOM     35  H   UNL     1     -12.315  -3.959  18.789  0.00  0.00    +0.000 HD
ATOM     36  H   UNL     1     -12.281  -4.088  13.946  0.00  0.00    +0.000 HD
ATOM     37  H   UNL     1     -12.932  -2.721  12.037  0.00  0.00    +0.000 HD
ATOM     38  H   UNL     1     -12.010  -0.445  11.739  0.00  0.00    +0.000 HD
ATOM     39  H   UNL     1     -10.717   0.590  13.553  0.00  0.00    +0.000 HD
ATOM     40  H   UNL     1     -12.508  -0.311  20.535  0.00  0.00    +0.000 HD
ATOM     41  H   UNL     1     -10.712   1.022  21.852  0.00  0.00    +0.000 HD
ATOM     42  H   UNL     1      -8.889  -0.591  22.423  0.00  0.00    +0.000 HD
ATOM     43  H   UNL     1      -8.838  -2.884  21.363  0.00  0.00    +0.000 HD
ATOM     44  H   UNL     1      -8.991   2.782  16.081  0.00  0.00    +0.000 HD
ATOM     45  H   UNL     1     -11.620   2.072  16.839  0.00  0.00    +0.000 HD
ATOM     46  H   UNL     1     -10.989   1.807  15.192  0.00  0.00    +0.000 HD
ENDROOT
BRANCH   6  47
ATOM     47  C   UNL     1     -10.400  -5.469  14.854  0.00  0.00    +0.000 C 
ATOM     48  H   UNL     1      -9.982  -6.481  14.959  0.00  0.00    +0.000 HD
ATOM     49  H   UNL     1     -11.423  -5.697  14.541  0.00  0.00    +0.000 HD
ATOM     50  H   UNL     1      -9.955  -4.937  14.009  0.00  0.00    +0.000 HD
ENDBRANCH   6  47
BRANCH   1  51
ATOM     51  O   UNL     1      -8.711  -5.160  18.205  0.00  0.00    +0.000 OA
BRANCH  51  52
ATOM     52  C   UNL     1      -7.534  -5.861  18.604  0.00  0.00    +0.000 C 
ATOM     53  H   UNL     1      -6.779  -5.738  17.822  0.00  0.00    +0.000 HD
ATOM     54  H   UNL     1      -7.741  -6.924  18.738  0.00  0.00    +0.000 HD
ATOM     55  H   UNL     1      -7.081  -5.460  19.514  0.00  0.00    +0.000 HD
ENDBRANCH  51  52
ENDBRANCH   1  51
BRANCH   2  56
ATOM     56  N   UNL     1     -10.558  -8.097  17.247  0.00  0.00    +0.000 NA
BRANCH  56  57
ATOM     57  C   UNL     1     -11.559  -8.680  16.388  0.00  0.00    +0.000 C 
ATOM     58  H   UNL     1     -11.732  -8.066  15.500  0.00  0.00    +0.000 HD
ATOM     59  H   UNL     1     -12.532  -8.708  16.892  0.00  0.00    +0.000 HD
ATOM     60  H   UNL     1     -11.297  -9.696  16.086  0.00  0.00    +0.000 HD
ENDBRANCH  56  57
BRANCH  56  61
ATOM     61  C   UNL     1      -9.184  -8.586  17.012  0.00  0.00    +0.000 C 
ATOM     62  H   UNL     1      -8.579  -8.441  17.920  0.00  0.00    +0.000 HD
ATOM     63  H   UNL     1      -8.705  -7.979  16.235  0.00  0.00    +0.000 HD
BRANCH  61  64
ATOM     64  C   UNL     1      -9.012 -10.064  16.695  0.00  0.00    +0.000 A 
ATOM     65  C   UNL     1      -8.784 -10.459  15.365  0.00  0.00    +0.000 A 
ATOM     66  C   UNL     1      -8.441 -11.777  15.052  0.00  0.00    +0.000 A 
ATOM     67  C   UNL     1      -8.336 -12.727  16.057  0.00  0.00    +0.000 A 
ATOM     68  C   UNL     1      -8.606 -12.366  17.385  0.00  0.00    +0.000 A 
ATOM     69  C   UNL     1      -8.940 -11.048  17.700  0.00  0.00    +0.000 A 
ATOM     70  H   UNL     1      -8.843  -9.725  14.567  0.00  0.00    +0.000 HD
ATOM     71  H   UNL     1      -8.238 -12.049  14.020  0.00  0.00    +0.000 HD
ATOM     72  H   UNL     1      -8.026 -13.741  15.818  0.00  0.00    +0.000 HD
ATOM     73  H   UNL     1      -8.519 -13.115  18.168  0.00  0.00    +0.000 HD
ATOM     74  H   UNL     1      -9.126 -10.786  18.739  0.00  0.00    +0.000 HD
ENDBRANCH  61  64
ENDBRANCH  56  61
ENDBRANCH   2  56
TORSDOF 7
ENDMDL
MODEL 3
REMARK VINA RESULT:    -9.937      1.707      2.315
REMARK INTER + INTRA:         -13.259
REMARK INTER:                 -13.917
REMARK INTRA:                   0.658
REMARK UNBOUND:                -0.127
REMARK  Name = 
REMARK  7 active torsions:
REMARK  status: ('A' for Active; 'I' for Inactive)
REMARK    1  A    between atoms: C_1  and  O_2
REMARK    2  A    between atoms: O_2  and  C_3
REMARK    3  A    between atoms: C_4  and  N_5
REMARK    4  A    between atoms: N_5  and  C_6
REMARK    5  A    between atoms: N_5  and  C_7
REMARK    6  A    between atoms: C_7  and  C_8
REMARK    7  A    between atoms: C_17  and  C_18
REMARK                            x       y       z     vdW  Elec       q    Type
REMARK                         _______ _______ _______ _____ _____    ______ ____
ROOT
ATOM      1  C   UNL     1      -9.841  -7.835  17.755  0.00  0.00    +0.000 C 
ATOM      2  C   UNL     1      -9.158  -8.190  16.367  0.00  0.00    +0.000 C 
ATOM      3  C   UNL     1      -9.472  -6.945  15.452  0.00  0.00    +0.000 C 
ATOM      4  C   UNL     1      -9.229  -5.623  16.320  0.00  0.00    +0.000 C 
ATOM      5  O   UNL     1      -8.150  -6.070  17.210  0.00  0.00    +0.000 OA
ATOM      6  C   UNL     1      -8.670  -6.864  18.329  0.00  0.00    +0.000 C 
ATOM      7  N   UNL     1      -8.643  -5.811  19.300  0.00  0.00    +0.000 N 
ATOM      8  C   UNL     1      -7.449  -5.303  19.934  0.00  0.00    +0.000 A 
ATOM      9  C   UNL     1      -6.100  -5.708  19.869  0.00  0.00    +0.000 A 
ATOM     10  C   UNL     1      -5.157  -5.170  20.728  0.00  0.00    +0.000 A 
ATOM     11  C   UNL     1      -5.521  -4.196  21.651  0.00  0.00    +0.000 A 
ATOM     12  C   UNL     1      -6.771  -3.602  21.564  0.00  0.00    +0.000 A 
ATOM     13  C   UNL     1      -7.692  -4.048  20.601  0.00  0.00    +0.000 A 
ATOM     14  C   UNL     1      -8.782  -3.527  19.929  0.00  0.00    +0.000 A 
ATOM     15  C   UNL     1      -9.126  -2.172  19.926  0.00  0.00    +0.000 A 
ATOM     16  C   UNL     1     -10.451  -2.063  19.558  0.00  0.00    +0.000 A 
ATOM     17  C   UNL     1     -10.832  -3.027  18.576  0.00  0.00    +0.000 A 
ATOM     18  C   UNL     1     -10.487  -2.585  17.207  0.00  0.00    +0.000 A 
ATOM     19  C   UNL     1     -10.640  -1.330  16.602  0.00  0.00    +0.000 A 
ATOM     20  C   UNL     1     -11.974  -1.010  16.473  0.00  0.00    +0.000 A 
ATOM     21  C   UNL     1     -12.878  -2.068  16.333  0.00  0.00    +0.000 A 
ATOM     22  C   UNL     1     -12.431  -3.434  16.212  0.00  0.00    +0.000 A 
ATOM     23  C   UNL     1     -11.045  -3.706  16.476  0.00  0.00    +0.000 A 
ATOM     24  N   UNL     1     -10.325  -4.852  17.009  0.00  0.00    +0.000 N 
ATOM     25  C   UNL     1     -10.270  -4.333  18.309  0.00  0.00    +0.000 A 
ATOM     26  C   UNL     1      -9.301  -4.634  19.235  0.00  0.00    +0.000 A 
ATOM     27  C   UNL     1     -11.072  -1.354  20.639  0.00  0.00    +0.000 C 
ATOM     28  O   UNL     1     -12.177  -1.419  21.161  0.00  0.00    +0.000 OA
ATOM     29  N   UNL     1      -9.988  -0.683  21.256  0.00  0.00    +0.000 N 
ATOM     30  C   UNL     1      -8.702  -0.998  20.662  0.00  0.00    +0.000 C 
ATOM     31  H   UNL     1     -10.005  -8.706  18.398  0.00  0.00    +0.000 HD
ATOM     32  H   UNL     1      -8.091  -8.035  16.541  0.00  0.00    +0.000 HD
ATOM     33  H   UNL     1      -8.717  -6.948  14.653  0.00  0.00    +0.000 HD
ATOM     34  H   UNL     1     -10.447  -6.963  14.965  0.00  0.00    +0.000 HD
ATOM     35  H   UNL     1      -8.790  -4.875  15.648  0.00  0.00    +0.000 HD
ATOM     36  H   UNL     1      -5.753  -6.402  19.100  0.00  0.00    +0.000 HD
ATOM     37  H   UNL     1      -4.130  -5.515  20.686  0.00  0.00    +0.000 HD
ATOM     38  H   UNL     1      -4.795  -3.822  22.362  0.00  0.00    +0.000 HD
ATOM     39  H   UNL     1      -7.004  -2.758  22.205  0.00  0.00    +0.000 HD
ATOM     40  H   UNL     1      -9.967  -1.003  15.809  0.00  0.00    +0.000 HD
ATOM     41  H   UNL     1     -12.269   0.033  16.412  0.00  0.00    +0.000 HD
ATOM     42  H   UNL     1     -13.940  -1.827  16.337  0.00  0.00    +0.000 HD
ATOM     43  H   UNL     1     -13.170  -4.227  16.170  0.00  0.00    +0.000 HD
ATOM     44  H   UNL     1     -10.068  -0.572  22.256  0.00  0.00    +0.000 HD
ATOM     45  H   UNL     1      -8.470  -0.186  19.957  0.00  0.00    +0.000 HD
ATOM     46  H   UNL     1      -7.902  -1.097  21.383  0.00  0.00    +0.000 HD
ENDROOT
BRANCH   6  47
ATOM     47  C   UNL     1      -7.696  -7.971  18.910  0.00  0.00    +0.000 C 
ATOM     48  H   UNL     1      -6.661  -7.609  18.986  0.00  0.00    +0.000 HD
ATOM     49  H   UNL     1      -7.901  -8.239  19.950  0.00  0.00    +0.000 HD
ATOM     50  H   UNL     1      -7.752  -8.912  18.356  0.00  0.00    +0.000 HD
ENDBRANCH   6  47
BRANCH   1  51
ATOM     51  O   UNL     1     -11.136  -7.242  17.563  0.00  0.00    +0.000 OA
BRANCH  51  52
ATOM     52  C   UNL     1     -12.126  -8.065  16.947  0.00  0.00    +0.000 C 
ATOM     53  H   UNL     1     -11.669  -9.030  16.707  0.00  0.00    +0.000 HD
ATOM     54  H   UNL     1     -12.498  -7.606  16.031  0.00  0.00    +0.000 HD
ATOM     55  H   UNL     1     -12.965  -8.296  17.607  0.00  0.00    +0.000 HD
ENDBRANCH  51  52
ENDBRANCH   1  51
BRANCH   2  56
ATOM     56  N   UNL     1      -8.922  -9.612  16.002  0.00  0.00    +0.000 NA
BRANCH  56  57
ATOM     57  C   UNL     1      -8.060  -9.922  14.887  0.00  0.00    +0.000 C 
ATOM     58  H   UNL     1      -7.153  -9.311  14.900  0.00  0.00    +0.000 HD
ATOM     59  H   UNL     1      -8.547  -9.666  13.939  0.00  0.00    +0.000 HD
ATOM     60  H   UNL     1      -7.789 -10.980  14.862  0.00  0.00    +0.000 HD
ENDBRANCH  56  57
BRANCH  56  61
ATOM     61  C   UNL     1      -8.745 -10.486  17.179  0.00  0.00    +0.000 C 
ATOM     62  H   UNL     1      -9.612 -10.384  17.850  0.00  0.00    +0.000 HD
ATOM     63  H   UNL     1      -7.878 -10.150  17.760  0.00  0.00    +0.000 HD
BRANCH  61  64
ATOM     64  C   UNL     1      -8.652 -11.984  16.932  0.00  0.00    +0.000 A 
ATOM     65  C   UNL     1      -8.732 -12.867  18.023  0.00  0.00    +0.000 A 
ATOM     66  C   UNL     1      -8.834 -14.247  17.829  0.00  0.00    +0.000 A 
ATOM     67  C   UNL     1      -8.841 -14.772  16.545  0.00  0.00    +0.000 A 
ATOM     68  C   UNL     1      -8.714 -13.913  15.443  0.00  0.00    +0.000 A 
ATOM     69  C   UNL     1      -8.621 -12.534  15.635  0.00  0.00    +0.000 A 
ATOM     70  H   UNL     1      -8.748 -12.474  19.035  0.00  0.00    +0.000 HD
ATOM     71  H   UNL     1      -8.928 -14.905  18.688  0.00  0.00    +0.000 HD
ATOM     72  H   UNL     1      -8.965 -15.841  16.394  0.00  0.00    +0.000 HD
ATOM     73  H   UNL     1      -8.723 -14.331  14.439  0.00  0.00    +0.000 HD
ATOM     74  H   UNL     1      -8.543 -11.885  14.766  0.00  0.00    +0.000 HD
ENDBRANCH  61  64
ENDBRANCH  56  61
ENDBRANCH   2  56
TORSDOF 7
ENDMDL
MODEL 4
REMARK VINA RESULT:    -9.403      3.426      7.722
REMARK INTER + INTRA:         -12.553
REMARK INTER:                 -11.694
REMARK INTRA:                  -0.859
REMARK UNBOUND:                -0.127
REMARK  Name = 
REMARK  7 active torsions:
REMARK  status: ('A' for Active; 'I' for Inactive)
REMARK    1  A    between atoms: C_1  and  O_2
REMARK    2  A    between atoms: O_2  and  C_3
REMARK    3  A    between atoms: C_4  and  N_5
REMARK    4  A    between atoms: N_5  and  C_6
REMARK    5  A    between atoms: N_5  and  C_7
REMARK    6  A    between atoms: C_7  and  C_8
REMARK    7  A    between atoms: C_17  and  C_18
REMARK                            x       y       z     vdW  Elec       q    Type
REMARK                         _______ _______ _______ _____ _____    ______ ____
ROOT
ATOM      1  C   UNL     1     -10.917  -1.231  16.715  0.00  0.00    +0.000 C 
ATOM      2  C   UNL     1     -12.427  -1.655  16.477  0.00  0.00    +0.000 C 
ATOM      3  C   UNL     1     -12.437  -3.210  16.736  0.00  0.00    +0.000 C 
ATOM      4  C   UNL     1     -11.565  -3.496  18.046  0.00  0.00    +0.000 C 
ATOM      5  O   UNL     1     -11.806  -2.268  18.814  0.00  0.00    +0.000 OA
ATOM      6  C   UNL     1     -10.965  -1.163  18.339  0.00  0.00    +0.000 C 
ATOM      7  N   UNL     1      -9.971  -1.265  19.365  0.00  0.00    +0.000 N 
ATOM      8  C   UNL     1     -10.146  -0.829  20.731  0.00  0.00    +0.000 A 
ATOM      9  C   UNL     1     -11.202  -0.156  21.379  0.00  0.00    +0.000 A 
ATOM     10  C   UNL     1     -11.050   0.323  22.669  0.00  0.00    +0.000 A 
ATOM     11  C   UNL     1      -9.861   0.120  23.359  0.00  0.00    +0.000 A 
ATOM     12  C   UNL     1      -8.910  -0.751  22.847  0.00  0.00    +0.000 A 
ATOM     13  C   UNL     1      -9.117  -1.353  21.594  0.00  0.00    +0.000 A 
ATOM     14  C   UNL     1      -8.696  -2.497  20.942  0.00  0.00    +0.000 A 
ATOM     15  C   UNL     1      -8.026  -3.553  21.567  0.00  0.00    +0.000 A 
ATOM     16  C   UNL     1      -7.379  -4.290  20.597  0.00  0.00    +0.000 A 
ATOM     17  C   UNL     1      -8.122  -4.371  19.379  0.00  0.00    +0.000 A 
ATOM     18  C   UNL     1      -9.137  -5.447  19.423  0.00  0.00    +0.000 A 
ATOM     19  C   UNL     1      -9.036  -6.758  19.906  0.00  0.00    +0.000 A 
ATOM     20  C   UNL     1      -8.150  -7.492  19.147  0.00  0.00    +0.000 A 
ATOM     21  C   UNL     1      -8.007  -7.135  17.803  0.00  0.00    +0.000 A 
ATOM     22  C   UNL     1      -8.833  -6.117  17.198  0.00  0.00    +0.000 A 
ATOM     23  C   UNL     1      -9.643  -5.314  18.071  0.00  0.00    +0.000 A 
ATOM     24  N   UNL     1     -10.126  -3.942  18.022  0.00  0.00    +0.000 N 
ATOM     25  C   UNL     1      -9.101  -3.453  18.842  0.00  0.00    +0.000 A 
ATOM     26  C   UNL     1      -9.198  -2.338  19.639  0.00  0.00    +0.000 A 
ATOM     27  C   UNL     1      -6.002  -4.289  20.996  0.00  0.00    +0.000 C 
ATOM     28  O   UNL     1      -4.948  -4.263  20.375  0.00  0.00    +0.000 OA
ATOM     29  N   UNL     1      -6.063  -4.013  22.384  0.00  0.00    +0.000 N 
ATOM     30  C   UNL     1      -7.410  -3.763  22.862  0.00  0.00    +0.000 C 
ATOM     31  H   UNL     1     -10.658  -0.264  16.271  0.00  0.00    +0.000 HD
ATOM     32  H   UNL     1     -12.951  -1.309  17.371  0.00  0.00    +0.000 HD
ATOM     33  H   UNL     1     -13.475  -3.479  16.976  0.00  0.00    +0.000 HD
ATOM     34  H   UNL     1     -12.141  -3.822  15.884  0.00  0.00    +0.000 HD
ATOM     35  H   UNL     1     -12.062  -4.308  18.592  0.00  0.00    +0.000 HD
ATOM     36  H   UNL     1     -12.183  -0.055  20.908  0.00  0.00    +0.000 HD
ATOM     37  H   UNL     1     -11.862   0.865  23.142  0.00  0.00    +0.000 HD
ATOM     38  H   UNL     1      -9.723   0.548  24.344  0.00  0.00    +0.000 HD
ATOM     39  H   UNL     1      -8.042  -1.002  23.447  0.00  0.00    +0.000 HD
ATOM     40  H   UNL     1      -9.908  -7.279  20.303  0.00  0.00    +0.000 HD
ATOM     41  H   UNL     1      -7.655  -8.352  19.587  0.00  0.00    +0.000 HD
ATOM     42  H   UNL     1      -7.234  -7.640  17.227  0.00  0.00    +0.000 HD
ATOM     43  H   UNL     1      -8.642  -5.829  16.170  0.00  0.00    +0.000 HD
ATOM     44  H   UNL     1      -5.291  -3.475  22.747  0.00  0.00    +0.000 HD
ATOM     45  H   UNL     1      -7.775  -4.706  23.295  0.00  0.00    +0.000 HD
ATOM     46  H   UNL     1      -7.471  -2.975  23.601  0.00  0.00    +0.000 HD
ENDROOT
BRANCH   6  47
ATOM     47  C   UNL     1     -11.566   0.293  18.506  0.00  0.00    +0.000 C 
ATOM     48  H   UNL     1     -11.975   0.456  19.514  0.00  0.00    +0.000 HD
ATOM     49  H   UNL     1     -10.820   1.091  18.452  0.00  0.00    +0.000 HD
ATOM     50  H   UNL     1     -12.300   0.536  17.732  0.00  0.00    +0.000 HD
ENDBRANCH   6  47
BRANCH   1  51
ATOM     51  O   UNL     1     -10.009  -2.182  16.135  0.00  0.00    +0.000 OA
BRANCH  51  52
ATOM     52  C   UNL     1      -9.287  -1.749  14.982  0.00  0.00    +0.000 C 
ATOM     53  H   UNL     1      -9.979  -1.214  14.325  0.00  0.00    +0.000 HD
ATOM     54  H   UNL     1      -8.867  -2.599  14.445  0.00  0.00    +0.000 HD
ATOM     55  H   UNL     1      -8.494  -1.035  15.215  0.00  0.00    +0.000 HD
ENDBRANCH  51  52
ENDBRANCH   1  51
BRANCH   2  56
ATOM     56  N   UNL     1     -13.300  -0.823  15.608  0.00  0.00    +0.000 NA
BRANCH  56  57
ATOM     57  C   UNL     1     -14.208   0.121  16.213  0.00  0.00    +0.000 C 
ATOM     58  H   UNL     1     -14.834   0.612  15.463  0.00  0.00    +0.000 HD
ATOM     59  H   UNL     1     -13.654   0.941  16.684  0.00  0.00    +0.000 HD
ATOM     60  H   UNL     1     -14.841  -0.348  16.969  0.00  0.00    +0.000 HD
ENDBRANCH  56  57
BRANCH  56  61
ATOM     61  C   UNL     1     -12.605  -0.324  14.403  0.00  0.00    +0.000 C 
ATOM     62  H   UNL     1     -11.527  -0.237  14.607  0.00  0.00    +0.000 HD
ATOM     63  H   UNL     1     -12.948   0.692  14.174  0.00  0.00    +0.000 HD
BRANCH  61  64
ATOM     64  C   UNL     1     -12.668  -1.186  13.151  0.00  0.00    +0.000 A 
ATOM     65  C   UNL     1     -13.084  -0.607  11.939  0.00  0.00    +0.000 A 
ATOM     66  C   UNL     1     -12.985  -1.307  10.733  0.00  0.00    +0.000 A 
ATOM     67  C   UNL     1     -12.486  -2.601  10.718  0.00  0.00    +0.000 A 
ATOM     68  C   UNL     1     -12.110  -3.215  11.921  0.00  0.00    +0.000 A 
ATOM     69  C   UNL     1     -12.200  -2.514  13.125  0.00  0.00    +0.000 A 
ATOM     70  H   UNL     1     -13.459   0.412  11.929  0.00  0.00    +0.000 HD
ATOM     71  H   UNL     1     -13.282  -0.824   9.806  0.00  0.00    +0.000 HD
ATOM     72  H   UNL     1     -12.367  -3.127   9.774  0.00  0.00    +0.000 HD
ATOM     73  H   UNL     1     -11.717  -4.228  11.901  0.00  0.00    +0.000 HD
ATOM     74  H   UNL     1     -11.884  -3.003  14.044  0.00  0.00    +0.000 HD
ENDBRANCH  61  64
ENDBRANCH  56  61
ENDBRANCH   2  56
TORSDOF 7
ENDMDL
MODEL 5
REMARK VINA RESULT:    -9.108      2.526      5.743
REMARK INTER + INTRA:         -12.164
REMARK INTER:                 -12.151
REMARK INTRA:                  -0.013
REMARK UNBOUND:                -0.127
REMARK  Name = 
REMARK  7 active torsions:
REMARK  status: ('A' for Active; 'I' for Inactive)
REMARK    1  A    between atoms: C_1  and  O_2
REMARK    2  A    between atoms: O_2  and  C_3
REMARK    3  A    between atoms: C_4  and  N_5
REMARK    4  A    between atoms: N_5  and  C_6
REMARK    5  A    between atoms: N_5  and  C_7
REMARK    6  A    between atoms: C_7  and  C_8
REMARK    7  A    between atoms: C_17  and  C_18
REMARK                            x       y       z     vdW  Elec       q    Type
REMARK                         _______ _______ _______ _____ _____    ______ ____
ROOT
ATOM      1  C   UNL     1      -9.630  -4.176  17.280  0.00  0.00    +0.000 C 
ATOM      2  C   UNL     1     -10.572  -5.438  17.478  0.00  0.00    +0.000 C 
ATOM      3  C   UNL     1     -11.373  -5.119  18.799  0.00  0.00    +0.000 C 
ATOM      4  C   UNL     1     -11.834  -3.589  18.737  0.00  0.00    +0.000 C 
ATOM      5  O   UNL     1     -12.015  -3.411  17.291  0.00  0.00    +0.000 OA
ATOM      6  C   UNL     1     -10.733  -3.186  16.612  0.00  0.00    +0.000 C 
ATOM      7  N   UNL     1     -10.853  -1.762  16.510  0.00  0.00    +0.000 N 
ATOM      8  C   UNL     1     -11.714  -1.071  15.577  0.00  0.00    +0.000 A 
ATOM      9  C   UNL     1     -12.539  -1.535  14.532  0.00  0.00    +0.000 A 
ATOM     10  C   UNL     1     -13.128  -0.647  13.649  0.00  0.00    +0.000 A 
ATOM     11  C   UNL     1     -12.940   0.722  13.797  0.00  0.00    +0.000 A 
ATOM     12  C   UNL     1     -12.351   1.212  14.954  0.00  0.00    +0.000 A 
ATOM     13  C   UNL     1     -11.871   0.319  15.926  0.00  0.00    +0.000 A 
ATOM     14  C   UNL     1     -11.623   0.344  17.286  0.00  0.00    +0.000 A 
ATOM     15  C   UNL     1     -12.052   1.363  18.141  0.00  0.00    +0.000 A 
ATOM     16  C   UNL     1     -11.287   1.316  19.289  0.00  0.00    +0.000 A 
ATOM     17  C   UNL     1     -10.954  -0.019  19.674  0.00  0.00    +0.000 A 
ATOM     18  C   UNL     1     -12.040  -0.655  20.453  0.00  0.00    +0.000 A 
ATOM     19  C   UNL     1     -12.827  -0.134  21.490  0.00  0.00    +0.000 A 
ATOM     20  C   UNL     1     -12.057   0.135  22.599  0.00  0.00    +0.000 A 
ATOM     21  C   UNL     1     -10.915  -0.649  22.795  0.00  0.00    +0.000 A 
ATOM     22  C   UNL     1     -10.612  -1.770  21.938  0.00  0.00    +0.000 A 
ATOM     23  C   UNL     1     -11.385  -1.916  20.737  0.00  0.00    +0.000 A 
ATOM     24  N   UNL     1     -11.105  -2.459  19.416  0.00  0.00    +0.000 N 
ATOM     25  C   UNL     1     -10.831  -1.204  18.856  0.00  0.00    +0.000 A 
ATOM     26  C   UNL     1     -10.988  -0.886  17.528  0.00  0.00    +0.000 A 
ATOM     27  C   UNL     1     -10.705   2.622  19.393  0.00  0.00    +0.000 C 
ATOM     28  O   UNL     1      -9.622   3.029  19.791  0.00  0.00    +0.000 OA
ATOM     29  N   UNL     1     -11.574   3.430  18.620  0.00  0.00    +0.000 N 
ATOM     30  C   UNL     1     -12.632   2.680  17.969  0.00  0.00    +0.000 C 
ATOM     31  H   UNL     1      -8.784  -4.361  16.610  0.00  0.00    +0.000 HD
ATOM     32  H   UNL     1     -11.364  -5.305  16.738  0.00  0.00    +0.000 HD
ATOM     33  H   UNL     1     -12.284  -5.731  18.765  0.00  0.00    +0.000 HD
ATOM     34  H   UNL     1     -10.856  -5.372  19.724  0.00  0.00    +0.000 HD
ATOM     35  H   UNL     1     -12.834  -3.537  19.185  0.00  0.00    +0.000 HD
ATOM     36  H   UNL     1     -12.786  -2.594  14.433  0.00  0.00    +0.000 HD
ATOM     37  H   UNL     1     -13.735  -1.022  12.831  0.00  0.00    +0.000 HD
ATOM     38  H   UNL     1     -13.352   1.410  13.070  0.00  0.00    +0.000 HD
ATOM     39  H   UNL     1     -12.320   2.283  15.121  0.00  0.00    +0.000 HD
ATOM     40  H   UNL     1     -13.842  -0.494  21.659  0.00  0.00    +0.000 HD
ATOM     41  H   UNL     1     -12.390   0.883  23.312  0.00  0.00    +0.000 HD
ATOM     42  H   UNL     1     -10.247  -0.372  23.610  0.00  0.00    +0.000 HD
ATOM     43  H   UNL     1      -9.683  -2.309  22.089  0.00  0.00    +0.000 HD
ATOM     44  H   UNL     1     -11.128   4.196  18.136  0.00  0.00    +0.000 HD
ATOM     45  H   UNL     1     -13.526   2.774  18.602  0.00  0.00    +0.000 HD
ATOM     46  H   UNL     1     -12.856   3.023  16.967  0.00  0.00    +0.000 HD
ENDROOT
BRANCH   6  47
ATOM     47  C   UNL     1     -10.639  -3.690  15.113  0.00  0.00    +0.000 C 
ATOM     48  H   UNL     1     -10.996  -4.724  15.004  0.00  0.00    +0.000 HD
ATOM     49  H   UNL     1     -11.308  -3.165  14.426  0.00  0.00    +0.000 HD
ATOM     50  H   UNL     1      -9.639  -3.564  14.689  0.00  0.00    +0.000 HD
ENDBRANCH   6  47
BRANCH   1  51
ATOM     51  O   UNL     1      -9.054  -3.754  18.527  0.00  0.00    +0.000 OA
BRANCH  51  52
ATOM     52  C   UNL     1      -8.188  -4.686  19.174  0.00  0.00    +0.000 C 
ATOM     53  H   UNL     1      -8.707  -5.647  19.241  0.00  0.00    +0.000 HD
ATOM     54  H   UNL     1      -7.931  -4.346  20.177  0.00  0.00    +0.000 HD
ATOM     55  H   UNL     1      -7.274  -4.887  18.611  0.00  0.00    +0.000 HD
ENDBRANCH  51  52
ENDBRANCH   1  51
BRANCH   2  56
ATOM     56  N   UNL     1     -10.192  -6.745  16.880  0.00  0.00    +0.000 NA
BRANCH  56  57
ATOM     57  C   UNL     1      -9.098  -6.803  15.942  0.00  0.00    +0.000 C 
ATOM     58  H   UNL     1      -8.880  -7.832  15.644  0.00  0.00    +0.000 HD
ATOM     59  H   UNL     1      -8.170  -6.452  16.408  0.00  0.00    +0.000 HD
ATOM     60  H   UNL     1      -9.289  -6.197  15.053  0.00  0.00    +0.000 HD
ENDBRANCH  56  57
BRANCH  56  61
ATOM     61  C   UNL     1     -10.228  -7.855  17.854  0.00  0.00    +0.000 C 
ATOM     62  H   UNL     1     -11.273  -8.099  18.099  0.00  0.00    +0.000 HD
ATOM     63  H   UNL     1      -9.769  -7.533  18.796  0.00  0.00    +0.000 HD
BRANCH  61  64
ATOM     64  C   UNL     1      -9.636  -9.187  17.420  0.00  0.00    +0.000 A 
ATOM     65  C   UNL     1      -8.883  -9.937  18.339  0.00  0.00    +0.000 A 
ATOM     66  C   UNL     1      -8.476 -11.242  18.046  0.00  0.00    +0.000 A 
ATOM     67  C   UNL     1      -8.797 -11.813  16.823  0.00  0.00    +0.000 A 
ATOM     68  C   UNL     1      -9.507 -11.066  15.872  0.00  0.00    +0.000 A 
ATOM     69  C   UNL     1      -9.922  -9.767  16.167  0.00  0.00    +0.000 A 
ATOM     70  H   UNL     1      -8.638  -9.514  19.308  0.00  0.00    +0.000 HD
ATOM     71  H   UNL     1      -7.923 -11.811  18.787  0.00  0.00    +0.000 HD
ATOM     72  H   UNL     1      -8.519 -12.843  16.614  0.00  0.00    +0.000 HD
ATOM     73  H   UNL     1      -9.758 -11.522  14.918  0.00  0.00    +0.000 HD
ATOM     74  H   UNL     1     -10.488  -9.213  15.422  0.00  0.00    +0.000 HD
ENDBRANCH  61  64
ENDBRANCH  56  61
ENDBRANCH   2  56
TORSDOF 7
ENDMDL
MODEL 6
REMARK VINA RESULT:    -8.959      4.048      8.418
REMARK INTER + INTRA:         -11.967
REMARK INTER:                 -10.965
REMARK INTRA:                  -1.002
REMARK UNBOUND:                -0.127
REMARK  Name = 
REMARK  7 active torsions:
REMARK  status: ('A' for Active; 'I' for Inactive)
REMARK    1  A    between atoms: C_1  and  O_2
REMARK    2  A    between atoms: O_2  and  C_3
REMARK    3  A    between atoms: C_4  and  N_5
REMARK    4  A    between atoms: N_5  and  C_6
REMARK    5  A    between atoms: N_5  and  C_7
REMARK    6  A    between atoms: C_7  and  C_8
REMARK    7  A    between atoms: C_17  and  C_18
REMARK                            x       y       z     vdW  Elec       q    Type
REMARK                         _______ _______ _______ _____ _____    ______ ____
ROOT
ATOM      1  C   UNL     1      -9.679   0.154  18.985  0.00  0.00    +0.000 C 
ATOM      2  C   UNL     1     -10.856   0.625  19.940  0.00  0.00    +0.000 C 
ATOM      3  C   UNL     1     -11.950   1.191  18.954  0.00  0.00    +0.000 C 
ATOM      4  C   UNL     1     -12.073   0.178  17.723  0.00  0.00    +0.000 C 
ATOM      5  O   UNL     1     -11.762  -1.098  18.379  0.00  0.00    +0.000 OA
ATOM      6  C   UNL     1     -10.315  -1.278  18.549  0.00  0.00    +0.000 C 
ATOM      7  N   UNL     1     -10.128  -2.143  17.423  0.00  0.00    +0.000 N 
ATOM      8  C   UNL     1     -10.513  -3.535  17.378  0.00  0.00    +0.000 A 
ATOM      9  C   UNL     1     -11.048  -4.398  18.356  0.00  0.00    +0.000 A 
ATOM     10  C   UNL     1     -11.158  -5.757  18.117  0.00  0.00    +0.000 A 
ATOM     11  C   UNL     1     -10.771  -6.289  16.892  0.00  0.00    +0.000 A 
ATOM     12  C   UNL     1     -10.486  -5.438  15.834  0.00  0.00    +0.000 A 
ATOM     13  C   UNL     1     -10.505  -4.047  16.030  0.00  0.00    +0.000 A 
ATOM     14  C   UNL     1     -10.689  -2.920  15.252  0.00  0.00    +0.000 A 
ATOM     15  C   UNL     1     -11.160  -2.946  13.936  0.00  0.00    +0.000 A 
ATOM     16  C   UNL     1     -10.810  -1.758  13.327  0.00  0.00    +0.000 A 
ATOM     17  C   UNL     1     -10.869  -0.643  14.219  0.00  0.00    +0.000 A 
ATOM     18  C   UNL     1     -12.241  -0.101  14.333  0.00  0.00    +0.000 A 
ATOM     19  C   UNL     1     -13.196   0.145  13.337  0.00  0.00    +0.000 A 
ATOM     20  C   UNL     1     -12.769   1.140  12.485  0.00  0.00    +0.000 A 
ATOM     21  C   UNL     1     -11.912   2.112  13.012  0.00  0.00    +0.000 A 
ATOM     22  C   UNL     1     -11.577   2.144  14.415  0.00  0.00    +0.000 A 
ATOM     23  C   UNL     1     -11.955   1.013  15.215  0.00  0.00    +0.000 A 
ATOM     24  N   UNL     1     -11.389   0.377  16.394  0.00  0.00    +0.000 N 
ATOM     25  C   UNL     1     -10.726  -0.613  15.657  0.00  0.00    +0.000 A 
ATOM     26  C   UNL     1     -10.402  -1.861  16.131  0.00  0.00    +0.000 A 
ATOM     27  C   UNL     1     -10.053  -2.149  12.174  0.00  0.00    +0.000 C 
ATOM     28  O   UNL     1      -9.089  -1.663  11.598  0.00  0.00    +0.000 OA
ATOM     29  N   UNL     1     -10.473  -3.482  11.943  0.00  0.00    +0.000 N 
ATOM     30  C   UNL     1     -11.400  -3.975  12.945  0.00  0.00    +0.000 C 
ATOM     31  H   UNL     1      -8.719   0.037  19.498  0.00  0.00    +0.000 HD
ATOM     32  H   UNL     1     -11.342  -0.302  20.251  0.00  0.00    +0.000 HD
ATOM     33  H   UNL     1     -12.904   1.155  19.496  0.00  0.00    +0.000 HD
ATOM     34  H   UNL     1     -11.800   2.225  18.644  0.00  0.00    +0.000 HD
ATOM     35  H   UNL     1     -13.134   0.137  17.446  0.00  0.00    +0.000 HD
ATOM     36  H   UNL     1     -11.448  -4.011  19.296  0.00  0.00    +0.000 HD
ATOM     37  H   UNL     1     -11.542  -6.412  18.891  0.00  0.00    +0.000 HD
ATOM     38  H   UNL     1     -10.801  -7.359  16.729  0.00  0.00    +0.000 HD
ATOM     39  H   UNL     1     -10.307  -5.857  14.849  0.00  0.00    +0.000 HD
ATOM     40  H   UNL     1     -14.263   0.097  13.558  0.00  0.00    +0.000 HD
ATOM     41  H   UNL     1     -13.159   1.181  11.473  0.00  0.00    +0.000 HD
ATOM     42  H   UNL     1     -11.489   2.839  12.320  0.00  0.00    +0.000 HD
ATOM     43  H   UNL     1     -10.858   2.878  14.766  0.00  0.00    +0.000 HD
ATOM     44  H   UNL     1      -9.764  -4.094  11.568  0.00  0.00    +0.000 HD
ATOM     45  H   UNL     1     -12.411  -3.857  12.529  0.00  0.00    +0.000 HD
ATOM     46  H   UNL     1     -11.236  -5.009  13.219  0.00  0.00    +0.000 HD
ENDROOT
BRANCH   6  47
ATOM     47  C   UNL     1      -9.861  -2.140  19.798  0.00  0.00    +0.000 C 
ATOM     48  H   UNL     1     -10.565  -2.050  20.637  0.00  0.00    +0.000 HD
ATOM     49  H   UNL     1      -9.881  -3.219  19.623  0.00  0.00    +0.000 HD
ATOM     50  H   UNL     1      -8.835  -1.920  20.109  0.00  0.00    +0.000 HD
ENDBRANCH   6  47
BRANCH   1  51
ATOM     51  O   UNL     1      -9.447   1.105  17.934  0.00  0.00    +0.000 OA
BRANCH  51  52
ATOM     52  C   UNL     1      -8.085   1.331  17.572  0.00  0.00    +0.000 C 
ATOM     53  H   UNL     1      -7.751   0.494  16.952  0.00  0.00    +0.000 HD
ATOM     54  H   UNL     1      -7.453   1.395  18.458  0.00  0.00    +0.000 HD
ATOM     55  H   UNL     1      -7.944   2.223  16.958  0.00  0.00    +0.000 HD
ENDBRANCH  51  52
ENDBRANCH   1  51
BRANCH   2  56
ATOM     56  N   UNL     1     -10.564   0.981  21.353  0.00  0.00    +0.000 NA
BRANCH  56  57
ATOM     57  C   UNL     1     -10.300   2.357  21.696  0.00  0.00    +0.000 C 
ATOM     58  H   UNL     1      -9.285   2.653  21.414  0.00  0.00    +0.000 HD
ATOM     59  H   UNL     1     -10.332   2.498  22.782  0.00  0.00    +0.000 HD
ATOM     60  H   UNL     1     -11.020   3.039  21.237  0.00  0.00    +0.000 HD
ENDBRANCH  56  57
BRANCH  56  61
ATOM     61  C   UNL     1     -11.421   0.260  22.316  0.00  0.00    +0.000 C 
ATOM     62  H   UNL     1     -12.160  -0.347  21.772  0.00  0.00    +0.000 HD
ATOM     63  H   UNL     1     -12.002   0.981  22.904  0.00  0.00    +0.000 HD
BRANCH  61  64
ATOM     64  C   UNL     1     -10.746  -0.738  23.244  0.00  0.00    +0.000 A 
ATOM     65  C   UNL     1      -9.568  -0.365  23.914  0.00  0.00    +0.000 A 
ATOM     66  C   UNL     1      -9.015  -1.177  24.909  0.00  0.00    +0.000 A 
ATOM     67  C   UNL     1      -9.618  -2.382  25.240  0.00  0.00    +0.000 A 
ATOM     68  C   UNL     1     -10.767  -2.796  24.551  0.00  0.00    +0.000 A 
ATOM     69  C   UNL     1     -11.325  -1.982  23.563  0.00  0.00    +0.000 A 
ATOM     70  H   UNL     1      -9.092   0.583  23.683  0.00  0.00    +0.000 HD
ATOM     71  H   UNL     1      -8.123  -0.850  25.435  0.00  0.00    +0.000 HD
ATOM     72  H   UNL     1      -9.213  -2.990  26.045  0.00  0.00    +0.000 HD
ATOM     73  H   UNL     1     -11.236  -3.740  24.817  0.00  0.00    +0.000 HD
ATOM     74  H   UNL     1     -12.227  -2.314  23.055  0.00  0.00    +0.000 HD
ENDBRANCH  61  64
ENDBRANCH  56  61
ENDBRANCH   2  56
TORSDOF 7
ENDMDL
MODEL 7
REMARK VINA RESULT:    -8.905      3.464      8.992
REMARK INTER + INTRA:         -11.895
REMARK INTER:                 -10.975
REMARK INTRA:                  -0.920
REMARK UNBOUND:                -0.127
REMARK  Name = 
REMARK  7 active torsions:
REMARK  status: ('A' for Active; 'I' for Inactive)
REMARK    1  A    between atoms: C_1  and  O_2
REMARK    2  A    between atoms: O_2  and  C_3
REMARK    3  A    between atoms: C_4  and  N_5
REMARK    4  A    between atoms: N_5  and  C_6
REMARK    5  A    between atoms: N_5  and  C_7
REMARK    6  A    between atoms: C_7  and  C_8
REMARK    7  A    between atoms: C_17  and  C_18
REMARK                            x       y       z     vdW  Elec       q    Type
REMARK                         _______ _______ _______ _____ _____    ______ ____
ROOT
ATOM      1  C   UNL     1     -10.831  -0.888  16.667  0.00  0.00    +0.000 C 
ATOM      2  C   UNL     1     -12.360  -1.216  16.397  0.00  0.00    +0.000 C 
ATOM      3  C   UNL     1     -12.457  -2.780  16.573  0.00  0.00    +0.000 C 
ATOM      4  C   UNL     1     -11.614  -3.182  17.871  0.00  0.00    +0.000 C 
ATOM      5  O   UNL     1     -11.794  -1.985  18.702  0.00  0.00    +0.000 OA
ATOM      6  C   UNL     1     -10.889  -0.904  18.292  0.00  0.00    +0.000 C 
ATOM      7  N   UNL     1      -9.912  -1.115  19.317  0.00  0.00    +0.000 N 
ATOM      8  C   UNL     1     -10.075  -0.743  20.703  0.00  0.00    +0.000 A 
ATOM      9  C   UNL     1     -11.099  -0.049  21.380  0.00  0.00    +0.000 A 
ATOM     10  C   UNL     1     -10.933   0.352  22.694  0.00  0.00    +0.000 A 
ATOM     11  C   UNL     1      -9.762   0.047  23.380  0.00  0.00    +0.000 A 
ATOM     12  C   UNL     1      -8.856  -0.846  22.828  0.00  0.00    +0.000 A 
ATOM     13  C   UNL     1      -9.084  -1.369  21.544  0.00  0.00    +0.000 A 
ATOM     14  C   UNL     1      -8.720  -2.498  20.834  0.00  0.00    +0.000 A 
ATOM     15  C   UNL     1      -8.115  -3.621  21.406  0.00  0.00    +0.000 A 
ATOM     16  C   UNL     1      -7.500  -4.340  20.401  0.00  0.00    +0.000 A 
ATOM     17  C   UNL     1      -8.235  -4.315  19.176  0.00  0.00    +0.000 A 
ATOM     18  C   UNL     1      -9.308  -5.334  19.156  0.00  0.00    +0.000 A 
ATOM     19  C   UNL     1      -9.283  -6.673  19.569  0.00  0.00    +0.000 A 
ATOM     20  C   UNL     1      -8.433  -7.413  18.778  0.00  0.00    +0.000 A 
ATOM     21  C   UNL     1      -8.258  -6.993  17.455  0.00  0.00    +0.000 A 
ATOM     22  C   UNL     1      -9.021  -5.901  16.901  0.00  0.00    +0.000 A 
ATOM     23  C   UNL     1      -9.794  -5.102  17.811  0.00  0.00    +0.000 A 
ATOM     24  N   UNL     1     -10.201  -3.705  17.831  0.00  0.00    +0.000 N 
ATOM     25  C   UNL     1      -9.159  -3.317  18.683  0.00  0.00    +0.000 A 
ATOM     26  C   UNL     1      -9.201  -2.242  19.538  0.00  0.00    +0.000 A 
ATOM     27  C   UNL     1      -6.129  -4.436  20.808  0.00  0.00    +0.000 C 
ATOM     28  O   UNL     1      -5.070  -4.436  20.195  0.00  0.00    +0.000 OA
ATOM     29  N   UNL     1      -6.188  -4.232  22.208  0.00  0.00    +0.000 N 
ATOM     30  C   UNL     1      -7.523  -3.933  22.691  0.00  0.00    +0.000 C 
ATOM     31  H   UNL     1     -10.515   0.085  16.277  0.00  0.00    +0.000 HD
ATOM     32  H   UNL     1     -12.872  -0.890  17.306  0.00  0.00    +0.000 HD
ATOM     33  H   UNL     1     -13.510  -3.003  16.792  0.00  0.00    +0.000 HD
ATOM     34  H   UNL     1     -12.188  -3.361  15.691  0.00  0.00    +0.000 HD
ATOM     35  H   UNL     1     -12.160  -3.994  18.370  0.00  0.00    +0.000 HD
ATOM     36  H   UNL     1     -12.068   0.131  20.910  0.00  0.00    +0.000 HD
ATOM     37  H   UNL     1     -11.717   0.912  23.191  0.00  0.00    +0.000 HD
ATOM     38  H   UNL     1      -9.610   0.414  24.387  0.00  0.00    +0.000 HD
ATOM     39  H   UNL     1      -8.008  -1.176  23.418  0.00  0.00    +0.000 HD
ATOM     40  H   UNL     1     -10.186  -7.165  19.932  0.00  0.00    +0.000 HD
ATOM     41  H   UNL     1      -7.989  -8.321  19.174  0.00  0.00    +0.000 HD
ATOM     42  H   UNL     1      -7.509  -7.510  16.857  0.00  0.00    +0.000 HD
ATOM     43  H   UNL     1      -8.806  -5.570  15.891  0.00  0.00    +0.000 HD
ATOM     44  H   UNL     1      -5.390  -3.756  22.605  0.00  0.00    +0.000 HD
ATOM     45  H   UNL     1      -7.943  -4.876  23.070  0.00  0.00    +0.000 HD
ATOM     46  H   UNL     1      -7.547  -3.183  23.471  0.00  0.00    +0.000 HD
ENDROOT
BRANCH   6  47
ATOM     47  C   UNL     1     -11.412   0.572  18.533  0.00  0.00    +0.000 C 
ATOM     48  H   UNL     1     -12.038   0.644  19.434  0.00  0.00    +0.000 HD
ATOM     49  H   UNL     1     -10.622   1.289  18.771  0.00  0.00    +0.000 HD
ATOM     50  H   UNL     1     -11.920   0.986  17.658  0.00  0.00    +0.000 HD
ENDBRANCH   6  47
BRANCH   1  51
ATOM     51  O   UNL     1      -9.972  -1.856  16.042  0.00  0.00    +0.000 OA
BRANCH  51  52
ATOM     52  C   UNL     1      -9.576  -1.580  14.699  0.00  0.00    +0.000 C 
ATOM     53  H   UNL     1     -10.001  -0.615  14.408  0.00  0.00    +0.000 HD
ATOM     54  H   UNL     1      -9.940  -2.352  14.020  0.00  0.00    +0.000 HD
ATOM     55  H   UNL     1      -8.495  -1.471  14.582  0.00  0.00    +0.000 HD
ENDBRANCH  51  52
ENDBRANCH   1  51
BRANCH   2  56
ATOM     56  N   UNL     1     -13.178  -0.292  15.569  0.00  0.00    +0.000 NA
BRANCH  56  57
ATOM     57  C   UNL     1     -13.200  -0.458  14.136  0.00  0.00    +0.000 C 
ATOM     58  H   UNL     1     -14.223  -0.487  13.751  0.00  0.00    +0.000 HD
ATOM     59  H   UNL     1     -12.776  -1.428  13.853  0.00  0.00    +0.000 HD
ATOM     60  H   UNL     1     -12.638   0.327  13.625  0.00  0.00    +0.000 HD
ENDBRANCH  56  57
BRANCH  56  61
ATOM     61  C   UNL     1     -14.491   0.012  16.174  0.00  0.00    +0.000 C 
ATOM     62  H   UNL     1     -14.504  -0.327  17.221  0.00  0.00    +0.000 HD
ATOM     63  H   UNL     1     -15.274  -0.564  15.665  0.00  0.00    +0.000 HD
BRANCH  61  64
ATOM     64  C   UNL     1     -14.901   1.474  16.261  0.00  0.00    +0.000 A 
ATOM     65  C   UNL     1     -15.986   1.931  15.494  0.00  0.00    +0.000 A 
ATOM     66  C   UNL     1     -16.510   3.214  15.677  0.00  0.00    +0.000 A 
ATOM     67  C   UNL     1     -15.950   4.068  16.615  0.00  0.00    +0.000 A 
ATOM     68  C   UNL     1     -14.836   3.650  17.358  0.00  0.00    +0.000 A 
ATOM     69  C   UNL     1     -14.317   2.367  17.183  0.00  0.00    +0.000 A 
ATOM     70  H   UNL     1     -16.450   1.271  14.769  0.00  0.00    +0.000 HD
ATOM     71  H   UNL     1     -17.371   3.531  15.094  0.00  0.00    +0.000 HD
ATOM     72  H   UNL     1     -16.387   5.049  16.788  0.00  0.00    +0.000 HD
ATOM     73  H   UNL     1     -14.404   4.324  18.093  0.00  0.00    +0.000 HD
ATOM     74  H   UNL     1     -13.465   2.057  17.783  0.00  0.00    +0.000 HD
ENDBRANCH  61  64
ENDBRANCH  56  61
ENDBRANCH   2  56
TORSDOF 7
ENDMDL
MODEL 8
REMARK VINA RESULT:    -8.741      2.267      5.594
REMARK INTER + INTRA:         -11.679
REMARK INTER:                 -11.167
REMARK INTRA:                  -0.512
REMARK UNBOUND:                -0.127
REMARK  Name = 
REMARK  7 active torsions:
REMARK  status: ('A' for Active; 'I' for Inactive)
REMARK    1  A    between atoms: C_1  and  O_2
REMARK    2  A    between atoms: O_2  and  C_3
REMARK    3  A    between atoms: C_4  and  N_5
REMARK    4  A    between atoms: N_5  and  C_6
REMARK    5  A    between atoms: N_5  and  C_7
REMARK    6  A    between atoms: C_7  and  C_8
REMARK    7  A    between atoms: C_17  and  C_18
REMARK                            x       y       z     vdW  Elec       q    Type
REMARK                         _______ _______ _______ _____ _____    ______ ____
ROOT
ATOM      1  C   UNL     1      -9.691  -4.545  17.460  0.00  0.00    +0.000 C 
ATOM      2  C   UNL     1     -10.903  -5.373  18.063  0.00  0.00    +0.000 C 
ATOM      3  C   UNL     1     -11.818  -4.281  18.741  0.00  0.00    +0.000 C 
ATOM      4  C   UNL     1     -11.921  -3.036  17.743  0.00  0.00    +0.000 C 
ATOM      5  O   UNL     1     -11.824  -3.713  16.444  0.00  0.00    +0.000 OA
ATOM      6  C   UNL     1     -10.431  -4.032  16.106  0.00  0.00    +0.000 C 
ATOM      7  N   UNL     1     -10.223  -2.927  15.221  0.00  0.00    +0.000 N 
ATOM      8  C   UNL     1     -10.752  -2.831  13.879  0.00  0.00    +0.000 A 
ATOM      9  C   UNL     1     -11.479  -3.740  13.085  0.00  0.00    +0.000 A 
ATOM     10  C   UNL     1     -11.712  -3.480  11.745  0.00  0.00    +0.000 A 
ATOM     11  C   UNL     1     -11.258  -2.299  11.168  0.00  0.00    +0.000 A 
ATOM     12  C   UNL     1     -10.771  -1.284  11.978  0.00  0.00    +0.000 A 
ATOM     13  C   UNL     1     -10.657  -1.488  13.364  0.00  0.00    +0.000 A 
ATOM     14  C   UNL     1     -10.632  -0.702  14.501  0.00  0.00    +0.000 A 
ATOM     15  C   UNL     1     -10.962   0.656  14.522  0.00  0.00    +0.000 A 
ATOM     16  C   UNL     1     -10.420   1.215  15.661  0.00  0.00    +0.000 A 
ATOM     17  C   UNL     1     -10.451   0.327  16.780  0.00  0.00    +0.000 A 
ATOM     18  C   UNL     1     -11.759   0.355  17.470  0.00  0.00    +0.000 A 
ATOM     19  C   UNL     1     -12.570   1.444  17.816  0.00  0.00    +0.000 A 
ATOM     20  C   UNL     1     -11.948   2.238  18.754  0.00  0.00    +0.000 A 
ATOM     21  C   UNL     1     -11.050   1.617  19.628  0.00  0.00    +0.000 A 
ATOM     22  C   UNL     1     -10.864   0.186  19.629  0.00  0.00    +0.000 A 
ATOM     23  C   UNL     1     -11.447  -0.561  18.549  0.00  0.00    +0.000 A 
ATOM     24  N   UNL     1     -11.082  -1.789  17.860  0.00  0.00    +0.000 N 
ATOM     25  C   UNL     1     -10.458  -1.119  16.800  0.00  0.00    +0.000 A 
ATOM     26  C   UNL     1     -10.326  -1.615  15.525  0.00  0.00    +0.000 A 
ATOM     27  C   UNL     1      -9.593   2.285  15.184  0.00  0.00    +0.000 C 
ATOM     28  O   UNL     1      -8.526   2.752  15.559  0.00  0.00    +0.000 OA
ATOM     29  N   UNL     1     -10.131   2.569  13.905  0.00  0.00    +0.000 N 
ATOM     30  C   UNL     1     -11.207   1.675  13.521  0.00  0.00    +0.000 C 
ATOM     31  H   UNL     1      -8.809  -5.155  17.241  0.00  0.00    +0.000 HD
ATOM     32  H   UNL     1     -11.519  -5.624  17.196  0.00  0.00    +0.000 HD
ATOM     33  H   UNL     1     -12.823  -4.719  18.814  0.00  0.00    +0.000 HD
ATOM     34  H   UNL     1     -11.524  -3.996  19.752  0.00  0.00    +0.000 HD
ATOM     35  H   UNL     1     -12.945  -2.649  17.818  0.00  0.00    +0.000 HD
ATOM     36  H   UNL     1     -11.931  -4.636  13.517  0.00  0.00    +0.000 HD
ATOM     37  H   UNL     1     -12.246  -4.204  11.140  0.00  0.00    +0.000 HD
ATOM     38  H   UNL     1     -11.388  -2.126  10.108  0.00  0.00    +0.000 HD
ATOM     39  H   UNL     1     -10.536  -0.321  11.538  0.00  0.00    +0.000 HD
ATOM     40  H   UNL     1     -13.653   1.338  17.886  0.00  0.00    +0.000 HD
ATOM     41  H   UNL     1     -12.222   3.286  18.833  0.00  0.00    +0.000 HD
ATOM     42  H   UNL     1     -10.479   2.255  20.300  0.00  0.00    +0.000 HD
ATOM     43  H   UNL     1     -10.110  -0.244  20.280  0.00  0.00    +0.000 HD
ATOM     44  H   UNL     1      -9.457   2.872  13.216  0.00  0.00    +0.000 HD
ATOM     45  H   UNL     1     -12.149   2.195  13.748  0.00  0.00    +0.000 HD
ATOM     46  H   UNL     1     -11.188   1.393  12.477  0.00  0.00    +0.000 HD
ENDROOT
BRANCH   6  47
ATOM     47  C   UNL     1     -10.210  -5.316  15.204  0.00  0.00    +0.000 C 
ATOM     48  H   UNL     1      -9.853  -6.174  15.792  0.00  0.00    +0.000 HD
ATOM     49  H   UNL     1     -11.130  -5.723  14.778  0.00  0.00    +0.000 HD
ATOM     50  H   UNL     1      -9.560  -5.120  14.346  0.00  0.00    +0.000 HD
ENDBRANCH   6  47
BRANCH   1  51
ATOM     51  O   UNL     1      -9.246  -3.531  18.376  0.00  0.00    +0.000 OA
BRANCH  51  52
ATOM     52  C   UNL     1      -8.495  -3.980  19.503  0.00  0.00    +0.000 C 
ATOM     53  H   UNL     1      -8.449  -3.165  20.232  0.00  0.00    +0.000 HD
ATOM     54  H   UNL     1      -7.482  -4.257  19.210  0.00  0.00    +0.000 HD
ATOM     55  H   UNL     1      -8.965  -4.815  20.029  0.00  0.00    +0.000 HD
ENDBRANCH  51  52
ENDBRANCH   1  51
BRANCH   2  56
ATOM     56  N   UNL     1     -10.725  -6.811  18.391  0.00  0.00    +0.000 NA
BRANCH  56  57
ATOM     57  C   UNL     1     -11.727  -7.762  17.974  0.00  0.00    +0.000 C 
ATOM     58  H   UNL     1     -11.318  -8.774  17.911  0.00  0.00    +0.000 HD
ATOM     59  H   UNL     1     -12.067  -7.543  16.955  0.00  0.00    +0.000 HD
ATOM     60  H   UNL     1     -12.596  -7.758  18.636  0.00  0.00    +0.000 HD
ENDBRANCH  56  57
BRANCH  56  61
ATOM     61  C   UNL     1      -9.332  -7.271  18.221  0.00  0.00    +0.000 C 
ATOM     62  H   UNL     1      -8.846  -7.351  19.205  0.00  0.00    +0.000 HD
ATOM     63  H   UNL     1      -8.760  -6.517  17.667  0.00  0.00    +0.000 HD
BRANCH  61  64
ATOM     64  C   UNL     1      -9.118  -8.643  17.599  0.00  0.00    +0.000 A 
ATOM     65  C   UNL     1      -8.887  -9.749  18.435  0.00  0.00    +0.000 A 
ATOM     66  C   UNL     1      -8.866 -11.049  17.923  0.00  0.00    +0.000 A 
ATOM     67  C   UNL     1      -9.057 -11.267  16.567  0.00  0.00    +0.000 A 
ATOM     68  C   UNL     1      -9.240 -10.175  15.707  0.00  0.00    +0.000 A 
ATOM     69  C   UNL     1      -9.271  -8.877  16.217  0.00  0.00    +0.000 A 
ATOM     70  H   UNL     1      -8.755  -9.600  19.502  0.00  0.00    +0.000 HD
ATOM     71  H   UNL     1      -8.720 -11.889  18.596  0.00  0.00    +0.000 HD
ATOM     72  H   UNL     1      -9.085 -12.282  16.177  0.00  0.00    +0.000 HD
ATOM     73  H   UNL     1      -9.392 -10.354  14.645  0.00  0.00    +0.000 HD
ATOM     74  H   UNL     1      -9.434  -8.046  15.535  0.00  0.00    +0.000 HD
ENDBRANCH  61  64
ENDBRANCH  56  61
ENDBRANCH   2  56
TORSDOF 7
ENDMDL
MODEL 9
REMARK VINA RESULT:    -8.646      3.023      6.801
REMARK INTER + INTRA:         -11.552
REMARK INTER:                 -10.829
REMARK INTRA:                  -0.723
REMARK UNBOUND:                -0.127
REMARK  Name = 
REMARK  7 active torsions:
REMARK  status: ('A' for Active; 'I' for Inactive)
REMARK    1  A    between atoms: C_1  and  O_2
REMARK    2  A    between atoms: O_2  and  C_3
REMARK    3  A    between atoms: C_4  and  N_5
REMARK    4  A    between atoms: N_5  and  C_6
REMARK    5  A    between atoms: N_5  and  C_7
REMARK    6  A    between atoms: C_7  and  C_8
REMARK    7  A    between atoms: C_17  and  C_18
REMARK                            x       y       z     vdW  Elec       q    Type
REMARK                         _______ _______ _______ _____ _____    ______ ____
ROOT
ATOM      1  C   UNL     1      -9.943  -2.793  16.278  0.00  0.00    +0.000 C 
ATOM      2  C   UNL     1     -10.732  -3.897  17.100  0.00  0.00    +0.000 C 
ATOM      3  C   UNL     1     -12.050  -3.166  17.564  0.00  0.00    +0.000 C 
ATOM      4  C   UNL     1     -12.608  -2.325  16.324  0.00  0.00    +0.000 C 
ATOM      5  O   UNL     1     -12.173  -3.163  15.201  0.00  0.00    +0.000 OA
ATOM      6  C   UNL     1     -10.758  -2.941  14.879  0.00  0.00    +0.000 C 
ATOM      7  N   UNL     1     -10.982  -2.069  13.765  0.00  0.00    +0.000 N 
ATOM      8  C   UNL     1     -11.433  -2.494  12.460  0.00  0.00    +0.000 A 
ATOM      9  C   UNL     1     -11.676  -3.772  11.916  0.00  0.00    +0.000 A 
ATOM     10  C   UNL     1     -11.928  -3.928  10.564  0.00  0.00    +0.000 A 
ATOM     11  C   UNL     1     -11.975  -2.822   9.724  0.00  0.00    +0.000 A 
ATOM     12  C   UNL     1     -11.995  -1.546  10.270  0.00  0.00    +0.000 A 
ATOM     13  C   UNL     1     -11.878  -1.380  11.661  0.00  0.00    +0.000 A 
ATOM     14  C   UNL     1     -12.239  -0.429  12.597  0.00  0.00    +0.000 A 
ATOM     15  C   UNL     1     -13.102   0.639  12.336  0.00  0.00    +0.000 A 
ATOM     16  C   UNL     1     -12.900   1.605  13.301  0.00  0.00    +0.000 A 
ATOM     17  C   UNL     1     -12.617   1.049  14.586  0.00  0.00    +0.000 A 
ATOM     18  C   UNL     1     -13.852   0.680  15.312  0.00  0.00    +0.000 A 
ATOM     19  C   UNL     1     -15.058   1.381  15.447  0.00  0.00    +0.000 A 
ATOM     20  C   UNL     1     -14.871   2.543  16.162  0.00  0.00    +0.000 A 
ATOM     21  C   UNL     1     -13.842   2.556  17.109  0.00  0.00    +0.000 A 
ATOM     22  C   UNL     1     -13.079   1.369  17.413  0.00  0.00    +0.000 A 
ATOM     23  C   UNL     1     -13.244   0.234  16.550  0.00  0.00    +0.000 A 
ATOM     24  N   UNL     1     -12.369  -0.849  16.129  0.00  0.00    +0.000 N 
ATOM     25  C   UNL     1     -12.025  -0.227  14.922  0.00  0.00    +0.000 A 
ATOM     26  C   UNL     1     -11.634  -0.887  13.781  0.00  0.00    +0.000 A 
ATOM     27  C   UNL     1     -12.568   2.790  12.566  0.00  0.00    +0.000 C 
ATOM     28  O   UNL     1     -11.811   3.727  12.782  0.00  0.00    +0.000 OA
ATOM     29  N   UNL     1     -13.108   2.540  11.281  0.00  0.00    +0.000 N 
ATOM     30  C   UNL     1     -13.696   1.220  11.149  0.00  0.00    +0.000 C 
ATOM     31  H   UNL     1      -8.877  -3.014  16.158  0.00  0.00    +0.000 HD
ATOM     32  H   UNL     1     -11.143  -4.563  16.337  0.00  0.00    +0.000 HD
ATOM     33  H   UNL     1     -12.785  -3.954  17.775  0.00  0.00    +0.000 HD
ATOM     34  H   UNL     1     -11.952  -2.573  18.474  0.00  0.00    +0.000 HD
ATOM     35  H   UNL     1     -13.703  -2.391  16.358  0.00  0.00    +0.000 HD
ATOM     36  H   UNL     1     -11.738  -4.657  12.553  0.00  0.00    +0.000 HD
ATOM     37  H   UNL     1     -12.082  -4.921  10.155  0.00  0.00    +0.000 HD
ATOM     38  H   UNL     1     -12.111  -2.952   8.658  0.00  0.00    +0.000 HD
ATOM     39  H   UNL     1     -12.158  -0.693   9.621  0.00  0.00    +0.000 HD
ATOM     40  H   UNL     1     -16.002   0.852  15.588  0.00  0.00    +0.000 HD
ATOM     41  H   UNL     1     -15.557   3.372  16.023  0.00  0.00    +0.000 HD
ATOM     42  H   UNL     1     -13.621   3.503  17.600  0.00  0.00    +0.000 HD
ATOM     43  H   UNL     1     -12.250   1.443  18.108  0.00  0.00    +0.000 HD
ATOM     44  H   UNL     1     -12.587   2.939  10.513  0.00  0.00    +0.000 HD
ATOM     45  H   UNL     1     -14.779   1.338  11.300  0.00  0.00    +0.000 HD
ATOM     46  H   UNL     1     -13.509   0.753  10.192  0.00  0.00    +0.000 HD
ENDROOT
BRANCH   6  47
ATOM     47  C   UNL     1      -9.979  -4.178  14.270  0.00  0.00    +0.000 C 
ATOM     48  H   UNL     1     -10.324  -5.131  14.696  0.00  0.00    +0.000 HD
ATOM     49  H   UNL     1     -10.170  -4.343  13.206  0.00  0.00    +0.000 HD
ATOM     50  H   UNL     1      -8.893  -4.073  14.351  0.00  0.00    +0.000 HD
ENDBRANCH   6  47
BRANCH   1  51
ATOM     51  O   UNL     1     -10.005  -1.514  16.930  0.00  0.00    +0.000 OA
BRANCH  51  52
ATOM     52  C   UNL     1      -8.927  -0.616  16.669  0.00  0.00    +0.000 C 
ATOM     53  H   UNL     1      -9.291   0.407  16.803  0.00  0.00    +0.000 HD
ATOM     54  H   UNL     1      -8.560  -0.735  15.649  0.00  0.00    +0.000 HD
ATOM     55  H   UNL     1      -8.096  -0.725  17.370  0.00  0.00    +0.000 HD
ENDBRANCH  51  52
ENDBRANCH   1  51
BRANCH   2  56
ATOM     56  N   UNL     1      -9.990  -5.024  17.725  0.00  0.00    +0.000 NA
BRANCH  56  57
ATOM     57  C   UNL     1      -9.031  -4.748  18.766  0.00  0.00    +0.000 C 
ATOM     58  H   UNL     1      -8.650  -3.725  18.700  0.00  0.00    +0.000 HD
ATOM     59  H   UNL     1      -8.141  -5.377  18.648  0.00  0.00    +0.000 HD
ATOM     60  H   UNL     1      -9.446  -4.921  19.762  0.00  0.00    +0.000 HD
ENDBRANCH  56  57
BRANCH  56  61
ATOM     61  C   UNL     1     -10.841  -6.207  17.969  0.00  0.00    +0.000 C 
ATOM     62  H   UNL     1     -11.793  -6.097  17.427  0.00  0.00    +0.000 HD
ATOM     63  H   UNL     1     -11.108  -6.255  19.032  0.00  0.00    +0.000 HD
BRANCH  61  64
ATOM     64  C   UNL     1     -10.314  -7.557  17.506  0.00  0.00    +0.000 A 
ATOM     65  C   UNL     1      -9.407  -8.256  18.320  0.00  0.00    +0.000 A 
ATOM     66  C   UNL     1      -9.038  -9.571  18.025  0.00  0.00    +0.000 A 
ATOM     67  C   UNL     1      -9.554 -10.205  16.905  0.00  0.00    +0.000 A 
ATOM     68  C   UNL     1     -10.423  -9.510  16.052  0.00  0.00    +0.000 A 
ATOM     69  C   UNL     1     -10.800  -8.199  16.350  0.00  0.00    +0.000 A 
ATOM     70  H   UNL     1      -9.007  -7.783  19.212  0.00  0.00    +0.000 HD
ATOM     71  H   UNL     1      -8.360 -10.101  18.689  0.00  0.00    +0.000 HD
ATOM     72  H   UNL     1      -9.301 -11.243  16.701  0.00  0.00    +0.000 HD
ATOM     73  H   UNL     1     -10.827 -10.014  15.177  0.00  0.00    +0.000 HD
ATOM     74  H   UNL     1     -11.491  -7.686  15.686  0.00  0.00    +0.000 HD
ENDBRANCH  61  64
ENDBRANCH  56  61
ENDBRANCH   2  56
TORSDOF 7
ENDMDL
