
 OpenBabel01112422333D

 61 67  0  0  1  0  0  0  0  0999 V2000
    1.3943   -0.0994    0.6927 C   0  0  0  0  0  0  0  0  0  0  0  0
    2.0813   -1.0109   -0.1896 N   0  0  0  0  0  0  0  0  0  0  0  0
    1.3714   -1.5314   -1.2853 C   0  0  0  0  0  0  0  0  0  0  0  0
    2.3900   -1.8545   -2.1527 C   0  0  0  0  0  0  0  0  0  0  0  0
    3.2167   -2.5531   -1.2295 C   0  0  0  0  0  0  0  0  0  0  0  0
    4.0107   -3.6900   -1.3933 C   0  0  0  0  0  0  0  0  0  0  0  0
    4.9582   -3.9687   -0.4415 C   0  0  0  0  0  0  0  0  0  0  0  0
    5.2222   -2.9789    0.5038 C   0  0  0  0  0  0  0  0  0  0  0  0
    6.4779   -3.0267    1.0901 C   0  0  0  0  0  0  0  0  0  0  0  0
    7.3899   -4.0254    1.2200 N   0  0  0  0  0  0  0  0  0  0  0  0
    8.3165   -3.6904    2.1780 C   0  0  0  0  0  0  0  0  0  0  0  0
    9.2605   -4.5595    2.8007 C   0  0  0  0  0  0  0  0  0  0  0  0
    9.3761   -6.0057    2.4216 C   0  0  0  0  0  0  0  0  0  0  0  0
    9.8424   -6.1385    0.9531 C   0  0  0  0  0  0  0  0  0  0  0  0
    9.8750   -7.5069    0.3929 N   0  0  0  0  0  0  0  0  0  0  0  0
   10.8581   -8.3635    1.0801 C   0  0  0  0  0  0  0  0  0  0  0  0
   12.1864   -8.0359    0.4306 C   0  0  0  0  0  0  0  0  0  0  0  0
   11.8131   -7.9092   -1.0341 C   0  0  0  0  0  0  0  0  0  0  0  0
   10.3633   -7.4209   -1.0261 C   0  0  1  0  0  0  0  0  0  0  0  0
    9.4632   -8.2353   -1.9699 C   0  0  0  0  0  0  0  0  0  0  0  0
    8.1230   -7.7495   -1.8952 O   0  0  0  0  0  0  0  0  0  0  0  0
   10.0410   -3.9652    3.8039 C   0  0  0  0  0  0  0  0  0  0  0  0
    9.9362   -2.6120    4.1101 C   0  0  0  0  0  0  0  0  0  0  0  0
    9.0340   -1.7836    3.4372 C   0  0  0  0  0  0  0  0  0  0  0  0
    8.1953   -2.3317    2.4785 C   0  0  0  0  0  0  0  0  0  0  0  0
    7.0696   -1.9639    1.7096 C   0  0  0  0  0  0  0  0  0  0  0  0
    6.2923   -0.8052    1.9913 C   0  0  0  0  0  0  0  0  0  0  0  0
    4.8885   -1.0477    1.8456 C   0  0  0  0  0  0  0  0  0  0  0  0
    4.3571   -1.8926    0.8343 C   0  0  0  0  0  0  0  0  0  0  0  0
    3.2447   -1.7610   -0.0409 C   0  0  0  0  0  0  0  0  0  0  0  0
    4.4473   -0.8161    3.2128 C   0  0  0  0  0  0  0  0  0  0  0  0
    3.6651   -1.4183    3.9393 O   0  0  0  0  0  0  0  0  0  0  0  0
    5.3786    0.0795    3.7227 N   0  0  0  0  0  0  0  0  0  0  0  0
    6.5246    0.1900    2.9794 C   0  0  0  0  0  0  0  0  0  0  0  0
    7.4467    0.9494    3.2285 O   0  0  0  0  0  0  0  0  0  0  0  0
    1.9724    0.8203    0.7651 H   0  0  0  0  0  0  0  0  0  0  0  0
    1.2165   -0.5802    1.6533 H   0  0  0  0  0  0  0  0  0  0  0  0
    0.4245    0.1414    0.2323 H   0  0  0  0  0  0  0  0  0  0  0  0
    0.5027   -2.1331   -1.0309 H   0  0  0  0  0  0  0  0  0  0  0  0
    2.8569   -1.0662   -2.7530 H   0  0  0  0  0  0  0  0  0  0  0  0
    3.9212   -4.3100   -2.2794 H   0  0  0  0  0  0  0  0  0  0  0  0
    5.5859   -4.8413   -0.5779 H   0  0  0  0  0  0  0  0  0  0  0  0
    7.2317   -4.9730    0.8866 H   0  0  0  0  0  0  0  0  0  0  0  0
    8.4018   -6.4957    2.5582 H   0  0  0  0  0  0  0  0  0  0  0  0
   10.0785   -6.4946    3.0992 H   0  0  0  0  0  0  0  0  0  0  0  0
   10.8063   -5.6278    0.8392 H   0  0  0  0  0  0  0  0  0  0  0  0
    9.1431   -5.5879    0.3154 H   0  0  0  0  0  0  0  0  0  0  0  0
   10.5990   -9.4120    0.8862 H   0  0  0  0  0  0  0  0  0  0  0  0
   10.8807   -8.2473    2.1664 H   0  0  0  0  0  0  0  0  0  0  0  0
   12.9397   -8.8093    0.6011 H   0  0  0  0  0  0  0  0  0  0  0  0
   12.5833   -7.0866    0.8086 H   0  0  0  0  0  0  0  0  0  0  0  0
   11.9055   -8.8853   -1.5247 H   0  0  0  0  0  0  0  0  0  0  0  0
   12.4765   -7.2058   -1.5485 H   0  0  0  0  0  0  0  0  0  0  0  0
   10.3286   -6.3808   -1.3787 H   0  0  0  0  0  0  0  0  0  0  0  0
    9.4547   -9.2993   -1.7122 H   0  0  0  0  0  0  0  0  0  0  0  0
    9.8039   -8.1349   -3.0056 H   0  0  0  0  0  0  0  0  0  0  0  0
    7.9202   -7.7541   -0.9401 H   0  0  0  0  0  0  0  0  0  0  0  0
   10.7289   -4.5837    4.3737 H   0  0  0  0  0  0  0  0  0  0  0  0
   10.5501   -2.1897    4.9084 H   0  0  0  0  0  0  0  0  0  0  0  0
    8.9958   -0.7301    3.7101 H   0  0  0  0  0  0  0  0  0  0  0  0
    5.4696    0.2336    4.7124 H   0  0  0  0  0  0  0  0  0  0  0  0
  1  2  1  0  0  0  0
  1 36  1  0  0  0  0
  1 37  1  0  0  0  0
  1 38  1  0  0  0  0
  2  3  1  0  0  0  0
  2 30  1  0  0  0  0
  3  4  2  0  0  0  0
  3 39  1  0  0  0  0
  4  5  1  0  0  0  0
  4 40  1  0  0  0  0
  5  6  1  0  0  0  0
  5 30  2  0  0  0  0
  6  7  2  0  0  0  0
  6 41  1  0  0  0  0
  7  8  1  0  0  0  0
  7 42  1  0  0  0  0
  8  9  1  0  0  0  0
  8 29  2  0  0  0  0
  9 10  1  0  0  0  0
  9 26  2  0  0  0  0
 10 11  1  0  0  0  0
 10 43  1  0  0  0  0
 11 12  1  0  0  0  0
 11 25  2  0  0  0  0
 12 13  1  0  0  0  0
 12 22  2  0  0  0  0
 13 14  1  0  0  0  0
 13 44  1  0  0  0  0
 13 45  1  0  0  0  0
 14 15  1  0  0  0  0
 14 46  1  0  0  0  0
 14 47  1  0  0  0  0
 15 16  1  0  0  0  0
 15 19  1  0  0  0  0
 16 17  1  0  0  0  0
 16 48  1  0  0  0  0
 16 49  1  0  0  0  0
 17 18  1  0  0  0  0
 17 50  1  0  0  0  0
 17 51  1  0  0  0  0
 18 19  1  0  0  0  0
 18 52  1  0  0  0  0
 18 53  1  0  0  0  0
 19 20  1  0  0  0  0
 19 54  1  6  0  0  0
 20 21  1  0  0  0  0
 20 55  1  0  0  0  0
 20 56  1  0  0  0  0
 21 57  1  0  0  0  0
 22 23  1  0  0  0  0
 22 58  1  0  0  0  0
 23 24  2  0  0  0  0
 23 59  1  0  0  0  0
 24 25  1  0  0  0  0
 24 60  1  0  0  0  0
 25 26  1  0  0  0  0
 26 27  1  0  0  0  0
 27 28  2  0  0  0  0
 27 34  1  0  0  0  0
 28 29  1  0  0  0  0
 28 31  1  0  0  0  0
 29 30  1  0  0  0  0
 31 32  2  0  0  0  0
 31 33  1  0  0  0  0
 33 34  1  0  0  0  0
 33 61  1  0  0  0  0
 34 35  2  0  0  0  0
M  END
$$$$
