MODEL 1
REMARK VINA RESULT:    -9.425      0.000      0.000
REMARK INTER + INTRA:         -11.425
REMARK INTER:                 -11.078
REMARK INTRA:                  -0.347
REMARK UNBOUND:                -0.347
REMARK  Name = 
REMARK  4 active torsions:
REMARK  status: ('A' for Active; 'I' for Inactive)
REMARK    1  A    between atoms: C_1  and  N_2
REMARK    2  A    between atoms: C_8  and  C_9
REMARK    3  A    between atoms: C_10  and  C_11
REMARK    4  A    between atoms: N_13  and  C_14
REMARK                            x       y       z     vdW  Elec       q    Type
REMARK                         _______ _______ _______ _____ _____    ______ ____
ROOT
ATOM      1  N   UNL     1     -11.968  -1.555  16.373  0.00  0.00    +0.000 NA
ATOM      2  C   UNL     1     -11.878  -2.958  15.898  0.00  0.00    +0.000 C 
ATOM      3  C   UNL     1     -10.652  -3.519  16.589  0.00  0.00    +0.000 C 
ATOM      4  C   UNL     1     -10.579  -5.026  16.820  0.00  0.00    +0.000 C 
ATOM      5  N   UNL     1      -9.801  -5.341  18.025  0.00  0.00    +0.000 N 
ATOM      6  C   UNL     1      -9.076  -4.412  18.741  0.00  0.00    +0.000 A 
ATOM      7  C   UNL     1      -8.136  -5.120  19.466  0.00  0.00    +0.000 A 
ATOM      8  C   UNL     1      -8.526  -6.498  19.420  0.00  0.00    +0.000 A 
ATOM      9  C   UNL     1      -8.054  -7.691  20.010  0.00  0.00    +0.000 A 
ATOM     10  C   UNL     1      -8.844  -8.846  19.942  0.00  0.00    +0.000 A 
ATOM     11  C   UNL     1     -10.074  -8.835  19.291  0.00  0.00    +0.000 A 
ATOM     12  C   UNL     1     -10.501  -7.705  18.590  0.00  0.00    +0.000 A 
ATOM     13  C   UNL     1      -9.692  -6.561  18.643  0.00  0.00    +0.000 A 
ATOM     14  C   UNL     1      -9.371  -2.954  18.625  0.00  0.00    +0.000 C 
ATOM     15  C   UNL     1     -10.704  -2.794  17.923  0.00  0.00    +0.000 C 
ATOM     16  C   UNL     1     -11.070  -1.388  17.532  0.00  0.00    +0.000 C 
ATOM     17  H   UNL     1     -11.815  -3.052  14.808  0.00  0.00    +0.000 HD
ATOM     18  H   UNL     1     -12.780  -3.490  16.222  0.00  0.00    +0.000 HD
ATOM     19  H   UNL     1      -9.755  -3.201  16.035  0.00  0.00    +0.000 HD
ATOM     20  H   UNL     1     -10.056  -5.508  15.982  0.00  0.00    +0.000 HD
ATOM     21  H   UNL     1     -11.564  -5.485  16.931  0.00  0.00    +0.000 HD
ATOM     22  H   UNL     1      -7.112  -7.713  20.549  0.00  0.00    +0.000 HD
ATOM     23  H   UNL     1      -8.505  -9.752  20.438  0.00  0.00    +0.000 HD
ATOM     24  H   UNL     1     -10.707  -9.718  19.322  0.00  0.00    +0.000 HD
ATOM     25  H   UNL     1     -11.455  -7.702  18.074  0.00  0.00    +0.000 HD
ATOM     26  H   UNL     1      -8.559  -2.456  18.082  0.00  0.00    +0.000 HD
ATOM     27  H   UNL     1      -9.451  -2.491  19.610  0.00  0.00    +0.000 HD
ATOM     28  H   UNL     1     -11.511  -3.219  18.544  0.00  0.00    +0.000 HD
ATOM     29  H   UNL     1     -11.587  -0.875  18.350  0.00  0.00    +0.000 HD
ATOM     30  H   UNL     1     -10.167  -0.816  17.288  0.00  0.00    +0.000 HD
ENDROOT
BRANCH   7  31
ATOM     31  C   UNL     1      -7.060  -4.504  20.161  0.00  0.00    +0.000 C 
ATOM     32  C   UNL     1      -7.089  -3.599  21.154  0.00  0.00    +0.000 C 
ATOM     33  C   UNL     1      -5.701  -3.374  21.606  0.00  0.00    +0.000 C 
ATOM     34  O   UNL     1      -5.322  -2.516  22.386  0.00  0.00    +0.000 OA
ATOM     35  N   UNL     1      -4.930  -4.247  20.952  0.00  0.00    +0.000 N 
ATOM     36  C   UNL     1      -5.631  -4.827  19.958  0.00  0.00    +0.000 C 
ATOM     37  O   UNL     1      -5.139  -5.459  19.039  0.00  0.00    +0.000 OA
ATOM     38  H   UNL     1      -3.927  -4.257  21.009  0.00  0.00    +0.000 HD
BRANCH  32  39
ATOM     39  C   UNL     1      -8.204  -2.987  21.749  0.00  0.00    +0.000 A 
ATOM     40  C   UNL     1      -9.005  -2.029  21.154  0.00  0.00    +0.000 A 
ATOM     41  N   UNL     1     -10.030  -1.817  22.045  0.00  0.00    +0.000 N 
ATOM     42  C   UNL     1      -9.557  -2.119  23.308  0.00  0.00    +0.000 A 
ATOM     43  C   UNL     1      -9.870  -1.652  24.588  0.00  0.00    +0.000 A 
ATOM     44  C   UNL     1      -9.279  -2.324  25.667  0.00  0.00    +0.000 A 
ATOM     45  C   UNL     1      -8.523  -3.481  25.474  0.00  0.00    +0.000 A 
ATOM     46  C   UNL     1      -8.193  -3.908  24.186  0.00  0.00    +0.000 A 
ATOM     47  C   UNL     1      -8.618  -3.129  23.099  0.00  0.00    +0.000 A 
ATOM     48  H   UNL     1      -9.022  -1.602  20.159  0.00  0.00    +0.000 HD
ATOM     49  H   UNL     1     -10.483  -0.771  24.740  0.00  0.00    +0.000 HD
ATOM     50  H   UNL     1      -9.422  -1.948  26.677  0.00  0.00    +0.000 HD
ATOM     51  H   UNL     1      -8.139  -4.032  26.328  0.00  0.00    +0.000 HD
ATOM     52  H   UNL     1      -7.566  -4.782  24.036  0.00  0.00    +0.000 HD
BRANCH  41  53
ATOM     53  C   UNL     1     -11.408  -2.021  21.629  0.00  0.00    +0.000 C 
ATOM     54  H   UNL     1     -11.759  -2.981  22.006  0.00  0.00    +0.000 HD
ATOM     55  H   UNL     1     -11.482  -1.958  20.541  0.00  0.00    +0.000 HD
ATOM     56  H   UNL     1     -12.005  -1.207  22.064  0.00  0.00    +0.000 HD
ENDBRANCH  41  53
ENDBRANCH  32  39
ENDBRANCH   7  31
BRANCH   1  57
ATOM     57  C   UNL     1     -11.657  -0.583  15.331  0.00  0.00    +0.000 C 
ATOM     58  H   UNL     1     -11.351   0.386  15.741  0.00  0.00    +0.000 HD
ATOM     59  H   UNL     1     -12.520  -0.408  14.676  0.00  0.00    +0.000 HD
ATOM     60  H   UNL     1     -10.855  -0.968  14.695  0.00  0.00    +0.000 HD
ENDBRANCH   1  57
TORSDOF 4
ENDMDL
MODEL 2
REMARK VINA RESULT:    -9.324      2.609      6.787
REMARK INTER + INTRA:         -11.306
REMARK INTER:                 -13.694
REMARK INTRA:                   2.388
REMARK UNBOUND:                -0.347
REMARK  Name = 
REMARK  4 active torsions:
REMARK  status: ('A' for Active; 'I' for Inactive)
REMARK    1  A    between atoms: C_1  and  N_2
REMARK    2  A    between atoms: C_8  and  C_9
REMARK    3  A    between atoms: C_10  and  C_11
REMARK    4  A    between atoms: N_13  and  C_14
REMARK                            x       y       z     vdW  Elec       q    Type
REMARK                         _______ _______ _______ _____ _____    ______ ____
ROOT
ATOM      1  N   UNL     1     -10.948  -0.268  21.797  0.00  0.00    +0.000 NA
ATOM      2  C   UNL     1      -9.894  -1.001  22.540  0.00  0.00    +0.000 C 
ATOM      3  C   UNL     1      -9.716  -2.297  21.776  0.00  0.00    +0.000 C 
ATOM      4  C   UNL     1      -8.370  -3.012  21.868  0.00  0.00    +0.000 C 
ATOM      5  N   UNL     1      -8.082  -3.762  20.639  0.00  0.00    +0.000 N 
ATOM      6  C   UNL     1      -8.990  -3.950  19.618  0.00  0.00    +0.000 A 
ATOM      7  C   UNL     1      -8.558  -5.052  18.905  0.00  0.00    +0.000 A 
ATOM      8  C   UNL     1      -7.212  -5.315  19.319  0.00  0.00    +0.000 A 
ATOM      9  C   UNL     1      -6.204  -6.222  18.927  0.00  0.00    +0.000 A 
ATOM     10  C   UNL     1      -4.895  -6.030  19.387  0.00  0.00    +0.000 A 
ATOM     11  C   UNL     1      -4.582  -4.971  20.233  0.00  0.00    +0.000 A 
ATOM     12  C   UNL     1      -5.583  -4.139  20.738  0.00  0.00    +0.000 A 
ATOM     13  C   UNL     1      -6.895  -4.354  20.291  0.00  0.00    +0.000 A 
ATOM     14  C   UNL     1     -10.171  -3.051  19.467  0.00  0.00    +0.000 C 
ATOM     15  C   UNL     1      -9.959  -1.837  20.349  0.00  0.00    +0.000 C 
ATOM     16  C   UNL     1     -11.142  -0.916  20.485  0.00  0.00    +0.000 C 
ATOM     17  H   UNL     1     -10.137  -1.176  23.594  0.00  0.00    +0.000 HD
ATOM     18  H   UNL     1      -8.974  -0.406  22.510  0.00  0.00    +0.000 HD
ATOM     19  H   UNL     1     -10.511  -2.998  22.075  0.00  0.00    +0.000 HD
ATOM     20  H   UNL     1      -8.394  -3.751  22.681  0.00  0.00    +0.000 HD
ATOM     21  H   UNL     1      -7.538  -2.325  22.041  0.00  0.00    +0.000 HD
ATOM     22  H   UNL     1      -6.421  -7.037  18.243  0.00  0.00    +0.000 HD
ATOM     23  H   UNL     1      -4.108  -6.698  19.046  0.00  0.00    +0.000 HD
ATOM     24  H   UNL     1      -3.546  -4.791  20.511  0.00  0.00    +0.000 HD
ATOM     25  H   UNL     1      -5.339  -3.321  21.407  0.00  0.00    +0.000 HD
ATOM     26  H   UNL     1     -11.085  -3.595  19.731  0.00  0.00    +0.000 HD
ATOM     27  H   UNL     1     -10.271  -2.705  18.436  0.00  0.00    +0.000 HD
ATOM     28  H   UNL     1      -9.090  -1.259  19.992  0.00  0.00    +0.000 HD
ATOM     29  H   UNL     1     -11.153  -0.169  19.684  0.00  0.00    +0.000 HD
ATOM     30  H   UNL     1     -12.075  -1.489  20.430  0.00  0.00    +0.000 HD
ENDROOT
BRANCH   7  31
ATOM     31  C   UNL     1      -9.343  -5.694  17.909  0.00  0.00    +0.000 C 
ATOM     32  C   UNL     1      -9.643  -6.996  17.763  0.00  0.00    +0.000 C 
ATOM     33  C   UNL     1     -10.589  -7.122  16.637  0.00  0.00    +0.000 C 
ATOM     34  O   UNL     1     -10.967  -8.160  16.119  0.00  0.00    +0.000 OA
ATOM     35  N   UNL     1     -10.906  -5.883  16.251  0.00  0.00    +0.000 N 
ATOM     36  C   UNL     1     -10.082  -4.993  16.836  0.00  0.00    +0.000 C 
ATOM     37  O   UNL     1      -9.952  -3.832  16.487  0.00  0.00    +0.000 OA
ATOM     38  H   UNL     1     -11.472  -5.677  15.446  0.00  0.00    +0.000 HD
BRANCH  32  39
ATOM     39  C   UNL     1      -9.222  -8.084  18.545  0.00  0.00    +0.000 A 
ATOM     40  C   UNL     1      -8.513  -7.994  19.728  0.00  0.00    +0.000 A 
ATOM     41  N   UNL     1      -8.435  -9.284  20.197  0.00  0.00    +0.000 N 
ATOM     42  C   UNL     1      -8.510 -10.131  19.107  0.00  0.00    +0.000 A 
ATOM     43  C   UNL     1      -7.999 -11.406  18.844  0.00  0.00    +0.000 A 
ATOM     44  C   UNL     1      -8.428 -12.026  17.662  0.00  0.00    +0.000 A 
ATOM     45  C   UNL     1      -9.416 -11.453  16.860  0.00  0.00    +0.000 A 
ATOM     46  C   UNL     1      -9.885 -10.165  17.122  0.00  0.00    +0.000 A 
ATOM     47  C   UNL     1      -9.318  -9.456  18.193  0.00  0.00    +0.000 A 
ATOM     48  H   UNL     1      -8.195  -7.153  20.331  0.00  0.00    +0.000 HD
ATOM     49  H   UNL     1      -7.254 -11.865  19.484  0.00  0.00    +0.000 HD
ATOM     50  H   UNL     1      -7.996 -12.980  17.369  0.00  0.00    +0.000 HD
ATOM     51  H   UNL     1      -9.791 -11.986  15.991  0.00  0.00    +0.000 HD
ATOM     52  H   UNL     1     -10.621  -9.700  16.472  0.00  0.00    +0.000 HD
BRANCH  41  53
ATOM     53  C   UNL     1      -8.959  -9.612  21.512  0.00  0.00    +0.000 C 
ATOM     54  H   UNL     1      -8.607 -10.601  21.804  0.00  0.00    +0.000 HD
ATOM     55  H   UNL     1     -10.050  -9.554  21.504  0.00  0.00    +0.000 HD
ATOM     56  H   UNL     1      -8.578  -8.856  22.214  0.00  0.00    +0.000 HD
ENDBRANCH  41  53
ENDBRANCH  32  39
ENDBRANCH   7  31
BRANCH   1  57
ATOM     57  C   UNL     1     -12.208  -0.191  22.529  0.00  0.00    +0.000 C 
ATOM     58  H   UNL     1     -12.835  -1.077  22.375  0.00  0.00    +0.000 HD
ATOM     59  H   UNL     1     -12.793   0.686  22.226  0.00  0.00    +0.000 HD
ATOM     60  H   UNL     1     -12.007  -0.080  23.598  0.00  0.00    +0.000 HD
ENDBRANCH   1  57
TORSDOF 4
ENDMDL
MODEL 3
REMARK VINA RESULT:    -9.115      1.151      5.183
REMARK INTER + INTRA:         -11.060
REMARK INTER:                 -10.386
REMARK INTRA:                  -0.674
REMARK UNBOUND:                -0.347
REMARK  Name = 
REMARK  4 active torsions:
REMARK  status: ('A' for Active; 'I' for Inactive)
REMARK    1  A    between atoms: C_1  and  N_2
REMARK    2  A    between atoms: C_8  and  C_9
REMARK    3  A    between atoms: C_10  and  C_11
REMARK    4  A    between atoms: N_13  and  C_14
REMARK                            x       y       z     vdW  Elec       q    Type
REMARK                         _______ _______ _______ _____ _____    ______ ____
ROOT
ATOM      1  N   UNL     1     -11.309   0.709  18.514  0.00  0.00    +0.000 NA
ATOM      2  C   UNL     1     -12.002   0.099  19.675  0.00  0.00    +0.000 C 
ATOM      3  C   UNL     1     -11.107  -1.049  20.096  0.00  0.00    +0.000 C 
ATOM      4  C   UNL     1     -11.165  -1.516  21.548  0.00  0.00    +0.000 C 
ATOM      5  N   UNL     1      -9.871  -2.059  21.982  0.00  0.00    +0.000 N 
ATOM      6  C   UNL     1      -8.807  -2.290  21.136  0.00  0.00    +0.000 A 
ATOM      7  C   UNL     1      -7.992  -3.208  21.771  0.00  0.00    +0.000 A 
ATOM      8  C   UNL     1      -8.418  -3.270  23.137  0.00  0.00    +0.000 A 
ATOM      9  C   UNL     1      -7.963  -3.931  24.298  0.00  0.00    +0.000 A 
ATOM     10  C   UNL     1      -8.483  -3.561  25.545  0.00  0.00    +0.000 A 
ATOM     11  C   UNL     1      -9.450  -2.564  25.649  0.00  0.00    +0.000 A 
ATOM     12  C   UNL     1     -10.009  -1.989  24.507  0.00  0.00    +0.000 A 
ATOM     13  C   UNL     1      -9.499  -2.384  23.262  0.00  0.00    +0.000 A 
ATOM     14  C   UNL     1      -8.716  -1.607  19.813  0.00  0.00    +0.000 C 
ATOM     15  C   UNL     1      -9.731  -0.482  19.789  0.00  0.00    +0.000 C 
ATOM     16  C   UNL     1      -9.929   0.190  18.457  0.00  0.00    +0.000 C 
ATOM     17  H   UNL     1     -13.022  -0.235  19.454  0.00  0.00    +0.000 HD
ATOM     18  H   UNL     1     -12.067   0.849  20.471  0.00  0.00    +0.000 HD
ATOM     19  H   UNL     1     -11.302  -1.911  19.437  0.00  0.00    +0.000 HD
ATOM     20  H   UNL     1     -11.890  -2.334  21.649  0.00  0.00    +0.000 HD
ATOM     21  H   UNL     1     -11.437  -0.715  22.238  0.00  0.00    +0.000 HD
ATOM     22  H   UNL     1      -7.187  -4.689  24.242  0.00  0.00    +0.000 HD
ATOM     23  H   UNL     1      -8.097  -4.033  26.444  0.00  0.00    +0.000 HD
ATOM     24  H   UNL     1      -9.778  -2.234  26.632  0.00  0.00    +0.000 HD
ATOM     25  H   UNL     1     -10.770  -1.221  24.590  0.00  0.00    +0.000 HD
ATOM     26  H   UNL     1      -8.889  -2.333  19.011  0.00  0.00    +0.000 HD
ATOM     27  H   UNL     1      -7.726  -1.170  19.665  0.00  0.00    +0.000 HD
ATOM     28  H   UNL     1      -9.468   0.279  20.543  0.00  0.00    +0.000 HD
ATOM     29  H   UNL     1      -9.214   1.008  18.320  0.00  0.00    +0.000 HD
ATOM     30  H   UNL     1      -9.782  -0.531  17.644  0.00  0.00    +0.000 HD
ENDROOT
BRANCH   7  31
ATOM     31  C   UNL     1      -6.907  -3.864  21.128  0.00  0.00    +0.000 C 
ATOM     32  C   UNL     1      -6.918  -4.731  20.101  0.00  0.00    +0.000 C 
ATOM     33  C   UNL     1      -5.518  -5.024  19.736  0.00  0.00    +0.000 C 
ATOM     34  O   UNL     1      -5.134  -5.875  18.951  0.00  0.00    +0.000 OA
ATOM     35  N   UNL     1      -4.745  -4.221  20.474  0.00  0.00    +0.000 N 
ATOM     36  C   UNL     1      -5.479  -3.635  21.440  0.00  0.00    +0.000 C 
ATOM     37  O   UNL     1      -5.018  -3.066  22.414  0.00  0.00    +0.000 OA
ATOM     38  H   UNL     1      -3.741  -4.270  20.486  0.00  0.00    +0.000 HD
BRANCH  32  39
ATOM     39  C   UNL     1      -8.022  -5.254  19.408  0.00  0.00    +0.000 A 
ATOM     40  C   UNL     1      -9.026  -4.506  18.819  0.00  0.00    +0.000 A 
ATOM     41  N   UNL     1      -9.812  -5.421  18.159  0.00  0.00    +0.000 N 
ATOM     42  C   UNL     1      -9.682  -6.633  18.812  0.00  0.00    +0.000 A 
ATOM     43  C   UNL     1     -10.533  -7.729  18.980  0.00  0.00    +0.000 A 
ATOM     44  C   UNL     1      -9.983  -8.869  19.582  0.00  0.00    +0.000 A 
ATOM     45  C   UNL     1      -8.621  -8.948  19.876  0.00  0.00    +0.000 A 
ATOM     46  C   UNL     1      -7.798  -7.830  19.733  0.00  0.00    +0.000 A 
ATOM     47  C   UNL     1      -8.382  -6.624  19.315  0.00  0.00    +0.000 A 
ATOM     48  H   UNL     1      -9.168  -3.441  18.691  0.00  0.00    +0.000 HD
ATOM     49  H   UNL     1     -11.585  -7.679  18.724  0.00  0.00    +0.000 HD
ATOM     50  H   UNL     1     -10.624  -9.717  19.813  0.00  0.00    +0.000 HD
ATOM     51  H   UNL     1      -8.199  -9.868  20.270  0.00  0.00    +0.000 HD
ATOM     52  H   UNL     1      -6.747  -7.877  20.005  0.00  0.00    +0.000 HD
BRANCH  41  53
ATOM     53  C   UNL     1     -10.028  -5.295  16.727  0.00  0.00    +0.000 C 
ATOM     54  H   UNL     1     -10.115  -4.240  16.468  0.00  0.00    +0.000 HD
ATOM     55  H   UNL     1     -10.914  -5.861  16.433  0.00  0.00    +0.000 HD
ATOM     56  H   UNL     1      -9.154  -5.733  16.225  0.00  0.00    +0.000 HD
ENDBRANCH  41  53
ENDBRANCH  32  39
ENDBRANCH   7  31
BRANCH   1  57
ATOM     57  C   UNL     1     -12.003   0.476  17.252  0.00  0.00    +0.000 C 
ATOM     58  H   UNL     1     -12.562   1.356  16.914  0.00  0.00    +0.000 HD
ATOM     59  H   UNL     1     -12.714  -0.356  17.335  0.00  0.00    +0.000 HD
ATOM     60  H   UNL     1     -11.282   0.196  16.480  0.00  0.00    +0.000 HD
ENDBRANCH   1  57
TORSDOF 4
ENDMDL
MODEL 4
REMARK VINA RESULT:    -8.935      2.569      4.886
REMARK INTER + INTRA:         -10.849
REMARK INTER:                  -9.785
REMARK INTRA:                  -1.064
REMARK UNBOUND:                -0.347
REMARK  Name = 
REMARK  4 active torsions:
REMARK  status: ('A' for Active; 'I' for Inactive)
REMARK    1  A    between atoms: C_1  and  N_2
REMARK    2  A    between atoms: C_8  and  C_9
REMARK    3  A    between atoms: C_10  and  C_11
REMARK    4  A    between atoms: N_13  and  C_14
REMARK                            x       y       z     vdW  Elec       q    Type
REMARK                         _______ _______ _______ _____ _____    ______ ____
ROOT
ATOM      1  N   UNL     1     -10.296  -8.427  17.123  0.00  0.00    +0.000 NA
ATOM      2  C   UNL     1      -8.866  -8.031  17.134  0.00  0.00    +0.000 C 
ATOM      3  C   UNL     1      -8.866  -6.610  17.658  0.00  0.00    +0.000 C 
ATOM      4  C   UNL     1      -7.607  -6.095  18.352  0.00  0.00    +0.000 C 
ATOM      5  N   UNL     1      -7.936  -5.090  19.371  0.00  0.00    +0.000 N 
ATOM      6  C   UNL     1      -9.192  -4.547  19.544  0.00  0.00    +0.000 A 
ATOM      7  C   UNL     1      -9.016  -3.353  20.217  0.00  0.00    +0.000 A 
ATOM      8  C   UNL     1      -7.676  -3.355  20.726  0.00  0.00    +0.000 A 
ATOM      9  C   UNL     1      -6.917  -2.494  21.547  0.00  0.00    +0.000 A 
ATOM     10  C   UNL     1      -5.691  -2.940  22.057  0.00  0.00    +0.000 A 
ATOM     11  C   UNL     1      -5.208  -4.210  21.751  0.00  0.00    +0.000 A 
ATOM     12  C   UNL     1      -5.877  -5.028  20.839  0.00  0.00    +0.000 A 
ATOM     13  C   UNL     1      -7.091  -4.562  20.315  0.00  0.00    +0.000 A 
ATOM     14  C   UNL     1     -10.406  -5.242  19.024  0.00  0.00    +0.000 C 
ATOM     15  C   UNL     1     -10.018  -6.657  18.648  0.00  0.00    +0.000 C 
ATOM     16  C   UNL     1     -11.066  -7.446  17.911  0.00  0.00    +0.000 C 
ATOM     17  H   UNL     1      -8.379  -8.107  16.155  0.00  0.00    +0.000 HD
ATOM     18  H   UNL     1      -8.329  -8.695  17.820  0.00  0.00    +0.000 HD
ATOM     19  H   UNL     1      -9.121  -5.926  16.833  0.00  0.00    +0.000 HD
ATOM     20  H   UNL     1      -6.958  -5.592  17.623  0.00  0.00    +0.000 HD
ATOM     21  H   UNL     1      -7.040  -6.890  18.841  0.00  0.00    +0.000 HD
ATOM     22  H   UNL     1      -7.289  -1.512  21.822  0.00  0.00    +0.000 HD
ATOM     23  H   UNL     1      -5.129  -2.298  22.729  0.00  0.00    +0.000 HD
ATOM     24  H   UNL     1      -4.297  -4.567  22.224  0.00  0.00    +0.000 HD
ATOM     25  H   UNL     1      -5.493  -6.012  20.593  0.00  0.00    +0.000 HD
ATOM     26  H   UNL     1     -10.811  -4.686  18.170  0.00  0.00    +0.000 HD
ATOM     27  H   UNL     1     -11.183  -5.297  19.789  0.00  0.00    +0.000 HD
ATOM     28  H   UNL     1      -9.710  -7.216  19.548  0.00  0.00    +0.000 HD
ATOM     29  H   UNL     1     -11.738  -7.956  18.611  0.00  0.00    +0.000 HD
ATOM     30  H   UNL     1     -11.670  -6.780  17.283  0.00  0.00    +0.000 HD
ENDROOT
BRANCH   7  31
ATOM     31  C   UNL     1     -10.051  -2.394  20.390  0.00  0.00    +0.000 C 
ATOM     32  C   UNL     1     -10.442  -1.749  21.501  0.00  0.00    +0.000 C 
ATOM     33  C   UNL     1     -11.480  -0.771  21.119  0.00  0.00    +0.000 C 
ATOM     34  O   UNL     1     -12.170  -0.111  21.878  0.00  0.00    +0.000 OA
ATOM     35  N   UNL     1     -11.564  -0.790  19.786  0.00  0.00    +0.000 N 
ATOM     36  C   UNL     1     -10.879  -1.841  19.296  0.00  0.00    +0.000 C 
ATOM     37  O   UNL     1     -10.985  -2.270  18.160  0.00  0.00    +0.000 OA
ATOM     38  H   UNL     1     -12.252  -0.277  19.263  0.00  0.00    +0.000 HD
BRANCH  32  39
ATOM     39  C   UNL     1      -9.951  -1.882  22.811  0.00  0.00    +0.000 A 
ATOM     40  C   UNL     1     -10.198  -2.950  23.654  0.00  0.00    +0.000 A 
ATOM     41  N   UNL     1      -9.423  -2.713  24.765  0.00  0.00    +0.000 N 
ATOM     42  C   UNL     1      -9.240  -1.346  24.865  0.00  0.00    +0.000 A 
ATOM     43  C   UNL     1      -9.037  -0.480  25.944  0.00  0.00    +0.000 A 
ATOM     44  C   UNL     1      -8.726   0.851  25.635  0.00  0.00    +0.000 A 
ATOM     45  C   UNL     1      -8.501   1.256  24.319  0.00  0.00    +0.000 A 
ATOM     46  C   UNL     1      -8.744   0.385  23.256  0.00  0.00    +0.000 A 
ATOM     47  C   UNL     1      -9.245  -0.894  23.546  0.00  0.00    +0.000 A 
ATOM     48  H   UNL     1     -10.716  -3.889  23.515  0.00  0.00    +0.000 HD
ATOM     49  H   UNL     1      -9.182  -0.803  26.969  0.00  0.00    +0.000 HD
ATOM     50  H   UNL     1      -8.643   1.582  26.435  0.00  0.00    +0.000 HD
ATOM     51  H   UNL     1      -8.184   2.273  24.106  0.00  0.00    +0.000 HD
ATOM     52  H   UNL     1      -8.613   0.713  22.229  0.00  0.00    +0.000 HD
BRANCH  41  53
ATOM     53  C   UNL     1      -8.434  -3.692  25.184  0.00  0.00    +0.000 C 
ATOM     54  H   UNL     1      -7.786  -3.932  24.342  0.00  0.00    +0.000 HD
ATOM     55  H   UNL     1      -8.933  -4.580  25.579  0.00  0.00    +0.000 HD
ATOM     56  H   UNL     1      -7.846  -3.237  25.993  0.00  0.00    +0.000 HD
ENDBRANCH  41  53
ENDBRANCH  32  39
ENDBRANCH   7  31
BRANCH   1  57
ATOM     57  C   UNL     1     -10.839  -8.551  15.774  0.00  0.00    +0.000 C 
ATOM     58  H   UNL     1     -11.921  -8.728  15.775  0.00  0.00    +0.000 HD
ATOM     59  H   UNL     1     -10.368  -9.379  15.228  0.00  0.00    +0.000 HD
ATOM     60  H   UNL     1     -10.628  -7.641  15.207  0.00  0.00    +0.000 HD
ENDBRANCH   1  57
TORSDOF 4
ENDMDL
MODEL 5
REMARK VINA RESULT:    -8.691      2.889      5.600
REMARK INTER + INTRA:         -10.563
REMARK INTER:                  -9.545
REMARK INTRA:                  -1.018
REMARK UNBOUND:                -0.347
REMARK  Name = 
REMARK  4 active torsions:
REMARK  status: ('A' for Active; 'I' for Inactive)
REMARK    1  A    between atoms: C_1  and  N_2
REMARK    2  A    between atoms: C_8  and  C_9
REMARK    3  A    between atoms: C_10  and  C_11
REMARK    4  A    between atoms: N_13  and  C_14
REMARK                            x       y       z     vdW  Elec       q    Type
REMARK                         _______ _______ _______ _____ _____    ______ ____
ROOT
ATOM      1  N   UNL     1     -10.154  -8.714  17.271  0.00  0.00    +0.000 NA
ATOM      2  C   UNL     1      -8.865  -8.369  17.919  0.00  0.00    +0.000 C 
ATOM      3  C   UNL     1      -8.840  -6.855  17.945  0.00  0.00    +0.000 C 
ATOM      4  C   UNL     1      -8.005  -6.163  19.019  0.00  0.00    +0.000 C 
ATOM      5  N   UNL     1      -8.583  -4.864  19.387  0.00  0.00    +0.000 N 
ATOM      6  C   UNL     1      -9.630  -4.267  18.716  0.00  0.00    +0.000 A 
ATOM      7  C   UNL     1      -9.572  -2.919  19.017  0.00  0.00    +0.000 A 
ATOM      8  C   UNL     1      -8.680  -2.778  20.129  0.00  0.00    +0.000 A 
ATOM      9  C   UNL     1      -8.264  -1.706  20.947  0.00  0.00    +0.000 A 
ATOM     10  C   UNL     1      -7.556  -1.979  22.125  0.00  0.00    +0.000 A 
ATOM     11  C   UNL     1      -7.246  -3.288  22.486  0.00  0.00    +0.000 A 
ATOM     12  C   UNL     1      -7.532  -4.352  21.630  0.00  0.00    +0.000 A 
ATOM     13  C   UNL     1      -8.220  -4.066  20.441  0.00  0.00    +0.000 A 
ATOM     14  C   UNL     1     -10.547  -5.069  17.855  0.00  0.00    +0.000 C 
ATOM     15  C   UNL     1     -10.312  -6.537  18.150  0.00  0.00    +0.000 C 
ATOM     16  C   UNL     1     -11.001  -7.506  17.228  0.00  0.00    +0.000 C 
ATOM     17  H   UNL     1      -7.989  -8.786  17.408  0.00  0.00    +0.000 HD
ATOM     18  H   UNL     1      -8.872  -8.772  18.938  0.00  0.00    +0.000 HD
ATOM     19  H   UNL     1      -8.522  -6.488  16.956  0.00  0.00    +0.000 HD
ATOM     20  H   UNL     1      -6.999  -5.953  18.633  0.00  0.00    +0.000 HD
ATOM     21  H   UNL     1      -7.916  -6.757  19.932  0.00  0.00    +0.000 HD
ATOM     22  H   UNL     1      -8.522  -0.681  20.700  0.00  0.00    +0.000 HD
ATOM     23  H   UNL     1      -7.278  -1.159  22.781  0.00  0.00    +0.000 HD
ATOM     24  H   UNL     1      -6.770  -3.483  23.444  0.00  0.00    +0.000 HD
ATOM     25  H   UNL     1      -7.280  -5.370  21.908  0.00  0.00    +0.000 HD
ATOM     26  H   UNL     1     -10.367  -4.829  16.800  0.00  0.00    +0.000 HD
ATOM     27  H   UNL     1     -11.591  -4.844  18.078  0.00  0.00    +0.000 HD
ATOM     28  H   UNL     1     -10.598  -6.762  19.192  0.00  0.00    +0.000 HD
ATOM     29  H   UNL     1     -12.014  -7.732  17.581  0.00  0.00    +0.000 HD
ATOM     30  H   UNL     1     -11.078  -7.080  16.221  0.00  0.00    +0.000 HD
ENDROOT
BRANCH   7  31
ATOM     31  C   UNL     1     -10.349  -1.936  18.345  0.00  0.00    +0.000 C 
ATOM     32  C   UNL     1     -11.109  -0.952  18.855  0.00  0.00    +0.000 C 
ATOM     33  C   UNL     1     -11.608  -0.133  17.732  0.00  0.00    +0.000 C 
ATOM     34  O   UNL     1     -12.442   0.754  17.795  0.00  0.00    +0.000 OA
ATOM     35  N   UNL     1     -11.019  -0.589  16.623  0.00  0.00    +0.000 N 
ATOM     36  C   UNL     1     -10.398  -1.758  16.878  0.00  0.00    +0.000 C 
ATOM     37  O   UNL     1     -10.004  -2.535  16.025  0.00  0.00    +0.000 OA
ATOM     38  H   UNL     1     -11.241  -0.264  15.699  0.00  0.00    +0.000 HD
BRANCH  32  39
ATOM     39  C   UNL     1     -11.371  -0.656  20.203  0.00  0.00    +0.000 A 
ATOM     40  C   UNL     1     -12.067  -1.467  21.081  0.00  0.00    +0.000 A 
ATOM     41  N   UNL     1     -11.968  -0.841  22.300  0.00  0.00    +0.000 N 
ATOM     42  C   UNL     1     -11.799   0.511  22.065  0.00  0.00    +0.000 A 
ATOM     43  C   UNL     1     -12.143   1.661  22.782  0.00  0.00    +0.000 A 
ATOM     44  C   UNL     1     -11.656   2.880  22.291  0.00  0.00    +0.000 A 
ATOM     45  C   UNL     1     -10.765   2.925  21.218  0.00  0.00    +0.000 A 
ATOM     46  C   UNL     1     -10.464   1.770  20.495  0.00  0.00    +0.000 A 
ATOM     47  C   UNL     1     -11.102   0.573  20.859  0.00  0.00    +0.000 A 
ATOM     48  H   UNL     1     -12.483  -2.462  20.987  0.00  0.00    +0.000 HD
ATOM     49  H   UNL     1     -12.811   1.623  23.635  0.00  0.00    +0.000 HD
ATOM     50  H   UNL     1     -11.964   3.810  22.762  0.00  0.00    +0.000 HD
ATOM     51  H   UNL     1     -10.337   3.873  20.902  0.00  0.00    +0.000 HD
ATOM     52  H   UNL     1      -9.806   1.812  19.632  0.00  0.00    +0.000 HD
BRANCH  41  53
ATOM     53  C   UNL     1     -11.384  -1.542  23.432  0.00  0.00    +0.000 C 
ATOM     54  H   UNL     1     -11.042  -0.816  24.168  0.00  0.00    +0.000 HD
ATOM     55  H   UNL     1     -10.573  -2.189  23.091  0.00  0.00    +0.000 HD
ATOM     56  H   UNL     1     -12.172  -2.174  23.866  0.00  0.00    +0.000 HD
ENDBRANCH  41  53
ENDBRANCH  32  39
ENDBRANCH   7  31
BRANCH   1  57
ATOM     57  C   UNL     1      -9.985  -9.277  15.936  0.00  0.00    +0.000 C 
ATOM     58  H   UNL     1     -10.942  -9.439  15.427  0.00  0.00    +0.000 HD
ATOM     59  H   UNL     1      -9.463 -10.241  15.972  0.00  0.00    +0.000 HD
ATOM     60  H   UNL     1      -9.369  -8.609  15.329  0.00  0.00    +0.000 HD
ENDBRANCH   1  57
TORSDOF 4
ENDMDL
MODEL 6
REMARK VINA RESULT:    -8.615      2.572      5.068
REMARK INTER + INTRA:         -10.473
REMARK INTER:                 -10.626
REMARK INTRA:                   0.153
REMARK UNBOUND:                -0.347
REMARK  Name = 
REMARK  4 active torsions:
REMARK  status: ('A' for Active; 'I' for Inactive)
REMARK    1  A    between atoms: C_1  and  N_2
REMARK    2  A    between atoms: C_8  and  C_9
REMARK    3  A    between atoms: C_10  and  C_11
REMARK    4  A    between atoms: N_13  and  C_14
REMARK                            x       y       z     vdW  Elec       q    Type
REMARK                         _______ _______ _______ _____ _____    ______ ____
ROOT
ATOM      1  N   UNL     1     -10.263  -8.182  17.448  0.00  0.00    +0.000 NA
ATOM      2  C   UNL     1      -8.862  -7.860  17.814  0.00  0.00    +0.000 C 
ATOM      3  C   UNL     1      -8.862  -6.365  18.056  0.00  0.00    +0.000 C 
ATOM      4  C   UNL     1      -7.804  -5.784  18.991  0.00  0.00    +0.000 C 
ATOM      5  N   UNL     1      -8.301  -4.581  19.673  0.00  0.00    +0.000 N 
ATOM      6  C   UNL     1      -9.491  -3.955  19.365  0.00  0.00    +0.000 A 
ATOM      7  C   UNL     1      -9.389  -2.661  19.839  0.00  0.00    +0.000 A 
ATOM      8  C   UNL     1      -8.256  -2.626  20.715  0.00  0.00    +0.000 A 
ATOM      9  C   UNL     1      -7.675  -1.657  21.560  0.00  0.00    +0.000 A 
ATOM     10  C   UNL     1      -6.696  -2.050  22.482  0.00  0.00    +0.000 A 
ATOM     11  C   UNL     1      -6.282  -3.377  22.563  0.00  0.00    +0.000 A 
ATOM     12  C   UNL     1      -6.747  -4.327  21.651  0.00  0.00    +0.000 A 
ATOM     13  C   UNL     1      -7.708  -3.918  20.716  0.00  0.00    +0.000 A 
ATOM     14  C   UNL     1     -10.574  -4.680  18.638  0.00  0.00    +0.000 C 
ATOM     15  C   UNL     1     -10.245  -6.159  18.650  0.00  0.00    +0.000 C 
ATOM     16  C   UNL     1     -11.119  -7.028  17.786  0.00  0.00    +0.000 C 
ATOM     17  H   UNL     1      -8.128  -8.153  17.054  0.00  0.00    +0.000 HD
ATOM     18  H   UNL     1      -8.613  -8.400  18.735  0.00  0.00    +0.000 HD
ATOM     19  H   UNL     1      -8.801  -5.848  17.085  0.00  0.00    +0.000 HD
ATOM     20  H   UNL     1      -6.926  -5.467  18.412  0.00  0.00    +0.000 HD
ATOM     21  H   UNL     1      -7.484  -6.492  19.758  0.00  0.00    +0.000 HD
ATOM     22  H   UNL     1      -8.005  -0.622  21.535  0.00  0.00    +0.000 HD
ATOM     23  H   UNL     1      -6.284  -1.315  23.167  0.00  0.00    +0.000 HD
ATOM     24  H   UNL     1      -5.584  -3.677  23.340  0.00  0.00    +0.000 HD
ATOM     25  H   UNL     1      -6.414  -5.358  21.709  0.00  0.00    +0.000 HD
ATOM     26  H   UNL     1     -10.661  -4.287  17.619  0.00  0.00    +0.000 HD
ATOM     27  H   UNL     1     -11.537  -4.545  19.134  0.00  0.00    +0.000 HD
ATOM     28  H   UNL     1     -10.265  -6.542  19.685  0.00  0.00    +0.000 HD
ATOM     29  H   UNL     1     -12.010  -7.355  18.332  0.00  0.00    +0.000 HD
ATOM     30  H   UNL     1     -11.447  -6.472  16.900  0.00  0.00    +0.000 HD
ENDROOT
BRANCH   7  31
ATOM     31  C   UNL     1     -10.325  -1.638  19.524  0.00  0.00    +0.000 C 
ATOM     32  C   UNL     1     -10.762  -0.617  20.279  0.00  0.00    +0.000 C 
ATOM     33  C   UNL     1     -11.638   0.227  19.442  0.00  0.00    +0.000 C 
ATOM     34  O   UNL     1     -12.330   1.156  19.823  0.00  0.00    +0.000 OA
ATOM     35  N   UNL     1     -11.577  -0.258  18.199  0.00  0.00    +0.000 N 
ATOM     36  C   UNL     1     -10.962  -1.457  18.202  0.00  0.00    +0.000 C 
ATOM     37  O   UNL     1     -10.989  -2.253  17.279  0.00  0.00    +0.000 OA
ATOM     38  H   UNL     1     -12.142   0.079  17.440  0.00  0.00    +0.000 HD
BRANCH  32  39
ATOM     39  C   UNL     1     -10.435  -0.309  21.611  0.00  0.00    +0.000 A 
ATOM     40  C   UNL     1      -9.564   0.688  22.011  0.00  0.00    +0.000 A 
ATOM     41  N   UNL     1      -9.649   0.706  23.383  0.00  0.00    +0.000 N 
ATOM     42  C   UNL     1     -10.023  -0.560  23.797  0.00  0.00    +0.000 A 
ATOM     43  C   UNL     1      -9.784  -1.300  24.959  0.00  0.00    +0.000 A 
ATOM     44  C   UNL     1     -10.474  -2.513  25.087  0.00  0.00    +0.000 A 
ATOM     45  C   UNL     1     -11.448  -2.894  24.162  0.00  0.00    +0.000 A 
ATOM     46  C   UNL     1     -11.643  -2.159  22.992  0.00  0.00    +0.000 A 
ATOM     47  C   UNL     1     -10.818  -1.047  22.761  0.00  0.00    +0.000 A 
ATOM     48  H   UNL     1      -9.024   1.452  21.467  0.00  0.00    +0.000 HD
ATOM     49  H   UNL     1      -9.050  -0.988  25.693  0.00  0.00    +0.000 HD
ATOM     50  H   UNL     1     -10.261  -3.165  25.930  0.00  0.00    +0.000 HD
ATOM     51  H   UNL     1     -12.027  -3.799  24.321  0.00  0.00    +0.000 HD
ATOM     52  H   UNL     1     -12.368  -2.480  22.250  0.00  0.00    +0.000 HD
BRANCH  41  53
ATOM     53  C   UNL     1     -10.036   1.927  24.071  0.00  0.00    +0.000 C 
ATOM     54  H   UNL     1     -10.962   1.753  24.619  0.00  0.00    +0.000 HD
ATOM     55  H   UNL     1     -10.135   2.744  23.353  0.00  0.00    +0.000 HD
ATOM     56  H   UNL     1      -9.227   2.177  24.772  0.00  0.00    +0.000 HD
ENDBRANCH  41  53
ENDBRANCH  32  39
ENDBRANCH   7  31
BRANCH   1  57
ATOM     57  C   UNL     1     -10.413  -8.545  16.043  0.00  0.00    +0.000 C 
ATOM     58  H   UNL     1      -9.492  -8.385  15.470  0.00  0.00    +0.000 HD
ATOM     59  H   UNL     1     -11.209  -7.964  15.562  0.00  0.00    +0.000 HD
ATOM     60  H   UNL     1     -10.701  -9.597  15.963  0.00  0.00    +0.000 HD
ENDBRANCH   1  57
TORSDOF 4
ENDMDL
MODEL 7
REMARK VINA RESULT:    -8.599      2.848      6.515
REMARK INTER + INTRA:         -10.454
REMARK INTER:                  -9.022
REMARK INTRA:                  -1.433
REMARK UNBOUND:                -0.347
REMARK  Name = 
REMARK  4 active torsions:
REMARK  status: ('A' for Active; 'I' for Inactive)
REMARK    1  A    between atoms: C_1  and  N_2
REMARK    2  A    between atoms: C_8  and  C_9
REMARK    3  A    between atoms: C_10  and  C_11
REMARK    4  A    between atoms: N_13  and  C_14
REMARK                            x       y       z     vdW  Elec       q    Type
REMARK                         _______ _______ _______ _____ _____    ______ ____
ROOT
ATOM      1  N   UNL     1     -11.655   0.709  21.584  0.00  0.00    +0.000 NA
ATOM      2  C   UNL     1     -10.860  -0.275  22.358  0.00  0.00    +0.000 C 
ATOM      3  C   UNL     1     -10.815  -1.509  21.479  0.00  0.00    +0.000 C 
ATOM      4  C   UNL     1      -9.644  -2.474  21.647  0.00  0.00    +0.000 C 
ATOM      5  N   UNL     1      -9.332  -3.154  20.383  0.00  0.00    +0.000 N 
ATOM      6  C   UNL     1     -10.112  -3.073  19.249  0.00  0.00    +0.000 A 
ATOM      7  C   UNL     1      -9.792  -4.170  18.472  0.00  0.00    +0.000 A 
ATOM      8  C   UNL     1      -8.583  -4.722  19.008  0.00  0.00    +0.000 A 
ATOM      9  C   UNL     1      -7.711  -5.767  18.636  0.00  0.00    +0.000 A 
ATOM     10  C   UNL     1      -6.463  -5.872  19.264  0.00  0.00    +0.000 A 
ATOM     11  C   UNL     1      -6.083  -4.972  20.255  0.00  0.00    +0.000 A 
ATOM     12  C   UNL     1      -6.978  -4.011  20.729  0.00  0.00    +0.000 A 
ATOM     13  C   UNL     1      -8.234  -3.930  20.112  0.00  0.00    +0.000 A 
ATOM     14  C   UNL     1     -11.081  -1.954  19.063  0.00  0.00    +0.000 C 
ATOM     15  C   UNL     1     -10.777  -0.886  20.094  0.00  0.00    +0.000 C 
ATOM     16  C   UNL     1     -11.783   0.229  20.194  0.00  0.00    +0.000 C 
ATOM     17  H   UNL     1     -11.271  -0.493  23.350  0.00  0.00    +0.000 HD
ATOM     18  H   UNL     1      -9.853   0.132  22.502  0.00  0.00    +0.000 HD
ATOM     19  H   UNL     1     -11.757  -2.067  21.603  0.00  0.00    +0.000 HD
ATOM     20  H   UNL     1      -9.910  -3.263  22.363  0.00  0.00    +0.000 HD
ATOM     21  H   UNL     1      -8.734  -1.978  21.991  0.00  0.00    +0.000 HD
ATOM     22  H   UNL     1      -7.976  -6.462  17.844  0.00  0.00    +0.000 HD
ATOM     23  H   UNL     1      -5.770  -6.646  18.944  0.00  0.00    +0.000 HD
ATOM     24  H   UNL     1      -5.079  -5.020  20.669  0.00  0.00    +0.000 HD
ATOM     25  H   UNL     1      -6.684  -3.318  21.509  0.00  0.00    +0.000 HD
ATOM     26  H   UNL     1     -12.105  -2.334  19.156  0.00  0.00    +0.000 HD
ATOM     27  H   UNL     1     -10.977  -1.506  18.073  0.00  0.00    +0.000 HD
ATOM     28  H   UNL     1      -9.778  -0.457  19.908  0.00  0.00    +0.000 HD
ATOM     29  H   UNL     1     -11.551   1.032  19.486  0.00  0.00    +0.000 HD
ATOM     30  H   UNL     1     -12.787  -0.146  19.967  0.00  0.00    +0.000 HD
ENDROOT
BRANCH   7  31
ATOM     31  C   UNL     1     -10.538  -4.558  17.325  0.00  0.00    +0.000 C 
ATOM     32  C   UNL     1     -10.847  -3.851  16.225  0.00  0.00    +0.000 C 
ATOM     33  C   UNL     1     -11.534  -4.753  15.281  0.00  0.00    +0.000 C 
ATOM     34  O   UNL     1     -12.089  -4.432  14.243  0.00  0.00    +0.000 OA
ATOM     35  N   UNL     1     -11.486  -5.981  15.807  0.00  0.00    +0.000 N 
ATOM     36  C   UNL     1     -11.069  -5.918  17.086  0.00  0.00    +0.000 C 
ATOM     37  O   UNL     1     -11.174  -6.823  17.896  0.00  0.00    +0.000 OA
ATOM     38  H   UNL     1     -11.951  -6.777  15.408  0.00  0.00    +0.000 HD
BRANCH  32  39
ATOM     39  C   UNL     1     -10.543  -2.511  15.932  0.00  0.00    +0.000 A 
ATOM     40  C   UNL     1      -9.270  -1.978  15.846  0.00  0.00    +0.000 A 
ATOM     41  N   UNL     1      -9.453  -0.683  15.420  0.00  0.00    +0.000 N 
ATOM     42  C   UNL     1     -10.710  -0.280  15.833  0.00  0.00    +0.000 A 
ATOM     43  C   UNL     1     -11.257   0.961  16.174  0.00  0.00    +0.000 A 
ATOM     44  C   UNL     1     -12.640   1.001  16.394  0.00  0.00    +0.000 A 
ATOM     45  C   UNL     1     -13.446  -0.113  16.154  0.00  0.00    +0.000 A 
ATOM     46  C   UNL     1     -12.875  -1.349  15.849  0.00  0.00    +0.000 A 
ATOM     47  C   UNL     1     -11.475  -1.446  15.819  0.00  0.00    +0.000 A 
ATOM     48  H   UNL     1      -8.284  -2.420  15.904  0.00  0.00    +0.000 HD
ATOM     49  H   UNL     1     -10.635   1.834  16.331  0.00  0.00    +0.000 HD
ATOM     50  H   UNL     1     -13.101   1.922  16.744  0.00  0.00    +0.000 HD
ATOM     51  H   UNL     1     -14.525  -0.039  16.254  0.00  0.00    +0.000 HD
ATOM     52  H   UNL     1     -13.499  -2.228  15.707  0.00  0.00    +0.000 HD
BRANCH  41  53
ATOM     53  C   UNL     1      -8.821  -0.225  14.194  0.00  0.00    +0.000 C 
ATOM     54  H   UNL     1      -7.852   0.212  14.430  0.00  0.00    +0.000 HD
ATOM     55  H   UNL     1      -9.474   0.484  13.680  0.00  0.00    +0.000 HD
ATOM     56  H   UNL     1      -8.688  -1.104  13.547  0.00  0.00    +0.000 HD
ENDBRANCH  41  53
ENDBRANCH  32  39
ENDBRANCH   7  31
BRANCH   1  57
ATOM     57  C   UNL     1     -12.968   0.962  22.168  0.00  0.00    +0.000 C 
ATOM     58  H   UNL     1     -13.585   1.617  21.542  0.00  0.00    +0.000 HD
ATOM     59  H   UNL     1     -12.882   1.432  23.156  0.00  0.00    +0.000 HD
ATOM     60  H   UNL     1     -13.494   0.015  22.316  0.00  0.00    +0.000 HD
ENDBRANCH   1  57
TORSDOF 4
ENDMDL
MODEL 8
REMARK VINA RESULT:    -8.518      5.161      8.747
REMARK INTER + INTRA:         -10.359
REMARK INTER:                  -9.236
REMARK INTRA:                  -1.123
REMARK UNBOUND:                -0.347
REMARK  Name = 
REMARK  4 active torsions:
REMARK  status: ('A' for Active; 'I' for Inactive)
REMARK    1  A    between atoms: C_1  and  N_2
REMARK    2  A    between atoms: C_8  and  C_9
REMARK    3  A    between atoms: C_10  and  C_11
REMARK    4  A    between atoms: N_13  and  C_14
REMARK                            x       y       z     vdW  Elec       q    Type
REMARK                         _______ _______ _______ _____ _____    ______ ____
ROOT
ATOM      1  N   UNL     1     -15.393   5.758  24.075  0.00  0.00    +0.000 NA
ATOM      2  C   UNL     1     -14.608   5.312  25.252  0.00  0.00    +0.000 C 
ATOM      3  C   UNL     1     -13.706   4.218  24.719  0.00  0.00    +0.000 C 
ATOM      4  C   UNL     1     -12.394   3.944  25.449  0.00  0.00    +0.000 C 
ATOM      5  N   UNL     1     -11.366   3.447  24.524  0.00  0.00    +0.000 N 
ATOM      6  C   UNL     1     -11.611   3.096  23.214  0.00  0.00    +0.000 A 
ATOM      7  C   UNL     1     -10.581   2.258  22.831  0.00  0.00    +0.000 A 
ATOM      8  C   UNL     1      -9.555   2.379  23.825  0.00  0.00    +0.000 A 
ATOM      9  C   UNL     1      -8.248   1.869  23.979  0.00  0.00    +0.000 A 
ATOM     10  C   UNL     1      -7.418   2.404  24.974  0.00  0.00    +0.000 A 
ATOM     11  C   UNL     1      -7.871   3.416  25.815  0.00  0.00    +0.000 A 
ATOM     12  C   UNL     1      -9.199   3.845  25.767  0.00  0.00    +0.000 A 
ATOM     13  C   UNL     1     -10.029   3.286  24.784  0.00  0.00    +0.000 A 
ATOM     14  C   UNL     1     -12.818   3.601  22.497  0.00  0.00    +0.000 C 
ATOM     15  C   UNL     1     -13.421   4.725  23.316  0.00  0.00    +0.000 C 
ATOM     16  C   UNL     1     -14.764   5.220  22.853  0.00  0.00    +0.000 C 
ATOM     17  H   UNL     1     -15.226   4.964  26.088  0.00  0.00    +0.000 HD
ATOM     18  H   UNL     1     -14.015   6.159  25.613  0.00  0.00    +0.000 HD
ATOM     19  H   UNL     1     -14.282   3.280  24.659  0.00  0.00    +0.000 HD
ATOM     20  H   UNL     1     -12.540   3.154  26.198  0.00  0.00    +0.000 HD
ATOM     21  H   UNL     1     -11.993   4.831  25.945  0.00  0.00    +0.000 HD
ATOM     22  H   UNL     1      -7.865   1.101  23.314  0.00  0.00    +0.000 HD
ATOM     23  H   UNL     1      -6.395   2.048  25.062  0.00  0.00    +0.000 HD
ATOM     24  H   UNL     1      -7.185   3.875  26.523  0.00  0.00    +0.000 HD
ATOM     25  H   UNL     1      -9.553   4.626  26.431  0.00  0.00    +0.000 HD
ATOM     26  H   UNL     1     -13.527   2.779  22.344  0.00  0.00    +0.000 HD
ATOM     27  H   UNL     1     -12.553   4.003  21.517  0.00  0.00    +0.000 HD
ATOM     28  H   UNL     1     -12.718   5.574  23.364  0.00  0.00    +0.000 HD
ATOM     29  H   UNL     1     -14.655   6.006  22.097  0.00  0.00    +0.000 HD
ATOM     30  H   UNL     1     -15.339   4.398  22.410  0.00  0.00    +0.000 HD
ENDROOT
BRANCH   7  31
ATOM     31  C   UNL     1     -10.589   1.512  21.621  0.00  0.00    +0.000 C 
ATOM     32  C   UNL     1     -10.544   0.182  21.436  0.00  0.00    +0.000 C 
ATOM     33  C   UNL     1     -10.701  -0.083  19.992  0.00  0.00    +0.000 C 
ATOM     34  O   UNL     1     -10.564  -1.157  19.432  0.00  0.00    +0.000 OA
ATOM     35  N   UNL     1     -10.961   1.089  19.405  0.00  0.00    +0.000 N 
ATOM     36  C   UNL     1     -10.740   2.097  20.271  0.00  0.00    +0.000 C 
ATOM     37  O   UNL     1     -10.637   3.271  19.959  0.00  0.00    +0.000 OA
ATOM     38  H   UNL     1     -11.031   1.211  18.410  0.00  0.00    +0.000 HD
BRANCH  32  39
ATOM     39  C   UNL     1     -10.436  -0.834  22.400  0.00  0.00    +0.000 A 
ATOM     40  C   UNL     1     -11.211  -0.942  23.540  0.00  0.00    +0.000 A 
ATOM     41  N   UNL     1     -10.844  -2.139  24.109  0.00  0.00    +0.000 N 
ATOM     42  C   UNL     1      -9.544  -2.405  23.722  0.00  0.00    +0.000 A 
ATOM     43  C   UNL     1      -8.489  -3.103  24.318  0.00  0.00    +0.000 A 
ATOM     44  C   UNL     1      -7.343  -3.301  23.536  0.00  0.00    +0.000 A 
ATOM     45  C   UNL     1      -7.312  -2.935  22.189  0.00  0.00    +0.000 A 
ATOM     46  C   UNL     1      -8.362  -2.208  21.626  0.00  0.00    +0.000 A 
ATOM     47  C   UNL     1      -9.430  -1.834  22.455  0.00  0.00    +0.000 A 
ATOM     48  H   UNL     1     -12.057  -0.376  23.908  0.00  0.00    +0.000 HD
ATOM     49  H   UNL     1      -8.525  -3.414  25.355  0.00  0.00    +0.000 HD
ATOM     50  H   UNL     1      -6.464  -3.763  23.979  0.00  0.00    +0.000 HD
ATOM     51  H   UNL     1      -6.443  -3.169  21.579  0.00  0.00    +0.000 HD
ATOM     52  H   UNL     1      -8.318  -1.884  20.590  0.00  0.00    +0.000 HD
BRANCH  41  53
ATOM     53  C   UNL     1     -11.843  -3.167  24.345  0.00  0.00    +0.000 C 
ATOM     54  H   UNL     1     -12.830  -2.707  24.396  0.00  0.00    +0.000 HD
ATOM     55  H   UNL     1     -11.603  -3.718  25.257  0.00  0.00    +0.000 HD
ATOM     56  H   UNL     1     -11.799  -3.866  23.497  0.00  0.00    +0.000 HD
ENDBRANCH  41  53
ENDBRANCH  32  39
ENDBRANCH   7  31
BRANCH   1  57
ATOM     57  C   UNL     1     -16.798   5.371  24.150  0.00  0.00    +0.000 C 
ATOM     58  H   UNL     1     -17.220   5.140  23.165  0.00  0.00    +0.000 HD
ATOM     59  H   UNL     1     -17.409   6.167  24.594  0.00  0.00    +0.000 HD
ATOM     60  H   UNL     1     -16.905   4.496  24.796  0.00  0.00    +0.000 HD
ENDBRANCH   1  57
TORSDOF 4
ENDMDL
MODEL 9
REMARK VINA RESULT:    -8.453      5.004      8.186
REMARK INTER + INTRA:         -10.282
REMARK INTER:                  -8.184
REMARK INTRA:                  -2.098
REMARK UNBOUND:                -0.347
REMARK  Name = 
REMARK  4 active torsions:
REMARK  status: ('A' for Active; 'I' for Inactive)
REMARK    1  A    between atoms: C_1  and  N_2
REMARK    2  A    between atoms: C_8  and  C_9
REMARK    3  A    between atoms: C_10  and  C_11
REMARK    4  A    between atoms: N_13  and  C_14
REMARK                            x       y       z     vdW  Elec       q    Type
REMARK                         _______ _______ _______ _____ _____    ______ ____
ROOT
ATOM      1  N   UNL     1      -8.005  -2.623  23.724  0.00  0.00    +0.000 NA
ATOM      2  C   UNL     1      -8.191  -2.927  22.284  0.00  0.00    +0.000 C 
ATOM      3  C   UNL     1      -9.214  -1.916  21.808  0.00  0.00    +0.000 C 
ATOM      4  C   UNL     1      -9.217  -1.532  20.330  0.00  0.00    +0.000 C 
ATOM      5  N   UNL     1      -9.686  -0.152  20.142  0.00  0.00    +0.000 N 
ATOM      6  C   UNL     1     -10.230   0.622  21.145  0.00  0.00    +0.000 A 
ATOM      7  C   UNL     1     -10.965   1.613  20.522  0.00  0.00    +0.000 A 
ATOM      8  C   UNL     1     -10.584   1.608  19.140  0.00  0.00    +0.000 A 
ATOM      9  C   UNL     1     -10.893   2.403  18.016  0.00  0.00    +0.000 A 
ATOM     10  C   UNL     1     -10.131   2.262  16.848  0.00  0.00    +0.000 A 
ATOM     11  C   UNL     1      -9.090   1.341  16.781  0.00  0.00    +0.000 A 
ATOM     12  C   UNL     1      -8.850   0.455  17.833  0.00  0.00    +0.000 A 
ATOM     13  C   UNL     1      -9.634   0.588  18.988  0.00  0.00    +0.000 A 
ATOM     14  C   UNL     1      -9.984   0.301  22.581  0.00  0.00    +0.000 C 
ATOM     15  C   UNL     1      -8.856  -0.708  22.655  0.00  0.00    +0.000 C 
ATOM     16  C   UNL     1      -8.605  -1.306  24.013  0.00  0.00    +0.000 C 
ATOM     17  H   UNL     1      -8.510  -3.957  22.088  0.00  0.00    +0.000 HD
ATOM     18  H   UNL     1      -7.234  -2.776  21.773  0.00  0.00    +0.000 HD
ATOM     19  H   UNL     1     -10.220  -2.271  22.084  0.00  0.00    +0.000 HD
ATOM     20  H   UNL     1      -9.919  -2.173  19.779  0.00  0.00    +0.000 HD
ATOM     21  H   UNL     1      -8.230  -1.612  19.871  0.00  0.00    +0.000 HD
ATOM     22  H   UNL     1     -11.681   3.149  18.057  0.00  0.00    +0.000 HD
ATOM     23  H   UNL     1     -10.334   2.908  15.999  0.00  0.00    +0.000 HD
ATOM     24  H   UNL     1      -8.458   1.306  15.897  0.00  0.00    +0.000 HD
ATOM     25  H   UNL     1      -8.046  -0.270  17.774  0.00  0.00    +0.000 HD
ATOM     26  H   UNL     1     -10.906  -0.080  23.036  0.00  0.00    +0.000 HD
ATOM     27  H   UNL     1      -9.677   1.191  23.134  0.00  0.00    +0.000 HD
ATOM     28  H   UNL     1      -7.921  -0.256  22.281  0.00  0.00    +0.000 HD
ATOM     29  H   UNL     1      -7.914  -0.686  24.595  0.00  0.00    +0.000 HD
ATOM     30  H   UNL     1      -9.546  -1.384  24.571  0.00  0.00    +0.000 HD
ENDROOT
BRANCH   7  31
ATOM     31  C   UNL     1     -11.853   2.480  21.216  0.00  0.00    +0.000 C 
ATOM     32  C   UNL     1     -11.577   3.494  22.053  0.00  0.00    +0.000 C 
ATOM     33  C   UNL     1     -12.851   4.150  22.409  0.00  0.00    +0.000 C 
ATOM     34  O   UNL     1     -13.013   5.011  23.257  0.00  0.00    +0.000 OA
ATOM     35  N   UNL     1     -13.806   3.579  21.668  0.00  0.00    +0.000 N 
ATOM     36  C   UNL     1     -13.324   2.472  21.070  0.00  0.00    +0.000 C 
ATOM     37  O   UNL     1     -14.011   1.608  20.553  0.00  0.00    +0.000 OA
ATOM     38  H   UNL     1     -14.785   3.780  21.769  0.00  0.00    +0.000 HD
BRANCH  32  39
ATOM     39  C   UNL     1     -10.324   3.947  22.499  0.00  0.00    +0.000 A 
ATOM     40  C   UNL     1      -9.427   4.686  21.750  0.00  0.00    +0.000 A 
ATOM     41  N   UNL     1      -8.412   5.005  22.622  0.00  0.00    +0.000 N 
ATOM     42  C   UNL     1      -8.375   4.025  23.597  0.00  0.00    +0.000 A 
ATOM     43  C   UNL     1      -7.351   3.497  24.388  0.00  0.00    +0.000 A 
ATOM     44  C   UNL     1      -7.731   2.606  25.401  0.00  0.00    +0.000 A 
ATOM     45  C   UNL     1      -9.076   2.365  25.687  0.00  0.00    +0.000 A 
ATOM     46  C   UNL     1     -10.080   2.875  24.861  0.00  0.00    +0.000 A 
ATOM     47  C   UNL     1      -9.699   3.608  23.727  0.00  0.00    +0.000 A 
ATOM     48  H   UNL     1      -9.481   5.122  20.761  0.00  0.00    +0.000 HD
ATOM     49  H   UNL     1      -6.307   3.708  24.186  0.00  0.00    +0.000 HD
ATOM     50  H   UNL     1      -6.968   2.103  25.989  0.00  0.00    +0.000 HD
ATOM     51  H   UNL     1      -9.352   1.733  26.527  0.00  0.00    +0.000 HD
ATOM     52  H   UNL     1     -11.125   2.650  25.056  0.00  0.00    +0.000 HD
BRANCH  41  53
ATOM     53  C   UNL     1      -8.072   6.397  22.863  0.00  0.00    +0.000 C 
ATOM     54  H   UNL     1      -7.516   6.475  23.797  0.00  0.00    +0.000 HD
ATOM     55  H   UNL     1      -8.978   7.006  22.875  0.00  0.00    +0.000 HD
ATOM     56  H   UNL     1      -7.443   6.729  22.024  0.00  0.00    +0.000 HD
ENDBRANCH  41  53
ENDBRANCH  32  39
ENDBRANCH   7  31
BRANCH   1  57
ATOM     57  C   UNL     1      -8.562  -3.651  24.597  0.00  0.00    +0.000 C 
ATOM     58  H   UNL     1      -7.811  -4.384  24.912  0.00  0.00    +0.000 HD
ATOM     59  H   UNL     1      -9.373  -4.199  24.102  0.00  0.00    +0.000 HD
ATOM     60  H   UNL     1      -8.997  -3.184  25.485  0.00  0.00    +0.000 HD
ENDBRANCH   1  57
TORSDOF 4
ENDMDL
