MODEL 1
REMARK VINA RESULT:   -10.971      0.000      0.000
REMARK INTER + INTRA:         -15.222
REMARK INTER:                 -14.820
REMARK INTRA:                  -0.402
REMARK UNBOUND:                -0.402
REMARK  Name = 
REMARK  6 active torsions:
REMARK  status: ('A' for Active; 'I' for Inactive)
REMARK    1  A    between atoms: C_2  and  C_3
REMARK    2  A    between atoms: C_10  and  N_11
REMARK    3  A    between atoms: N_11  and  C_12
REMARK    4  A    between atoms: C_12  and  C_13
REMARK    5  A    between atoms: C_20  and  N_21
REMARK    6  A    between atoms: N_21  and  C_22
REMARK                            x       y       z     vdW  Elec       q    Type
REMARK                         _______ _______ _______ _____ _____    ______ ____
ROOT
ATOM      1  C   UNL     1     -10.222  -5.561  17.948  0.00  0.00    +0.000 A 
ATOM      2  C   UNL     1     -10.897  -5.848  16.775  0.00  0.00    +0.000 A 
ATOM      3  N   UNL     1     -10.929  -7.065  16.199  0.00  0.00    +0.000 NA
ATOM      4  C   UNL     1     -10.267  -8.078  16.786  0.00  0.00    +0.000 A 
ATOM      5  C   UNL     1     -10.271  -9.331  16.177  0.00  0.00    +0.000 A 
ATOM      6  F   UNL     1     -10.956  -9.514  15.034  0.00  0.00    +0.000 F 
ATOM      7  C   UNL     1      -9.588 -10.426  16.698  0.00  0.00    +0.000 A 
ATOM      8  C   UNL     1      -8.895 -10.318  17.895  0.00  0.00    +0.000 A 
ATOM      9  C   UNL     1      -8.884  -9.064  18.520  0.00  0.00    +0.000 A 
ATOM     10  C   UNL     1      -9.551  -7.917  17.993  0.00  0.00    +0.000 A 
ATOM     11  C   UNL     1      -9.539  -6.608  18.596  0.00  0.00    +0.000 A 
ATOM     12  H   UNL     1     -11.462  -5.086  16.242  0.00  0.00    +0.000 HD
ATOM     13  H   UNL     1      -9.636 -11.373  16.166  0.00  0.00    +0.000 HD
ATOM     14  H   UNL     1      -8.313  -8.965  19.435  0.00  0.00    +0.000 HD
ENDROOT
BRANCH   1  16
ATOM     15  N   UNL     1     -10.313  -3.118  18.805  0.00  0.00    +0.000 NA
ATOM     16  C   UNL     1     -10.309  -4.215  18.433  0.00  0.00    +0.000 C 
ENDBRANCH   1  16
BRANCH   8  17
ATOM     17  N   UNL     1      -8.215 -11.440  18.363  0.00  0.00    +0.000 N 
ATOM     18  H   UNL     1      -7.727 -11.240  19.232  0.00  0.00    +0.000 HD
BRANCH  17  19
ATOM     19  C   UNL     1      -8.856 -12.760  18.395  0.00  0.00    +0.000 C 
ATOM     20  H   UNL     1      -9.916 -12.587  18.617  0.00  0.00    +0.000 HD
ATOM     21  H   UNL     1      -8.474 -13.332  19.250  0.00  0.00    +0.000 HD
BRANCH  19  22
ATOM     22  C   UNL     1      -8.807 -13.615  17.160  0.00  0.00    +0.000 A 
ATOM     23  C   UNL     1      -9.105 -14.955  17.010  0.00  0.00    +0.000 A 
ATOM     24  N   UNL     1      -8.842 -15.241  15.699  0.00  0.00    +0.000 N 
ATOM     25  C   UNL     1      -8.408 -14.091  15.104  0.00  0.00    +0.000 A 
ATOM     26  N   UNL     1      -8.396 -13.088  15.950  0.00  0.00    +0.000 NA
ATOM     27  H   UNL     1      -9.450 -15.709  17.705  0.00  0.00    +0.000 HD
ATOM     28  H   UNL     1      -8.934 -16.141  15.247  0.00  0.00    +0.000 HD
ATOM     29  H   UNL     1      -8.113 -14.049  14.063  0.00  0.00    +0.000 HD
ENDBRANCH  19  22
ENDBRANCH  17  19
ENDBRANCH   8  17
BRANCH  11  30
ATOM     30  N   UNL     1      -8.890  -6.413  19.851  0.00  0.00    +0.000 N 
ATOM     31  H   UNL     1      -9.032  -7.174  20.511  0.00  0.00    +0.000 HD
BRANCH  30  32
ATOM     32  C   UNL     1      -7.667  -5.778  20.165  0.00  0.00    +0.000 A 
ATOM     33  C   UNL     1      -6.496  -6.250  19.548  0.00  0.00    +0.000 A 
ATOM     34  C   UNL     1      -5.267  -5.628  19.765  0.00  0.00    +0.000 A 
ATOM     35  C   UNL     1      -5.205  -4.517  20.600  0.00  0.00    +0.000 A 
ATOM     36  F   UNL     1      -4.024  -3.911  20.781  0.00  0.00    +0.000 F 
ATOM     37  C   UNL     1      -6.355  -4.035  21.220  0.00  0.00    +0.000 A 
ATOM     38 CL   UNL     1      -6.285  -2.642  22.234  0.00  0.00    +0.000 Cl
ATOM     39  C   UNL     1      -7.586  -4.657  21.000  0.00  0.00    +0.000 A 
ATOM     40  H   UNL     1      -6.541  -7.123  18.897  0.00  0.00    +0.000 HD
ATOM     41  H   UNL     1      -4.363  -5.994  19.289  0.00  0.00    +0.000 HD
ATOM     42  H   UNL     1      -8.481  -4.252  21.467  0.00  0.00    +0.000 HD
ENDBRANCH  30  32
ENDBRANCH  11  30
TORSDOF 6
ENDMDL
MODEL 2
REMARK VINA RESULT:    -9.941      4.082      8.228
REMARK INTER + INTRA:         -13.831
REMARK INTER:                 -12.840
REMARK INTRA:                  -0.991
REMARK UNBOUND:                -0.402
REMARK  Name = 
REMARK  6 active torsions:
REMARK  status: ('A' for Active; 'I' for Inactive)
REMARK    1  A    between atoms: C_2  and  C_3
REMARK    2  A    between atoms: C_10  and  N_11
REMARK    3  A    between atoms: N_11  and  C_12
REMARK    4  A    between atoms: C_12  and  C_13
REMARK    5  A    between atoms: C_20  and  N_21
REMARK    6  A    between atoms: N_21  and  C_22
REMARK                            x       y       z     vdW  Elec       q    Type
REMARK                         _______ _______ _______ _____ _____    ______ ____
ROOT
ATOM      1  C   UNL     1      -9.196  -7.547  19.204  0.00  0.00    +0.000 A 
ATOM      2  C   UNL     1      -8.778  -6.328  19.706  0.00  0.00    +0.000 A 
ATOM      3  N   UNL     1      -9.028  -5.141  19.121  0.00  0.00    +0.000 NA
ATOM      4  C   UNL     1      -9.727  -5.121  17.972  0.00  0.00    +0.000 A 
ATOM      5  C   UNL     1      -9.962  -3.899  17.346  0.00  0.00    +0.000 A 
ATOM      6  F   UNL     1      -9.514  -2.764  17.910  0.00  0.00    +0.000 F 
ATOM      7  C   UNL     1     -10.648  -3.788  16.140  0.00  0.00    +0.000 A 
ATOM      8  C   UNL     1     -11.173  -4.914  15.523  0.00  0.00    +0.000 A 
ATOM      9  C   UNL     1     -10.946  -6.150  16.143  0.00  0.00    +0.000 A 
ATOM     10  C   UNL     1     -10.222  -6.296  17.364  0.00  0.00    +0.000 A 
ATOM     11  C   UNL     1      -9.948  -7.553  18.014  0.00  0.00    +0.000 A 
ATOM     12  H   UNL     1      -8.213  -6.257  20.635  0.00  0.00    +0.000 HD
ATOM     13  H   UNL     1     -10.792  -2.800  15.709  0.00  0.00    +0.000 HD
ATOM     14  H   UNL     1     -11.321  -7.037  15.646  0.00  0.00    +0.000 HD
ENDROOT
BRANCH   1  16
ATOM     15  N   UNL     1      -8.541  -9.615  20.622  0.00  0.00    +0.000 NA
ATOM     16  C   UNL     1      -8.858  -8.712  19.967  0.00  0.00    +0.000 C 
ENDBRANCH   1  16
BRANCH   8  17
ATOM     17  N   UNL     1     -11.837  -4.749  14.309  0.00  0.00    +0.000 N 
ATOM     18  H   UNL     1     -12.697  -5.290  14.283  0.00  0.00    +0.000 HD
BRANCH  17  19
ATOM     19  C   UNL     1     -12.015  -3.419  13.714  0.00  0.00    +0.000 C 
ATOM     20  H   UNL     1     -11.510  -2.709  14.381  0.00  0.00    +0.000 HD
ATOM     21  H   UNL     1     -13.076  -3.141  13.749  0.00  0.00    +0.000 HD
BRANCH  19  22
ATOM     22  C   UNL     1     -11.478  -3.170  12.334  0.00  0.00    +0.000 A 
ATOM     23  C   UNL     1     -10.342  -2.486  11.945  0.00  0.00    +0.000 A 
ATOM     24  N   UNL     1     -10.353  -2.511  10.578  0.00  0.00    +0.000 N 
ATOM     25  C   UNL     1     -11.466  -3.199  10.186  0.00  0.00    +0.000 A 
ATOM     26  N   UNL     1     -12.153  -3.628  11.217  0.00  0.00    +0.000 NA
ATOM     27  H   UNL     1      -9.565  -1.983  12.505  0.00  0.00    +0.000 HD
ATOM     28  H   UNL     1      -9.673  -2.087   9.961  0.00  0.00    +0.000 HD
ATOM     29  H   UNL     1     -11.721  -3.348   9.144  0.00  0.00    +0.000 HD
ENDBRANCH  19  22
ENDBRANCH  17  19
ENDBRANCH   8  17
BRANCH  11  30
ATOM     30  N   UNL     1     -10.487  -8.760  17.477  0.00  0.00    +0.000 N 
ATOM     31  H   UNL     1     -11.447  -8.673  17.150  0.00  0.00    +0.000 HD
BRANCH  30  32
ATOM     32  C   UNL     1      -9.866  -9.801  16.751  0.00  0.00    +0.000 A 
ATOM     33  C   UNL     1      -9.488  -9.549  15.421  0.00  0.00    +0.000 A 
ATOM     34  C   UNL     1      -8.814 -10.511  14.669  0.00  0.00    +0.000 A 
ATOM     35  C   UNL     1      -8.505 -11.736  15.253  0.00  0.00    +0.000 A 
ATOM     36  F   UNL     1      -7.834 -12.644  14.531  0.00  0.00    +0.000 F 
ATOM     37  C   UNL     1      -8.871 -12.003  16.570  0.00  0.00    +0.000 A 
ATOM     38 CL   UNL     1      -8.464 -13.510  17.303  0.00  0.00    +0.000 Cl
ATOM     39  C   UNL     1      -9.543 -11.038  17.323  0.00  0.00    +0.000 A 
ATOM     40  H   UNL     1      -9.733  -8.593  14.959  0.00  0.00    +0.000 HD
ATOM     41  H   UNL     1      -8.525 -10.317  13.642  0.00  0.00    +0.000 HD
ATOM     42  H   UNL     1      -9.796 -11.249  18.359  0.00  0.00    +0.000 HD
ENDBRANCH  30  32
ENDBRANCH  11  30
TORSDOF 6
ENDMDL
MODEL 3
REMARK VINA RESULT:    -9.898      2.306      5.962
REMARK INTER + INTRA:         -13.772
REMARK INTER:                 -12.499
REMARK INTRA:                  -1.273
REMARK UNBOUND:                -0.402
REMARK  Name = 
REMARK  6 active torsions:
REMARK  status: ('A' for Active; 'I' for Inactive)
REMARK    1  A    between atoms: C_2  and  C_3
REMARK    2  A    between atoms: C_10  and  N_11
REMARK    3  A    between atoms: N_11  and  C_12
REMARK    4  A    between atoms: C_12  and  C_13
REMARK    5  A    between atoms: C_20  and  N_21
REMARK    6  A    between atoms: N_21  and  C_22
REMARK                            x       y       z     vdW  Elec       q    Type
REMARK                         _______ _______ _______ _____ _____    ______ ____
ROOT
ATOM      1  C   UNL     1      -8.826  -9.221  19.480  0.00  0.00    +0.000 A 
ATOM      2  C   UNL     1      -8.866 -10.272  18.582  0.00  0.00    +0.000 A 
ATOM      3  N   UNL     1      -8.938 -10.125  17.246  0.00  0.00    +0.000 NA
ATOM      4  C   UNL     1      -8.977  -8.882  16.733  0.00  0.00    +0.000 A 
ATOM      5  C   UNL     1      -9.082  -8.724  15.352  0.00  0.00    +0.000 A 
ATOM      6  F   UNL     1      -9.116  -9.808  14.558  0.00  0.00    +0.000 F 
ATOM      7  C   UNL     1      -9.159  -7.477  14.739  0.00  0.00    +0.000 A 
ATOM      8  C   UNL     1      -9.089  -6.316  15.495  0.00  0.00    +0.000 A 
ATOM      9  C   UNL     1      -8.980  -6.460  16.884  0.00  0.00    +0.000 A 
ATOM     10  C   UNL     1      -8.928  -7.725  17.542  0.00  0.00    +0.000 A 
ATOM     11  C   UNL     1      -8.843  -7.910  18.969  0.00  0.00    +0.000 A 
ATOM     12  H   UNL     1      -8.833 -11.308  18.916  0.00  0.00    +0.000 HD
ATOM     13  H   UNL     1      -9.242  -7.431  13.656  0.00  0.00    +0.000 HD
ATOM     14  H   UNL     1      -8.963  -5.556  17.482  0.00  0.00    +0.000 HD
ENDROOT
BRANCH   1  16
ATOM     15  N   UNL     1      -8.618  -9.890  21.974  0.00  0.00    +0.000 NA
ATOM     16  C   UNL     1      -8.731  -9.559  20.869  0.00  0.00    +0.000 C 
ENDBRANCH   1  16
BRANCH   8  17
ATOM     17  N   UNL     1      -9.187  -5.094  14.832  0.00  0.00    +0.000 N 
ATOM     18  H   UNL     1      -8.687  -5.114  13.947  0.00  0.00    +0.000 HD
BRANCH  17  19
ATOM     19  C   UNL     1     -10.471  -4.394  14.712  0.00  0.00    +0.000 C 
ATOM     20  H   UNL     1     -11.226  -5.162  14.498  0.00  0.00    +0.000 HD
ATOM     21  H   UNL     1     -10.456  -3.751  13.823  0.00  0.00    +0.000 HD
BRANCH  19  22
ATOM     22  C   UNL     1     -10.977  -3.609  15.889  0.00  0.00    +0.000 A 
ATOM     23  C   UNL     1     -10.714  -2.301  16.248  0.00  0.00    +0.000 A 
ATOM     24  N   UNL     1     -11.380  -2.108  17.427  0.00  0.00    +0.000 N 
ATOM     25  C   UNL     1     -12.016  -3.275  17.739  0.00  0.00    +0.000 A 
ATOM     26  N   UNL     1     -11.813  -4.192  16.823  0.00  0.00    +0.000 NA
ATOM     27  H   UNL     1     -10.115  -1.525  15.792  0.00  0.00    +0.000 HD
ATOM     28  H   UNL     1     -11.391  -1.263  17.981  0.00  0.00    +0.000 HD
ATOM     29  H   UNL     1     -12.604  -3.395  18.640  0.00  0.00    +0.000 HD
ENDBRANCH  19  22
ENDBRANCH  17  19
ENDBRANCH   8  17
BRANCH  11  30
ATOM     30  N   UNL     1      -8.720  -6.773  19.823  0.00  0.00    +0.000 N 
ATOM     31  H   UNL     1      -9.341  -6.793  20.629  0.00  0.00    +0.000 HD
BRANCH  30  32
ATOM     32  C   UNL     1      -7.591  -5.990  20.155  0.00  0.00    +0.000 A 
ATOM     33  C   UNL     1      -6.348  -6.352  19.608  0.00  0.00    +0.000 A 
ATOM     34  C   UNL     1      -5.207  -5.586  19.844  0.00  0.00    +0.000 A 
ATOM     35  C   UNL     1      -5.308  -4.440  20.627  0.00  0.00    +0.000 A 
ATOM     36  F   UNL     1      -4.211  -3.696  20.826  0.00  0.00    +0.000 F 
ATOM     37  C   UNL     1      -6.531  -4.065  21.177  0.00  0.00    +0.000 A 
ATOM     38 CL   UNL     1      -6.663  -2.631  22.125  0.00  0.00    +0.000 Cl
ATOM     39  C   UNL     1      -7.674  -4.832  20.938  0.00  0.00    +0.000 A 
ATOM     40  H   UNL     1      -6.265  -7.251  18.999  0.00  0.00    +0.000 HD
ATOM     41  H   UNL     1      -4.248  -5.867  19.423  0.00  0.00    +0.000 HD
ATOM     42  H   UNL     1      -8.628  -4.511  21.348  0.00  0.00    +0.000 HD
ENDBRANCH  30  32
ENDBRANCH  11  30
TORSDOF 6
ENDMDL
MODEL 4
REMARK VINA RESULT:    -9.640      2.623      7.078
REMARK INTER + INTRA:         -13.424
REMARK INTER:                 -12.136
REMARK INTRA:                  -1.288
REMARK UNBOUND:                -0.402
REMARK  Name = 
REMARK  6 active torsions:
REMARK  status: ('A' for Active; 'I' for Inactive)
REMARK    1  A    between atoms: C_2  and  C_3
REMARK    2  A    between atoms: C_10  and  N_11
REMARK    3  A    between atoms: N_11  and  C_12
REMARK    4  A    between atoms: C_12  and  C_13
REMARK    5  A    between atoms: C_20  and  N_21
REMARK    6  A    between atoms: N_21  and  C_22
REMARK                            x       y       z     vdW  Elec       q    Type
REMARK                         _______ _______ _______ _____ _____    ______ ____
ROOT
ATOM      1  C   UNL     1      -9.576  -7.983  18.082  0.00  0.00    +0.000 A 
ATOM      2  C   UNL     1     -10.164  -8.126  16.837  0.00  0.00    +0.000 A 
ATOM      3  N   UNL     1     -10.746  -7.121  16.155  0.00  0.00    +0.000 NA
ATOM      4  C   UNL     1     -10.770  -5.894  16.705  0.00  0.00    +0.000 A 
ATOM      5  C   UNL     1     -11.398  -4.857  16.018  0.00  0.00    +0.000 A 
ATOM      6  F   UNL     1     -11.944  -5.093  14.812  0.00  0.00    +0.000 F 
ATOM      7  C   UNL     1     -11.496  -3.565  16.525  0.00  0.00    +0.000 A 
ATOM      8  C   UNL     1     -10.920  -3.243  17.745  0.00  0.00    +0.000 A 
ATOM      9  C   UNL     1     -10.282  -4.274  18.446  0.00  0.00    +0.000 A 
ATOM     10  C   UNL     1     -10.191  -5.615  17.964  0.00  0.00    +0.000 A 
ATOM     11  C   UNL     1      -9.566  -6.705  18.670  0.00  0.00    +0.000 A 
ATOM     12  H   UNL     1     -10.181  -9.084  16.322  0.00  0.00    +0.000 HD
ATOM     13  H   UNL     1     -12.004  -2.808  15.932  0.00  0.00    +0.000 HD
ATOM     14  H   UNL     1      -9.863  -4.037  19.417  0.00  0.00    +0.000 HD
ENDROOT
BRANCH   1  16
ATOM     15  N   UNL     1      -8.519 -10.137  19.061  0.00  0.00    +0.000 NA
ATOM     16  C   UNL     1      -8.984  -9.155  18.656  0.00  0.00    +0.000 C 
ENDBRANCH   1  16
BRANCH   8  17
ATOM     17  N   UNL     1     -11.062  -1.938  18.214  0.00  0.00    +0.000 N 
ATOM     18  H   UNL     1     -12.042  -1.695  18.335  0.00  0.00    +0.000 HD
BRANCH  17  19
ATOM     19  C   UNL     1     -10.238  -1.432  19.318  0.00  0.00    +0.000 C 
ATOM     20  H   UNL     1     -10.231  -0.339  19.225  0.00  0.00    +0.000 HD
ATOM     21  H   UNL     1      -9.195  -1.739  19.167  0.00  0.00    +0.000 HD
BRANCH  19  22
ATOM     22  C   UNL     1     -10.652  -1.744  20.727  0.00  0.00    +0.000 A 
ATOM     23  C   UNL     1     -11.915  -1.971  21.240  0.00  0.00    +0.000 A 
ATOM     24  N   UNL     1     -11.734  -2.152  22.584  0.00  0.00    +0.000 N 
ATOM     25  C   UNL     1     -10.397  -2.037  22.840  0.00  0.00    +0.000 A 
ATOM     26  N   UNL     1      -9.715  -1.814  21.742  0.00  0.00    +0.000 NA
ATOM     27  H   UNL     1     -12.894  -1.999  20.783  0.00  0.00    +0.000 HD
ATOM     28  H   UNL     1     -12.454  -2.324  23.272  0.00  0.00    +0.000 HD
ATOM     29  H   UNL     1      -9.986  -2.121  23.838  0.00  0.00    +0.000 HD
ENDBRANCH  19  22
ENDBRANCH  17  19
ENDBRANCH   8  17
BRANCH  11  30
ATOM     30  N   UNL     1      -8.907  -6.458  19.911  0.00  0.00    +0.000 N 
ATOM     31  H   UNL     1      -9.035  -7.196  20.600  0.00  0.00    +0.000 HD
BRANCH  30  32
ATOM     32  C   UNL     1      -7.688  -5.800  20.190  0.00  0.00    +0.000 A 
ATOM     33  C   UNL     1      -6.527  -6.248  19.537  0.00  0.00    +0.000 A 
ATOM     34  C   UNL     1      -5.305  -5.603  19.719  0.00  0.00    +0.000 A 
ATOM     35  C   UNL     1      -5.239  -4.491  20.553  0.00  0.00    +0.000 A 
ATOM     36  F   UNL     1      -4.065  -3.862  20.700  0.00  0.00    +0.000 F 
ATOM     37  C   UNL     1      -6.380  -4.032  21.208  0.00  0.00    +0.000 A 
ATOM     38 CL   UNL     1      -6.307  -2.639  22.221  0.00  0.00    +0.000 Cl
ATOM     39  C   UNL     1      -7.605  -4.677  21.023  0.00  0.00    +0.000 A 
ATOM     40  H   UNL     1      -6.574  -7.121  18.887  0.00  0.00    +0.000 HD
ATOM     41  H   UNL     1      -4.409  -5.951  19.216  0.00  0.00    +0.000 HD
ATOM     42  H   UNL     1      -8.492  -4.290  21.517  0.00  0.00    +0.000 HD
ENDBRANCH  30  32
ENDBRANCH  11  30
TORSDOF 6
ENDMDL
MODEL 5
REMARK VINA RESULT:    -9.555      2.792      6.114
REMARK INTER + INTRA:         -13.309
REMARK INTER:                 -12.344
REMARK INTRA:                  -0.966
REMARK UNBOUND:                -0.402
REMARK  Name = 
REMARK  6 active torsions:
REMARK  status: ('A' for Active; 'I' for Inactive)
REMARK    1  A    between atoms: C_2  and  C_3
REMARK    2  A    between atoms: C_10  and  N_11
REMARK    3  A    between atoms: N_11  and  C_12
REMARK    4  A    between atoms: C_12  and  C_13
REMARK    5  A    between atoms: C_20  and  N_21
REMARK    6  A    between atoms: N_21  and  C_22
REMARK                            x       y       z     vdW  Elec       q    Type
REMARK                         _______ _______ _______ _____ _____    ______ ____
ROOT
ATOM      1  C   UNL     1      -8.856  -9.212  19.363  0.00  0.00    +0.000 A 
ATOM      2  C   UNL     1      -8.917 -10.240  18.439  0.00  0.00    +0.000 A 
ATOM      3  N   UNL     1      -8.994 -10.057  17.107  0.00  0.00    +0.000 NA
ATOM      4  C   UNL     1      -9.016  -8.801  16.626  0.00  0.00    +0.000 A 
ATOM      5  C   UNL     1      -9.126  -8.606  15.251  0.00  0.00    +0.000 A 
ATOM      6  F   UNL     1      -9.182  -9.669  14.430  0.00  0.00    +0.000 F 
ATOM      7  C   UNL     1      -9.187  -7.343  14.670  0.00  0.00    +0.000 A 
ATOM      8  C   UNL     1      -9.095  -6.203  15.455  0.00  0.00    +0.000 A 
ATOM      9  C   UNL     1      -8.980  -6.384  16.839  0.00  0.00    +0.000 A 
ATOM     10  C   UNL     1      -8.944  -7.667  17.465  0.00  0.00    +0.000 A 
ATOM     11  C   UNL     1      -8.854  -7.889  18.886  0.00  0.00    +0.000 A 
ATOM     12  H   UNL     1      -8.898 -11.285  18.746  0.00  0.00    +0.000 HD
ATOM     13  H   UNL     1      -9.276  -7.268  13.589  0.00  0.00    +0.000 HD
ATOM     14  H   UNL     1      -8.945  -5.496  17.460  0.00  0.00    +0.000 HD
ENDROOT
BRANCH   1  16
ATOM     15  N   UNL     1      -8.633  -9.838  21.867  0.00  0.00    +0.000 NA
ATOM     16  C   UNL     1      -8.757  -9.587  20.743  0.00  0.00    +0.000 C 
ENDBRANCH   1  16
BRANCH   8  17
ATOM     17  N   UNL     1      -9.177  -4.963  14.824  0.00  0.00    +0.000 N 
ATOM     18  H   UNL     1      -8.483  -4.878  14.086  0.00  0.00    +0.000 HD
BRANCH  17  19
ATOM     19  C   UNL     1     -10.470  -4.401  14.417  0.00  0.00    +0.000 C 
ATOM     20  H   UNL     1     -10.764  -3.695  15.205  0.00  0.00    +0.000 HD
ATOM     21  H   UNL     1     -11.235  -5.187  14.438  0.00  0.00    +0.000 HD
BRANCH  19  22
ATOM     22  C   UNL     1     -10.555  -3.655  13.116  0.00  0.00    +0.000 A 
ATOM     23  C   UNL     1      -9.759  -2.631  12.640  0.00  0.00    +0.000 A 
ATOM     24  N   UNL     1     -10.303  -2.279  11.435  0.00  0.00    +0.000 N 
ATOM     25  C   UNL     1     -11.384  -3.085  11.219  0.00  0.00    +0.000 A 
ATOM     26  N   UNL     1     -11.551  -3.939  12.201  0.00  0.00    +0.000 NA
ATOM     27  H   UNL     1      -8.894  -2.128  13.049  0.00  0.00    +0.000 HD
ATOM     28  H   UNL     1      -9.979  -1.547  10.818  0.00  0.00    +0.000 HD
ATOM     29  H   UNL     1     -12.007  -2.999  10.338  0.00  0.00    +0.000 HD
ENDBRANCH  19  22
ENDBRANCH  17  19
ENDBRANCH   8  17
BRANCH  11  30
ATOM     30  N   UNL     1      -8.708  -6.776  19.768  0.00  0.00    +0.000 N 
ATOM     31  H   UNL     1      -9.326  -6.807  20.576  0.00  0.00    +0.000 HD
BRANCH  30  32
ATOM     32  C   UNL     1      -7.566  -6.020  20.113  0.00  0.00    +0.000 A 
ATOM     33  C   UNL     1      -6.328  -6.402  19.569  0.00  0.00    +0.000 A 
ATOM     34  C   UNL     1      -5.172  -5.662  19.818  0.00  0.00    +0.000 A 
ATOM     35  C   UNL     1      -5.253  -4.522  20.612  0.00  0.00    +0.000 A 
ATOM     36  F   UNL     1      -4.142  -3.803  20.824  0.00  0.00    +0.000 F 
ATOM     37  C   UNL     1      -6.472  -4.128  21.159  0.00  0.00    +0.000 A 
ATOM     38 CL   UNL     1      -6.579  -2.700  22.121  0.00  0.00    +0.000 Cl
ATOM     39  C   UNL     1      -7.629  -4.868  20.907  0.00  0.00    +0.000 A 
ATOM     40  H   UNL     1      -6.260  -7.297  18.951  0.00  0.00    +0.000 HD
ATOM     41  H   UNL     1      -4.217  -5.958  19.399  0.00  0.00    +0.000 HD
ATOM     42  H   UNL     1      -8.578  -4.532  21.316  0.00  0.00    +0.000 HD
ENDBRANCH  30  32
ENDBRANCH  11  30
TORSDOF 6
ENDMDL
MODEL 6
REMARK VINA RESULT:    -9.324      1.959      3.250
REMARK INTER + INTRA:         -12.997
REMARK INTER:                 -11.980
REMARK INTRA:                  -1.017
REMARK UNBOUND:                -0.402
REMARK  Name = 
REMARK  6 active torsions:
REMARK  status: ('A' for Active; 'I' for Inactive)
REMARK    1  A    between atoms: C_2  and  C_3
REMARK    2  A    between atoms: C_10  and  N_11
REMARK    3  A    between atoms: N_11  and  C_12
REMARK    4  A    between atoms: C_12  and  C_13
REMARK    5  A    between atoms: C_20  and  N_21
REMARK    6  A    between atoms: N_21  and  C_22
REMARK                            x       y       z     vdW  Elec       q    Type
REMARK                         _______ _______ _______ _____ _____    ______ ____
ROOT
ATOM      1  C   UNL     1     -10.435  -2.274  18.529  0.00  0.00    +0.000 A 
ATOM      2  C   UNL     1     -11.120  -2.109  17.338  0.00  0.00    +0.000 A 
ATOM      3  N   UNL     1     -11.441  -3.117  16.504  0.00  0.00    +0.000 NA
ATOM      4  C   UNL     1     -11.078  -4.370  16.833  0.00  0.00    +0.000 A 
ATOM      5  C   UNL     1     -11.381  -5.412  15.958  0.00  0.00    +0.000 A 
ATOM      6  F   UNL     1     -12.050  -5.154  14.821  0.00  0.00    +0.000 F 
ATOM      7  C   UNL     1     -11.017  -6.733  16.203  0.00  0.00    +0.000 A 
ATOM      8  C   UNL     1     -10.360  -7.075  17.376  0.00  0.00    +0.000 A 
ATOM      9  C   UNL     1     -10.052  -6.038  18.266  0.00  0.00    +0.000 A 
ATOM     10  C   UNL     1     -10.387  -4.671  18.027  0.00  0.00    +0.000 A 
ATOM     11  C   UNL     1     -10.063  -3.577  18.907  0.00  0.00    +0.000 A 
ATOM     12  H   UNL     1     -11.455  -1.129  17.004  0.00  0.00    +0.000 HD
ATOM     13  H   UNL     1     -11.285  -7.493  15.474  0.00  0.00    +0.000 HD
ATOM     14  H   UNL     1      -9.505  -6.294  19.166  0.00  0.00    +0.000 HD
ENDROOT
BRANCH   1  16
ATOM     15  N   UNL     1      -9.984  -0.179  19.987  0.00  0.00    +0.000 NA
ATOM     16  C   UNL     1     -10.193  -1.093  19.305  0.00  0.00    +0.000 C 
ENDBRANCH   1  16
BRANCH   8  17
ATOM     17  N   UNL     1     -10.004  -8.409  17.564  0.00  0.00    +0.000 N 
ATOM     18  H   UNL     1     -10.295  -8.743  18.479  0.00  0.00    +0.000 HD
BRANCH  17  19
ATOM     19  C   UNL     1     -10.240  -9.414  16.521  0.00  0.00    +0.000 C 
ATOM     20  H   UNL     1      -9.929  -8.957  15.572  0.00  0.00    +0.000 HD
ATOM     21  H   UNL     1     -11.319  -9.586  16.415  0.00  0.00    +0.000 HD
BRANCH  19  22
ATOM     22  C   UNL     1      -9.531 -10.734  16.618  0.00  0.00    +0.000 A 
ATOM     23  C   UNL     1      -9.107 -11.421  17.739  0.00  0.00    +0.000 A 
ATOM     24  N   UNL     1      -8.472 -12.535  17.264  0.00  0.00    +0.000 N 
ATOM     25  C   UNL     1      -8.533 -12.496  15.900  0.00  0.00    +0.000 A 
ATOM     26  N   UNL     1      -9.182 -11.436  15.479  0.00  0.00    +0.000 NA
ATOM     27  H   UNL     1      -9.183 -11.210  18.797  0.00  0.00    +0.000 HD
ATOM     28  H   UNL     1      -8.024 -13.255  17.814  0.00  0.00    +0.000 HD
ATOM     29  H   UNL     1      -8.085 -13.258  15.275  0.00  0.00    +0.000 HD
ENDBRANCH  19  22
ENDBRANCH  17  19
ENDBRANCH   8  17
BRANCH  11  30
ATOM     30  N   UNL     1      -9.428  -3.839  20.158  0.00  0.00    +0.000 N 
ATOM     31  H   UNL     1      -9.908  -4.535  20.726  0.00  0.00    +0.000 HD
BRANCH  30  32
ATOM     32  C   UNL     1      -8.060  -3.848  20.512  0.00  0.00    +0.000 A 
ATOM     33  C   UNL     1      -7.624  -2.949  21.500  0.00  0.00    +0.000 A 
ATOM     34  C   UNL     1      -6.301  -2.949  21.940  0.00  0.00    +0.000 A 
ATOM     35  C   UNL     1      -5.403  -3.862  21.395  0.00  0.00    +0.000 A 
ATOM     36  F   UNL     1      -4.140  -3.872  21.844  0.00  0.00    +0.000 F 
ATOM     37  C   UNL     1      -5.817  -4.760  20.414  0.00  0.00    +0.000 A 
ATOM     38 CL   UNL     1      -4.713  -5.910  19.757  0.00  0.00    +0.000 Cl
ATOM     39  C   UNL     1      -7.143  -4.761  19.976  0.00  0.00    +0.000 A 
ATOM     40  H   UNL     1      -8.324  -2.231  21.926  0.00  0.00    +0.000 HD
ATOM     41  H   UNL     1      -5.965  -2.255  22.703  0.00  0.00    +0.000 HD
ATOM     42  H   UNL     1      -7.460  -5.488  19.232  0.00  0.00    +0.000 HD
ENDBRANCH  30  32
ENDBRANCH  11  30
TORSDOF 6
ENDMDL
MODEL 7
REMARK VINA RESULT:    -9.285      4.700      8.468
REMARK INTER + INTRA:         -12.944
REMARK INTER:                 -11.993
REMARK INTRA:                  -0.951
REMARK UNBOUND:                -0.402
REMARK  Name = 
REMARK  6 active torsions:
REMARK  status: ('A' for Active; 'I' for Inactive)
REMARK    1  A    between atoms: C_2  and  C_3
REMARK    2  A    between atoms: C_10  and  N_11
REMARK    3  A    between atoms: N_11  and  C_12
REMARK    4  A    between atoms: C_12  and  C_13
REMARK    5  A    between atoms: C_20  and  N_21
REMARK    6  A    between atoms: N_21  and  C_22
REMARK                            x       y       z     vdW  Elec       q    Type
REMARK                         _______ _______ _______ _____ _____    ______ ____
ROOT
ATOM      1  C   UNL     1      -9.471  -5.917  18.286  0.00  0.00    +0.000 A 
ATOM      2  C   UNL     1     -10.350  -4.974  18.785  0.00  0.00    +0.000 A 
ATOM      3  N   UNL     1     -11.114  -4.171  18.020  0.00  0.00    +0.000 NA
ATOM      4  C   UNL     1     -11.027  -4.278  16.682  0.00  0.00    +0.000 A 
ATOM      5  C   UNL     1     -11.793  -3.428  15.885  0.00  0.00    +0.000 A 
ATOM      6  F   UNL     1     -12.620  -2.539  16.462  0.00  0.00    +0.000 F 
ATOM      7  C   UNL     1     -11.743  -3.449  14.494  0.00  0.00    +0.000 A 
ATOM      8  C   UNL     1     -10.941  -4.368  13.833  0.00  0.00    +0.000 A 
ATOM      9  C   UNL     1     -10.168  -5.231  14.622  0.00  0.00    +0.000 A 
ATOM     10  C   UNL     1     -10.178  -5.212  16.049  0.00  0.00    +0.000 A 
ATOM     11  C   UNL     1      -9.377  -6.066  16.890  0.00  0.00    +0.000 A 
ATOM     12  H   UNL     1     -10.484  -4.829  19.856  0.00  0.00    +0.000 HD
ATOM     13  H   UNL     1     -12.367  -2.754  13.938  0.00  0.00    +0.000 HD
ATOM     14  H   UNL     1      -9.512  -5.925  14.110  0.00  0.00    +0.000 HD
ENDROOT
BRANCH   1  16
ATOM     15  N   UNL     1      -8.179  -7.391  19.981  0.00  0.00    +0.000 NA
ATOM     16  C   UNL     1      -8.750  -6.701  19.245  0.00  0.00    +0.000 C 
ENDBRANCH   1  16
BRANCH   8  17
ATOM     17  N   UNL     1     -10.916  -4.335  12.441  0.00  0.00    +0.000 N 
ATOM     18  H   UNL     1     -10.975  -5.271  12.048  0.00  0.00    +0.000 HD
BRANCH  17  19
ATOM     19  C   UNL     1     -11.737  -3.380  11.687  0.00  0.00    +0.000 C 
ATOM     20  H   UNL     1     -11.838  -2.489  12.320  0.00  0.00    +0.000 HD
ATOM     21  H   UNL     1     -12.756  -3.775  11.583  0.00  0.00    +0.000 HD
BRANCH  19  22
ATOM     22  C   UNL     1     -11.246  -2.906  10.349  0.00  0.00    +0.000 A 
ATOM     23  C   UNL     1     -11.748  -3.166   9.089  0.00  0.00    +0.000 A 
ATOM     24  N   UNL     1     -10.896  -2.539   8.222  0.00  0.00    +0.000 N 
ATOM     25  C   UNL     1      -9.927  -1.926   8.965  0.00  0.00    +0.000 A 
ATOM     26  N   UNL     1     -10.120  -2.109  10.250  0.00  0.00    +0.000 NA
ATOM     27  H   UNL     1     -12.597  -3.740   8.745  0.00  0.00    +0.000 HD
ATOM     28  H   UNL     1     -10.956  -2.537   7.213  0.00  0.00    +0.000 HD
ATOM     29  H   UNL     1      -9.113  -1.371   8.516  0.00  0.00    +0.000 HD
ENDBRANCH  19  22
ENDBRANCH  17  19
ENDBRANCH   8  17
BRANCH  11  30
ATOM     30  N   UNL     1      -8.557  -7.073  16.298  0.00  0.00    +0.000 N 
ATOM     31  H   UNL     1      -7.567  -6.978  16.515  0.00  0.00    +0.000 HD
BRANCH  30  32
ATOM     32  C   UNL     1      -8.822  -8.435  16.031  0.00  0.00    +0.000 A 
ATOM     33  C   UNL     1      -8.933  -8.838  14.689  0.00  0.00    +0.000 A 
ATOM     34  C   UNL     1      -9.131 -10.177  14.354  0.00  0.00    +0.000 A 
ATOM     35  C   UNL     1      -9.210 -11.127  15.367  0.00  0.00    +0.000 A 
ATOM     36  F   UNL     1      -9.374 -12.415  15.034  0.00  0.00    +0.000 F 
ATOM     37  C   UNL     1      -9.103 -10.746  16.703  0.00  0.00    +0.000 A 
ATOM     38 CL   UNL     1      -9.174 -11.925  17.959  0.00  0.00    +0.000 Cl
ATOM     39  C   UNL     1      -8.902  -9.405  17.037  0.00  0.00    +0.000 A 
ATOM     40  H   UNL     1      -8.875  -8.096  13.893  0.00  0.00    +0.000 HD
ATOM     41  H   UNL     1      -9.217 -10.488  13.318  0.00  0.00    +0.000 HD
ATOM     42  H   UNL     1      -8.789  -9.126  18.082  0.00  0.00    +0.000 HD
ENDBRANCH  30  32
ENDBRANCH  11  30
TORSDOF 6
ENDMDL
MODEL 8
REMARK VINA RESULT:    -9.240      2.659      7.522
REMARK INTER + INTRA:         -12.883
REMARK INTER:                 -11.610
REMARK INTRA:                  -1.273
REMARK UNBOUND:                -0.402
REMARK  Name = 
REMARK  6 active torsions:
REMARK  status: ('A' for Active; 'I' for Inactive)
REMARK    1  A    between atoms: C_2  and  C_3
REMARK    2  A    between atoms: C_10  and  N_11
REMARK    3  A    between atoms: N_11  and  C_12
REMARK    4  A    between atoms: C_12  and  C_13
REMARK    5  A    between atoms: C_20  and  N_21
REMARK    6  A    between atoms: N_21  and  C_22
REMARK                            x       y       z     vdW  Elec       q    Type
REMARK                         _______ _______ _______ _____ _____    ______ ____
ROOT
ATOM      1  C   UNL     1      -9.614  -7.947  18.097  0.00  0.00    +0.000 A 
ATOM      2  C   UNL     1     -10.186  -8.116  16.849  0.00  0.00    +0.000 A 
ATOM      3  N   UNL     1     -10.787  -7.133  16.152  0.00  0.00    +0.000 NA
ATOM      4  C   UNL     1     -10.846  -5.901  16.689  0.00  0.00    +0.000 A 
ATOM      5  C   UNL     1     -11.493  -4.888  15.985  0.00  0.00    +0.000 A 
ATOM      6  F   UNL     1     -12.023  -5.148  14.778  0.00  0.00    +0.000 F 
ATOM      7  C   UNL     1     -11.627  -3.593  16.478  0.00  0.00    +0.000 A 
ATOM      8  C   UNL     1     -11.070  -3.245  17.700  0.00  0.00    +0.000 A 
ATOM      9  C   UNL     1     -10.413  -4.253  18.417  0.00  0.00    +0.000 A 
ATOM     10  C   UNL     1     -10.286  -5.596  17.949  0.00  0.00    +0.000 A 
ATOM     11  C   UNL     1      -9.641  -6.663  18.672  0.00  0.00    +0.000 A 
ATOM     12  H   UNL     1     -10.176  -9.080  16.343  0.00  0.00    +0.000 HD
ATOM     13  H   UNL     1     -12.148  -2.854  15.874  0.00  0.00    +0.000 HD
ATOM     14  H   UNL     1     -10.009  -3.996  19.389  0.00  0.00    +0.000 HD
ENDROOT
BRANCH   1  16
ATOM     15  N   UNL     1      -8.470 -10.042  19.105  0.00  0.00    +0.000 NA
ATOM     16  C   UNL     1      -8.998  -9.098  18.688  0.00  0.00    +0.000 C 
ENDBRANCH   1  16
BRANCH   8  17
ATOM     17  N   UNL     1     -11.248  -1.940  18.154  0.00  0.00    +0.000 N 
ATOM     18  H   UNL     1     -10.869  -1.820  19.091  0.00  0.00    +0.000 HD
BRANCH  17  19
ATOM     19  C   UNL     1     -10.945  -0.787  17.298  0.00  0.00    +0.000 C 
ATOM     20  H   UNL     1     -11.784  -0.088  17.408  0.00  0.00    +0.000 HD
ATOM     21  H   UNL     1     -10.967  -1.097  16.245  0.00  0.00    +0.000 HD
BRANCH  19  22
ATOM     22  C   UNL     1      -9.692  -0.003  17.561  0.00  0.00    +0.000 A 
ATOM     23  C   UNL     1      -9.256   0.585  18.733  0.00  0.00    +0.000 A 
ATOM     24  N   UNL     1      -8.087   1.217  18.410  0.00  0.00    +0.000 N 
ATOM     25  C   UNL     1      -7.851   0.996  17.083  0.00  0.00    +0.000 A 
ATOM     26  N   UNL     1      -8.786   0.247  16.547  0.00  0.00    +0.000 NA
ATOM     27  H   UNL     1      -9.673   0.622  19.730  0.00  0.00    +0.000 HD
ATOM     28  H   UNL     1      -7.506   1.764  19.029  0.00  0.00    +0.000 HD
ATOM     29  H   UNL     1      -6.992   1.406  16.568  0.00  0.00    +0.000 HD
ENDBRANCH  19  22
ENDBRANCH  17  19
ENDBRANCH   8  17
BRANCH  11  30
ATOM     30  N   UNL     1      -8.999  -6.387  19.916  0.00  0.00    +0.000 N 
ATOM     31  H   UNL     1      -9.170  -7.089  20.633  0.00  0.00    +0.000 HD
BRANCH  30  32
ATOM     32  C   UNL     1      -7.761  -5.765  20.194  0.00  0.00    +0.000 A 
ATOM     33  C   UNL     1      -6.614  -6.246  19.540  0.00  0.00    +0.000 A 
ATOM     34  C   UNL     1      -5.373  -5.637  19.721  0.00  0.00    +0.000 A 
ATOM     35  C   UNL     1      -5.275  -4.528  20.557  0.00  0.00    +0.000 A 
ATOM     36  F   UNL     1      -4.083  -3.934  20.703  0.00  0.00    +0.000 F 
ATOM     37  C   UNL     1      -6.401  -4.037  21.213  0.00  0.00    +0.000 A 
ATOM     38 CL   UNL     1      -6.287  -2.648  22.228  0.00  0.00    +0.000 Cl
ATOM     39  C   UNL     1      -7.644  -4.647  21.029  0.00  0.00    +0.000 A 
ATOM     40  H   UNL     1      -6.687  -7.116  18.889  0.00  0.00    +0.000 HD
ATOM     41  H   UNL     1      -4.488  -6.010  19.216  0.00  0.00    +0.000 HD
ATOM     42  H   UNL     1      -8.520  -4.235  21.524  0.00  0.00    +0.000 HD
ENDBRANCH  30  32
ENDBRANCH  11  30
TORSDOF 6
ENDMDL
MODEL 9
REMARK VINA RESULT:    -9.123      3.372      6.102
REMARK INTER + INTRA:         -12.726
REMARK INTER:                 -11.569
REMARK INTRA:                  -1.157
REMARK UNBOUND:                -0.402
REMARK  Name = 
REMARK  6 active torsions:
REMARK  status: ('A' for Active; 'I' for Inactive)
REMARK    1  A    between atoms: C_2  and  C_3
REMARK    2  A    between atoms: C_10  and  N_11
REMARK    3  A    between atoms: N_11  and  C_12
REMARK    4  A    between atoms: C_12  and  C_13
REMARK    5  A    between atoms: C_20  and  N_21
REMARK    6  A    between atoms: N_21  and  C_22
REMARK                            x       y       z     vdW  Elec       q    Type
REMARK                         _______ _______ _______ _____ _____    ______ ____
ROOT
ATOM      1  C   UNL     1      -7.344  -2.684  22.079  0.00  0.00    +0.000 A 
ATOM      2  C   UNL     1      -6.022  -3.081  22.166  0.00  0.00    +0.000 A 
ATOM      3  N   UNL     1      -5.461  -4.023  21.384  0.00  0.00    +0.000 NA
ATOM      4  C   UNL     1      -6.221  -4.629  20.454  0.00  0.00    +0.000 A 
ATOM      5  C   UNL     1      -5.654  -5.626  19.663  0.00  0.00    +0.000 A 
ATOM      6  F   UNL     1      -4.358  -5.946  19.822  0.00  0.00    +0.000 F 
ATOM      7  C   UNL     1      -6.373  -6.326  18.699  0.00  0.00    +0.000 A 
ATOM      8  C   UNL     1      -7.704  -6.019  18.454  0.00  0.00    +0.000 A 
ATOM      9  C   UNL     1      -8.287  -5.016  19.240  0.00  0.00    +0.000 A 
ATOM     10  C   UNL     1      -7.581  -4.303  20.256  0.00  0.00    +0.000 A 
ATOM     11  C   UNL     1      -8.156  -3.286  21.099  0.00  0.00    +0.000 A 
ATOM     12  H   UNL     1      -5.339  -2.636  22.888  0.00  0.00    +0.000 HD
ATOM     13  H   UNL     1      -5.864  -7.093  18.121  0.00  0.00    +0.000 HD
ATOM     14  H   UNL     1      -9.336  -4.799  19.080  0.00  0.00    +0.000 HD
ENDROOT
BRANCH   1  16
ATOM     15  N   UNL     1      -8.107  -0.772  23.652  0.00  0.00    +0.000 NA
ATOM     16  C   UNL     1      -7.770  -1.652  22.977  0.00  0.00    +0.000 C 
ENDBRANCH   1  16
BRANCH   8  17
ATOM     17  N   UNL     1      -8.382  -6.762  17.490  0.00  0.00    +0.000 N 
ATOM     18  H   UNL     1      -7.735  -7.200  16.839  0.00  0.00    +0.000 HD
BRANCH  17  19
ATOM     19  C   UNL     1      -9.477  -7.668  17.857  0.00  0.00    +0.000 C 
ATOM     20  H   UNL     1     -10.166  -7.685  17.003  0.00  0.00    +0.000 HD
ATOM     21  H   UNL     1     -10.054  -7.230  18.681  0.00  0.00    +0.000 HD
BRANCH  19  22
ATOM     22  C   UNL     1      -9.151  -9.098  18.178  0.00  0.00    +0.000 A 
ATOM     23  C   UNL     1      -8.694  -9.648  19.360  0.00  0.00    +0.000 A 
ATOM     24  N   UNL     1      -8.508 -10.977  19.094  0.00  0.00    +0.000 N 
ATOM     25  C   UNL     1      -8.855 -11.190  17.790  0.00  0.00    +0.000 A 
ATOM     26  N   UNL     1      -9.267 -10.084  17.216  0.00  0.00    +0.000 NA
ATOM     27  H   UNL     1      -8.474  -9.220  20.328  0.00  0.00    +0.000 HD
ATOM     28  H   UNL     1      -8.163 -11.678  19.735  0.00  0.00    +0.000 HD
ATOM     29  H   UNL     1      -8.782 -12.162  17.320  0.00  0.00    +0.000 HD
ENDBRANCH  19  22
ENDBRANCH  17  19
ENDBRANCH   8  17
BRANCH  11  30
ATOM     30  N   UNL     1      -9.505  -2.872  20.890  0.00  0.00    +0.000 N 
ATOM     31  H   UNL     1     -10.038  -2.753  21.748  0.00  0.00    +0.000 HD
BRANCH  30  32
ATOM     32  C   UNL     1     -10.066  -2.033  19.901  0.00  0.00    +0.000 A 
ATOM     33  C   UNL     1      -9.690  -0.679  19.889  0.00  0.00    +0.000 A 
ATOM     34  C   UNL     1     -10.157   0.189  18.902  0.00  0.00    +0.000 A 
ATOM     35  C   UNL     1     -11.003  -0.300  17.911  0.00  0.00    +0.000 A 
ATOM     36  F   UNL     1     -11.425   0.536  16.952  0.00  0.00    +0.000 F 
ATOM     37  C   UNL     1     -11.386  -1.639  17.907  0.00  0.00    +0.000 A 
ATOM     38 CL   UNL     1     -12.411  -2.253  16.664  0.00  0.00    +0.000 Cl
ATOM     39  C   UNL     1     -10.915  -2.508  18.894  0.00  0.00    +0.000 A 
ATOM     40  H   UNL     1      -9.032  -0.292  20.666  0.00  0.00    +0.000 HD
ATOM     41  H   UNL     1      -9.868   1.235  18.894  0.00  0.00    +0.000 HD
ATOM     42  H   UNL     1     -11.198  -3.557  18.861  0.00  0.00    +0.000 HD
ENDBRANCH  30  32
ENDBRANCH  11  30
TORSDOF 6
ENDMDL
