REMARK  Name = 
REMARK  5 active torsions:
REMARK  status: ('A' for Active; 'I' for Inactive)
REMARK    1  A    between atoms: C_1  and  S_2
REMARK    2  A    between atoms: S_2  and  C_4
REMARK    3  A    between atoms: C_7  and  C_8
REMARK    4  A    between atoms: C_10  and  C_11
REMARK    5  A    between atoms: C_18  and  C_19
REMARK                            x       y       z     vdW  Elec       q    Type
REMARK                         _______ _______ _______ _____ _____    ______ ____
ROOT
ATOM      1  C   UNL     1      -0.401   0.152  -0.704  0.00  0.00    +0.000 A 
ATOM      2  N   UNL     1      -1.041   0.315   0.441  0.00  0.00    +0.000 NA
ATOM      3  C   UNL     1      -0.398  -0.480   1.362  0.00  0.00    +0.000 A 
ATOM      4  C   UNL     1       0.729  -1.081   0.799  0.00  0.00    +0.000 A 
ATOM      5  N   UNL     1       0.672  -0.688  -0.522  0.00  0.00    +0.000 N 
ATOM      6  H   UNL     1       1.343  -0.920  -1.234  0.00  0.00    +0.000 HD
ENDROOT
BRANCH   3   7
ATOM      7  C   UNL     1      -0.844  -0.575   2.749  0.00  0.00    +0.000 A 
ATOM      8  C   UNL     1      -0.683  -1.759   3.489  0.00  0.00    +0.000 A 
ATOM      9  C   UNL     1      -0.850  -1.763   4.874  0.00  0.00    +0.000 A 
ATOM     10  C   UNL     1      -1.305  -0.617   5.505  0.00  0.00    +0.000 A 
ATOM     11  F   UNL     1      -1.455  -0.615   6.835  0.00  0.00    +0.000 F 
ATOM     12  C   UNL     1      -1.602   0.525   4.776  0.00  0.00    +0.000 A 
ATOM     13  C   UNL     1      -1.361   0.554   3.397  0.00  0.00    +0.000 A 
ATOM     14  H   UNL     1      -0.344  -2.672   3.005  0.00  0.00    +0.000 HD
ATOM     15  H   UNL     1      -0.603  -2.648   5.455  0.00  0.00    +0.000 HD
ATOM     16  H   UNL     1      -1.990   1.403   5.287  0.00  0.00    +0.000 HD
ATOM     17  H   UNL     1      -1.547   1.469   2.836  0.00  0.00    +0.000 HD
ENDBRANCH   3   7
BRANCH   1  21
ATOM     18  C   UNL     1      -1.316   2.155  -4.385  0.00  0.00    +0.000 A 
ATOM     19  C   UNL     1      -1.606   2.741  -3.157  0.00  0.00    +0.000 A 
ATOM     20  C   UNL     1      -1.312   2.080  -1.961  0.00  0.00    +0.000 A 
ATOM     21  C   UNL     1      -0.718   0.806  -1.973  0.00  0.00    +0.000 A 
ATOM     22  C   UNL     1      -0.457   0.209  -3.215  0.00  0.00    +0.000 A 
ATOM     23  C   UNL     1      -0.755   0.874  -4.405  0.00  0.00    +0.000 A 
ATOM     24  H   UNL     1      -2.069   3.732  -3.097  0.00  0.00    +0.000 HD
ATOM     25  H   UNL     1      -1.541   2.554  -1.008  0.00  0.00    +0.000 HD
ATOM     26  H   UNL     1      -0.041  -0.797  -3.275  0.00  0.00    +0.000 HD
ATOM     27  H   UNL     1      -0.553   0.382  -5.360  0.00  0.00    +0.000 HD
BRANCH  18  28
ATOM     28  S   UNL     1      -1.711   3.017  -5.925  0.00  0.00    +0.000 S 
ATOM     29  O   UNL     1      -1.109   2.162  -7.098  0.00  0.00    +0.000 OA
BRANCH  28  30
ATOM     30  C   UNL     1      -0.627   4.449  -5.690  0.00  0.00    +0.000 C 
ATOM     31  H   UNL     1      -0.671   5.068  -6.589  0.00  0.00    +0.000 HD
ATOM     32  H   UNL     1       0.402   4.116  -5.529  0.00  0.00    +0.000 HD
ATOM     33  H   UNL     1      -0.969   5.040  -4.838  0.00  0.00    +0.000 HD
ENDBRANCH  28  30
ENDBRANCH  18  28
ENDBRANCH   1  21
BRANCH   4  34
ATOM     34  C   UNL     1       1.783  -1.958   1.335  0.00  0.00    +0.000 A 
ATOM     35  C   UNL     1       2.330  -2.983   0.563  0.00  0.00    +0.000 A 
ATOM     36  C   UNL     1       3.173  -3.899   1.175  0.00  0.00    +0.000 A 
ATOM     37  N   UNL     1       3.492  -3.875   2.488  0.00  0.00    +0.000 NA
ATOM     38  C   UNL     1       2.991  -2.856   3.206  0.00  0.00    +0.000 A 
ATOM     39  C   UNL     1       2.197  -1.858   2.667  0.00  0.00    +0.000 A 
ATOM     40  H   UNL     1       2.082  -3.117  -0.483  0.00  0.00    +0.000 HD
ATOM     41  H   UNL     1       3.614  -4.718   0.615  0.00  0.00    +0.000 HD
ATOM     42  H   UNL     1       3.221  -2.868   4.269  0.00  0.00    +0.000 HD
ATOM     43  H   UNL     1       1.851  -1.059   3.317  0.00  0.00    +0.000 HD
ENDBRANCH   4  34
TORSDOF 5
