
 OpenBabel01112422263D

 62 67  0  0  1  0  0  0  0  0999 V2000
    2.9198   -2.6119    0.3981 C   0  0  0  0  0  0  0  0  0  0  0  0
    2.3896   -2.0066   -0.8262 N   0  0  0  0  0  0  0  0  0  0  0  0
    0.9228   -1.9674   -0.7528 C   0  0  0  0  0  0  0  0  0  0  0  0
    2.9391   -0.6461   -1.0037 C   0  0  0  0  0  0  0  0  0  0  0  0
    4.4857   -0.6218   -1.1709 C   0  0  1  0  0  0  0  0  0  0  0  0
    4.9647   -1.4514   -2.3736 C   0  0  0  0  0  0  0  0  0  0  0  0
    4.3982   -0.8992   -3.6774 C   0  0  0  0  0  0  0  0  0  0  0  0
    4.5090    0.5498   -3.7580 N   0  0  0  0  0  0  0  0  0  0  0  0
    4.7621    1.3717   -2.6778 C   0  0  0  0  0  0  0  0  0  0  0  0
    4.7240    2.6730   -3.1442 C   0  0  0  0  0  0  0  0  0  0  0  0
    4.9054    3.8270   -2.3343 C   0  0  0  0  0  0  0  0  0  0  0  0
    6.0350    4.4637   -2.0085 C   0  0  0  0  0  0  0  0  0  0  0  0
    7.3691    4.1825   -2.3938 C   0  0  0  0  0  0  0  0  0  0  0  0
    8.2103    3.3316   -1.7201 C   0  0  0  0  0  0  0  0  0  0  0  0
    9.4321    3.3790   -2.3414 N   0  0  0  0  0  0  0  0  0  0  0  0
   10.6082    2.6714   -1.8865 C   0  0  0  0  0  0  0  0  0  0  0  0
    9.3908    4.2410   -3.4192 C   0  0  0  0  0  0  0  0  0  0  0  0
   10.3882    4.6321   -4.3269 C   0  0  0  0  0  0  0  0  0  0  0  0
   10.0491    5.5595   -5.3173 C   0  0  0  0  0  0  0  0  0  0  0  0
    8.7600    6.0760   -5.4041 C   0  0  0  0  0  0  0  0  0  0  0  0
    7.7707    5.6774   -4.4984 C   0  0  0  0  0  0  0  0  0  0  0  0
    8.0885    4.7518   -3.4813 C   0  0  0  0  0  0  0  0  0  0  0  0
    5.6718    5.5922   -1.1208 C   0  0  0  0  0  0  0  0  0  0  0  0
    6.4335    6.3750   -0.5766 O   0  0  0  0  0  0  0  0  0  0  0  0
    4.3301    5.5756   -0.9927 N   0  0  0  0  0  0  0  0  0  0  0  0
    3.7956    4.5378   -1.6773 C   0  0  0  0  0  0  0  0  0  0  0  0
    2.6075    4.2515   -1.7137 O   0  0  0  0  0  0  0  0  0  0  0  0
    4.4241    2.6382   -4.5374 C   0  0  0  0  0  0  0  0  0  0  0  0
    4.2494    3.6152   -5.5383 C   0  0  0  0  0  0  0  0  0  0  0  0
    3.8642    3.2311   -6.8268 C   0  0  0  0  0  0  0  0  0  0  0  0
    3.6603    1.8903   -7.1361 C   0  0  0  0  0  0  0  0  0  0  0  0
    3.8526    0.8976   -6.1731 C   0  0  0  0  0  0  0  0  0  0  0  0
    4.2468    1.2947   -4.8848 C   0  0  0  0  0  0  0  0  0  0  0  0
    5.0156    0.8152   -1.3129 C   0  0  0  0  0  0  0  0  0  0  0  0
    2.5270   -3.6253    0.5358 H   0  0  0  0  0  0  0  0  0  0  0  0
    2.6837   -2.0159    1.2876 H   0  0  0  0  0  0  0  0  0  0  0  0
    4.0046   -2.7275    0.3392 H   0  0  0  0  0  0  0  0  0  0  0  0
    0.5209   -2.9682   -0.5626 H   0  0  0  0  0  0  0  0  0  0  0  0
    0.4894   -1.6393   -1.7044 H   0  0  0  0  0  0  0  0  0  0  0  0
    0.5614   -1.3019    0.0408 H   0  0  0  0  0  0  0  0  0  0  0  0
    2.6642   -0.0261   -0.1397 H   0  0  0  0  0  0  0  0  0  0  0  0
    2.4695   -0.1785   -1.8764 H   0  0  0  0  0  0  0  0  0  0  0  0
    4.9526   -1.0334   -0.2701 H   0  0  0  0  0  0  0  0  0  0  0  0
    4.6884   -2.5043   -2.2612 H   0  0  0  0  0  0  0  0  0  0  0  0
    6.0606   -1.4166   -2.4133 H   0  0  0  0  0  0  0  0  0  0  0  0
    3.3336   -1.1403   -3.7767 H   0  0  0  0  0  0  0  0  0  0  0  0
    4.9314   -1.3288   -4.5311 H   0  0  0  0  0  0  0  0  0  0  0  0
    8.0559    2.7278   -0.8357 H   0  0  0  0  0  0  0  0  0  0  0  0
   10.3620    2.0884   -0.9955 H   0  0  0  0  0  0  0  0  0  0  0  0
   11.3823    3.4039   -1.6430 H   0  0  0  0  0  0  0  0  0  0  0  0
   10.9405    2.0036   -2.6848 H   0  0  0  0  0  0  0  0  0  0  0  0
   11.3987    4.2426   -4.2625 H   0  0  0  0  0  0  0  0  0  0  0  0
   10.8058    5.8836   -6.0280 H   0  0  0  0  0  0  0  0  0  0  0  0
    8.5183    6.8024   -6.1766 H   0  0  0  0  0  0  0  0  0  0  0  0
    6.7727    6.0955   -4.5715 H   0  0  0  0  0  0  0  0  0  0  0  0
    3.8055    6.2259   -0.4308 H   0  0  0  0  0  0  0  0  0  0  0  0
    4.3929    4.6682   -5.3109 H   0  0  0  0  0  0  0  0  0  0  0  0
    3.7116    3.9899   -7.5900 H   0  0  0  0  0  0  0  0  0  0  0  0
    3.3475    1.6087   -8.1389 H   0  0  0  0  0  0  0  0  0  0  0  0
    3.6878   -0.1465   -6.4193 H   0  0  0  0  0  0  0  0  0  0  0  0
    4.5700    1.4629   -0.5491 H   0  0  0  0  0  0  0  0  0  0  0  0
    6.0979    0.8149   -1.1306 H   0  0  0  0  0  0  0  0  0  0  0  0
  1  2  1  0  0  0  0
  1 35  1  0  0  0  0
  1 36  1  0  0  0  0
  1 37  1  0  0  0  0
  2  3  1  0  0  0  0
  2  4  1  0  0  0  0
  3 38  1  0  0  0  0
  3 39  1  0  0  0  0
  3 40  1  0  0  0  0
  4  5  1  0  0  0  0
  4 41  1  0  0  0  0
  4 42  1  0  0  0  0
  5  6  1  0  0  0  0
  5 34  1  0  0  0  0
  5 43  1  1  0  0  0
  6  7  1  0  0  0  0
  6 44  1  0  0  0  0
  6 45  1  0  0  0  0
  7  8  1  0  0  0  0
  7 46  1  0  0  0  0
  7 47  1  0  0  0  0
  8  9  1  0  0  0  0
  8 33  1  0  0  0  0
  9 10  2  0  0  0  0
  9 34  1  0  0  0  0
 10 11  1  0  0  0  0
 10 28  1  0  0  0  0
 11 12  2  0  0  0  0
 11 26  1  0  0  0  0
 12 13  1  0  0  0  0
 12 23  1  0  0  0  0
 13 14  2  0  0  0  0
 13 22  1  0  0  0  0
 14 15  1  0  0  0  0
 14 48  1  0  0  0  0
 15 16  1  0  0  0  0
 15 17  1  0  0  0  0
 16 49  1  0  0  0  0
 16 50  1  0  0  0  0
 16 51  1  0  0  0  0
 17 18  1  0  0  0  0
 17 22  2  0  0  0  0
 18 19  2  0  0  0  0
 18 52  1  0  0  0  0
 19 20  1  0  0  0  0
 19 53  1  0  0  0  0
 20 21  2  0  0  0  0
 20 54  1  0  0  0  0
 21 22  1  0  0  0  0
 21 55  1  0  0  0  0
 23 24  2  0  0  0  0
 23 25  1  0  0  0  0
 25 26  1  0  0  0  0
 25 56  1  0  0  0  0
 26 27  2  0  0  0  0
 28 29  1  0  0  0  0
 28 33  2  0  0  0  0
 29 30  2  0  0  0  0
 29 57  1  0  0  0  0
 30 31  1  0  0  0  0
 30 58  1  0  0  0  0
 31 32  2  0  0  0  0
 31 59  1  0  0  0  0
 32 33  1  0  0  0  0
 32 60  1  0  0  0  0
 34 61  1  0  0  0  0
 34 62  1  0  0  0  0
M  END
$$$$
