MODEL 1
REMARK VINA RESULT:   -11.079      0.000      0.000
REMARK INTER + INTRA:         -18.803
REMARK INTER:                 -16.907
REMARK INTRA:                  -1.895
REMARK UNBOUND:                -1.895
REMARK  Name = 
REMARK  10 active torsions:
REMARK  status: ('A' for Active; 'I' for Inactive)
REMARK    1  A    between atoms: C_1  and  C_2
REMARK    2  A    between atoms: C_2  and  C_3
REMARK    3  A    between atoms: C_16  and  C_17
REMARK    4  A    between atoms: C_17  and  C_18
REMARK    5  A    between atoms: C_18  and  C_19
REMARK    6  A    between atoms: C_26  and  C_27
REMARK    7  A    between atoms: C_27  and  O_28
REMARK    8  A    between atoms: O_28  and  C_29
REMARK    9  A    between atoms: C_34  and  N_35
REMARK   10  A    between atoms: C_36  and  C_37
REMARK                            x       y       z     vdW  Elec       q    Type
REMARK                         _______ _______ _______ _____ _____    ______ ____
ROOT
ATOM      1  C   UNL     1      -6.597  -4.540  20.777  0.00  0.00    +0.000 A 
ATOM      2  C   UNL     1      -5.993  -4.092  21.939  0.00  0.00    +0.000 A 
ATOM      3  C   UNL     1      -6.471  -2.920  22.591  0.00  0.00    +0.000 A 
ATOM      4  C   UNL     1      -7.577  -2.178  22.116  0.00  0.00    +0.000 A 
ATOM      5  C   UNL     1      -8.207  -2.561  20.953  0.00  0.00    +0.000 A 
ATOM      6  C   UNL     1      -7.650  -3.759  20.333  0.00  0.00    +0.000 A 
ATOM      7  C   UNL     1      -8.418  -4.025  19.152  0.00  0.00    +0.000 C 
ATOM      8  N   UNL     1      -8.788  -4.978  18.221  0.00  0.00    +0.000 N 
ATOM      9  C   UNL     1     -10.185  -4.473  17.972  0.00  0.00    +0.000 A 
ATOM     10  C   UNL     1     -10.516  -3.028  18.003  0.00  0.00    +0.000 A 
ATOM     11  C   UNL     1     -11.320  -2.637  16.935  0.00  0.00    +0.000 A 
ATOM     12  C   UNL     1     -11.866  -3.616  16.062  0.00  0.00    +0.000 A 
ATOM     13  C   UNL     1     -11.779  -5.000  16.327  0.00  0.00    +0.000 A 
ATOM     14  C   UNL     1     -10.991  -5.447  17.371  0.00  0.00    +0.000 A 
ATOM     15  C   UNL     1      -9.861  -1.904  19.006  0.00  0.00    +0.000 C 
ATOM     16  C   UNL     1      -9.623  -2.021  20.385  0.00  0.00    +0.000 C 
ATOM     17  H   UNL     1      -5.160  -4.650  22.359  0.00  0.00    +0.000 HD
ATOM     18  H   UNL     1      -5.965  -2.620  23.505  0.00  0.00    +0.000 HD
ATOM     19  H   UNL     1      -7.925  -1.320  22.693  0.00  0.00    +0.000 HD
ATOM     20  H   UNL     1      -8.104  -3.189  18.530  0.00  0.00    +0.000 HD
ATOM     21  H   UNL     1      -9.307  -4.150  19.792  0.00  0.00    +0.000 HD
ATOM     22  H   UNL     1      -8.774  -5.937  18.518  0.00  0.00    +0.000 HD
ATOM     23  H   UNL     1     -11.482  -1.586  16.710  0.00  0.00    +0.000 HD
ATOM     24  H   UNL     1     -12.392  -3.296  15.163  0.00  0.00    +0.000 HD
ATOM     25  H   UNL     1     -12.286  -5.714  15.685  0.00  0.00    +0.000 HD
ATOM     26  H   UNL     1      -9.091  -1.404  18.408  0.00  0.00    +0.000 HD
ENDROOT
BRANCH   1  27
ATOM     27  C   UNL     1      -6.218  -5.809  20.050  0.00  0.00    +0.000 C 
ATOM     28  H   UNL     1      -6.441  -6.683  20.680  0.00  0.00    +0.000 HD
ATOM     29  H   UNL     1      -6.843  -5.935  19.161  0.00  0.00    +0.000 HD
BRANCH  27  30
ATOM     30  C   UNL     1      -4.743  -5.852  19.644  0.00  0.00    +0.000 C 
ATOM     31  H   UNL     1      -4.103  -5.678  20.514  0.00  0.00    +0.000 HD
ATOM     32  H   UNL     1      -4.486  -5.084  18.908  0.00  0.00    +0.000 HD
ATOM     33  H   UNL     1      -4.477  -6.811  19.198  0.00  0.00    +0.000 HD
ENDBRANCH  27  30
ENDBRANCH   1  27
BRANCH  14  34
ATOM     34  C   UNL     1     -10.989  -6.868  17.931  0.00  0.00    +0.000 C 
ATOM     35  H   UNL     1     -11.971  -7.112  18.357  0.00  0.00    +0.000 HD
ATOM     36  H   UNL     1     -10.277  -6.954  18.755  0.00  0.00    +0.000 HD
BRANCH  34  37
ATOM     37  C   UNL     1     -10.638  -7.897  16.811  0.00  0.00    +0.000 C 
ATOM     38  H   UNL     1     -10.052  -7.377  16.041  0.00  0.00    +0.000 HD
ATOM     39  H   UNL     1     -11.564  -8.222  16.319  0.00  0.00    +0.000 HD
BRANCH  37  40
ATOM     40  C   UNL     1      -9.884  -9.169  17.164  0.00  0.00    +0.000 A 
ATOM     41  C   UNL     1      -9.197  -9.223  18.396  0.00  0.00    +0.000 A 
ATOM     42  C   UNL     1      -8.510 -10.373  18.800  0.00  0.00    +0.000 A 
ATOM     43  C   UNL     1      -8.503 -11.496  17.979  0.00  0.00    +0.000 A 
ATOM     44  C   UNL     1      -9.185 -11.465  16.763  0.00  0.00    +0.000 A 
ATOM     45  C   UNL     1      -9.874 -10.312  16.358  0.00  0.00    +0.000 A 
ATOM     46  H   UNL     1      -9.194  -8.364  19.067  0.00  0.00    +0.000 HD
ATOM     47  H   UNL     1      -7.990 -10.393  19.756  0.00  0.00    +0.000 HD
ATOM     48  H   UNL     1      -7.983 -12.399  18.292  0.00  0.00    +0.000 HD
ATOM     49  H   UNL     1      -9.195 -12.349  16.130  0.00  0.00    +0.000 HD
ATOM     50  H   UNL     1     -10.408 -10.334  15.414  0.00  0.00    +0.000 HD
ENDBRANCH  37  40
ENDBRANCH  34  37
ENDBRANCH  14  34
BRANCH  16  51
ATOM     51  C   UNL     1     -10.792  -2.479  21.278  0.00  0.00    +0.000 C 
ATOM     52  H   UNL     1     -10.506  -3.365  21.858  0.00  0.00    +0.000 HD
ATOM     53  H   UNL     1     -11.575  -2.747  20.566  0.00  0.00    +0.000 HD
BRANCH  51  54
ATOM     54  O   UNL     1     -11.308  -1.488  22.206  0.00  0.00    +0.000 OA
BRANCH  54  55
ATOM     55  C   UNL     1     -10.553  -1.356  23.376  0.00  0.00    +0.000 A 
ATOM     56  C   UNL     1     -10.537  -2.344  24.381  0.00  0.00    +0.000 A 
ATOM     57  C   UNL     1      -9.789  -2.196  25.552  0.00  0.00    +0.000 A 
ATOM     58  C   UNL     1      -9.043  -1.053  25.756  0.00  0.00    +0.000 A 
ATOM     59  C   UNL     1      -9.052  -0.052  24.787  0.00  0.00    +0.000 A 
ATOM     60  C   UNL     1      -9.791  -0.172  23.590  0.00  0.00    +0.000 A 
ATOM     61  H   UNL     1     -11.118  -3.262  24.321  0.00  0.00    +0.000 HD
ATOM     62  H   UNL     1      -9.812  -2.961  26.309  0.00  0.00    +0.000 HD
ATOM     63  H   UNL     1      -8.458  -0.928  26.663  0.00  0.00    +0.000 HD
ATOM     64  H   UNL     1      -8.456   0.826  25.014  0.00  0.00    +0.000 HD
BRANCH  60  65
ATOM     65  N   UNL     1      -9.777   0.873  22.627  0.00  0.00    +0.000 N 
ATOM     66  C   UNL     1     -10.674   1.936  22.546  0.00  0.00    +0.000 C 
ATOM     67  O   UNL     1     -11.606   2.180  23.309  0.00  0.00    +0.000 OA
ATOM     68  H   UNL     1      -9.014   0.831  21.962  0.00  0.00    +0.000 HD
BRANCH  66  69
ATOM     69  C   UNL     1     -10.412   2.880  21.401  0.00  0.00    +0.000 C 
ATOM     70  H   UNL     1      -9.384   3.248  21.416  0.00  0.00    +0.000 HD
ATOM     71  H   UNL     1     -11.123   3.710  21.446  0.00  0.00    +0.000 HD
ATOM     72  H   UNL     1     -10.565   2.343  20.458  0.00  0.00    +0.000 HD
ENDBRANCH  66  69
ENDBRANCH  60  65
ENDBRANCH  54  55
ENDBRANCH  51  54
ENDBRANCH  16  51
TORSDOF 10
ENDMDL
MODEL 2
REMARK VINA RESULT:   -10.307      1.281      1.521
REMARK INTER + INTRA:         -17.626
REMARK INTER:                 -15.743
REMARK INTRA:                  -1.883
REMARK UNBOUND:                -1.895
REMARK  Name = 
REMARK  10 active torsions:
REMARK  status: ('A' for Active; 'I' for Inactive)
REMARK    1  A    between atoms: C_1  and  C_2
REMARK    2  A    between atoms: C_2  and  C_3
REMARK    3  A    between atoms: C_16  and  C_17
REMARK    4  A    between atoms: C_17  and  C_18
REMARK    5  A    between atoms: C_18  and  C_19
REMARK    6  A    between atoms: C_26  and  C_27
REMARK    7  A    between atoms: C_27  and  O_28
REMARK    8  A    between atoms: O_28  and  C_29
REMARK    9  A    between atoms: C_34  and  N_35
REMARK   10  A    between atoms: C_36  and  C_37
REMARK                            x       y       z     vdW  Elec       q    Type
REMARK                         _______ _______ _______ _____ _____    ______ ____
ROOT
ATOM      1  C   UNL     1      -6.763  -4.602  20.584  0.00  0.00    +0.000 A 
ATOM      2  C   UNL     1      -6.289  -4.021  21.746  0.00  0.00    +0.000 A 
ATOM      3  C   UNL     1      -6.903  -2.846  22.264  0.00  0.00    +0.000 A 
ATOM      4  C   UNL     1      -8.021  -2.234  21.651  0.00  0.00    +0.000 A 
ATOM      5  C   UNL     1      -8.526  -2.752  20.480  0.00  0.00    +0.000 A 
ATOM      6  C   UNL     1      -7.834  -3.945  20.001  0.00  0.00    +0.000 A 
ATOM      7  C   UNL     1      -8.483  -4.360  18.793  0.00  0.00    +0.000 C 
ATOM      8  N   UNL     1      -8.706  -5.407  17.918  0.00  0.00    +0.000 N 
ATOM      9  C   UNL     1     -10.112  -5.038  17.526  0.00  0.00    +0.000 A 
ATOM     10  C   UNL     1     -10.552  -3.626  17.416  0.00  0.00    +0.000 A 
ATOM     11  C   UNL     1     -11.296  -3.383  16.264  0.00  0.00    +0.000 A 
ATOM     12  C   UNL     1     -11.696  -4.466  15.436  0.00  0.00    +0.000 A 
ATOM     13  C   UNL     1     -11.527  -5.814  15.818  0.00  0.00    +0.000 A 
ATOM     14  C   UNL     1     -10.793  -6.116  16.949  0.00  0.00    +0.000 A 
ATOM     15  C   UNL     1     -10.066  -2.380  18.370  0.00  0.00    +0.000 C 
ATOM     16  C   UNL     1      -9.930  -2.373  19.768  0.00  0.00    +0.000 C 
ATOM     17  H   UNL     1      -5.452  -4.476  22.270  0.00  0.00    +0.000 HD
ATOM     18  H   UNL     1      -6.496  -2.438  23.186  0.00  0.00    +0.000 HD
ATOM     19  H   UNL     1      -8.477  -1.365  22.129  0.00  0.00    +0.000 HD
ATOM     20  H   UNL     1      -8.185  -3.551  18.129  0.00  0.00    +0.000 HD
ATOM     21  H   UNL     1      -9.408  -4.508  19.374  0.00  0.00    +0.000 HD
ATOM     22  H   UNL     1      -8.644  -6.337  18.292  0.00  0.00    +0.000 HD
ATOM     23  H   UNL     1     -11.518  -2.368  15.943  0.00  0.00    +0.000 HD
ATOM     24  H   UNL     1     -12.172  -4.257  14.477  0.00  0.00    +0.000 HD
ATOM     25  H   UNL     1     -11.927  -6.613  15.200  0.00  0.00    +0.000 HD
ATOM     26  H   UNL     1      -9.290  -1.866  17.791  0.00  0.00    +0.000 HD
ENDROOT
BRANCH   1  27
ATOM     27  C   UNL     1      -6.234  -5.887  19.992  0.00  0.00    +0.000 C 
ATOM     28  H   UNL     1      -6.492  -6.735  20.643  0.00  0.00    +0.000 HD
ATOM     29  H   UNL     1      -6.734  -6.100  19.042  0.00  0.00    +0.000 HD
BRANCH  27  30
ATOM     30  C   UNL     1      -4.719  -5.870  19.774  0.00  0.00    +0.000 C 
ATOM     31  H   UNL     1      -4.206  -5.565  20.692  0.00  0.00    +0.000 HD
ATOM     32  H   UNL     1      -4.412  -5.165  18.996  0.00  0.00    +0.000 HD
ATOM     33  H   UNL     1      -4.345  -6.849  19.472  0.00  0.00    +0.000 HD
ENDBRANCH  27  30
ENDBRANCH   1  27
BRANCH  14  34
ATOM     34  C   UNL     1     -10.729  -7.485  17.621  0.00  0.00    +0.000 C 
ATOM     35  H   UNL     1     -11.391  -7.514  18.496  0.00  0.00    +0.000 HD
ATOM     36  H   UNL     1      -9.723  -7.678  18.003  0.00  0.00    +0.000 HD
BRANCH  34  37
ATOM     37  C   UNL     1     -11.144  -8.608  16.619  0.00  0.00    +0.000 C 
ATOM     38  H   UNL     1     -11.414  -8.131  15.666  0.00  0.00    +0.000 HD
ATOM     39  H   UNL     1     -12.058  -9.096  16.984  0.00  0.00    +0.000 HD
BRANCH  37  40
ATOM     40  C   UNL     1     -10.171  -9.730  16.297  0.00  0.00    +0.000 A 
ATOM     41  C   UNL     1      -9.724 -10.555  17.351  0.00  0.00    +0.000 A 
ATOM     42  C   UNL     1      -8.854 -11.627  17.122  0.00  0.00    +0.000 A 
ATOM     43  C   UNL     1      -8.419 -11.898  15.829  0.00  0.00    +0.000 A 
ATOM     44  C   UNL     1      -8.858 -11.100  14.773  0.00  0.00    +0.000 A 
ATOM     45  C   UNL     1      -9.731 -10.026  15.003  0.00  0.00    +0.000 A 
ATOM     46  H   UNL     1     -10.057 -10.377  18.374  0.00  0.00    +0.000 HD
ATOM     47  H   UNL     1      -8.525 -12.253  17.950  0.00  0.00    +0.000 HD
ATOM     48  H   UNL     1      -7.754 -12.738  15.641  0.00  0.00    +0.000 HD
ATOM     49  H   UNL     1      -8.533 -11.323  13.759  0.00  0.00    +0.000 HD
ATOM     50  H   UNL     1     -10.065  -9.441  14.152  0.00  0.00    +0.000 HD
ENDBRANCH  37  40
ENDBRANCH  34  37
ENDBRANCH  14  34
BRANCH  16  51
ATOM     51  C   UNL     1     -11.128  -2.856  20.607  0.00  0.00    +0.000 C 
ATOM     52  H   UNL     1     -10.804  -3.600  21.344  0.00  0.00    +0.000 HD
ATOM     53  H   UNL     1     -11.785  -3.331  19.875  0.00  0.00    +0.000 HD
BRANCH  51  54
ATOM     54  O   UNL     1     -11.865  -1.823  21.312  0.00  0.00    +0.000 OA
BRANCH  54  55
ATOM     55  C   UNL     1     -11.123  -1.170  22.303  0.00  0.00    +0.000 A 
ATOM     56  C   UNL     1     -10.647  -1.833  23.452  0.00  0.00    +0.000 A 
ATOM     57  C   UNL     1      -9.918  -1.168  24.441  0.00  0.00    +0.000 A 
ATOM     58  C   UNL     1      -9.652   0.181  24.314  0.00  0.00    +0.000 A 
ATOM     59  C   UNL     1     -10.124   0.866  23.197  0.00  0.00    +0.000 A 
ATOM     60  C   UNL     1     -10.858   0.224  22.177  0.00  0.00    +0.000 A 
ATOM     61  H   UNL     1     -10.836  -2.886  23.650  0.00  0.00    +0.000 HD
ATOM     62  H   UNL     1      -9.583  -1.699  25.315  0.00  0.00    +0.000 HD
ATOM     63  H   UNL     1      -9.086   0.707  25.078  0.00  0.00    +0.000 HD
ATOM     64  H   UNL     1      -9.893   1.926  23.164  0.00  0.00    +0.000 HD
BRANCH  60  65
ATOM     65  N   UNL     1     -11.325   0.958  21.053  0.00  0.00    +0.000 N 
ATOM     66  C   UNL     1     -10.598   1.263  19.904  0.00  0.00    +0.000 C 
ATOM     67  O   UNL     1      -9.447   0.920  19.642  0.00  0.00    +0.000 OA
ATOM     68  H   UNL     1     -12.292   1.255  21.108  0.00  0.00    +0.000 HD
BRANCH  66  69
ATOM     69  C   UNL     1     -11.359   2.073  18.887  0.00  0.00    +0.000 C 
ATOM     70  H   UNL     1     -12.219   2.572  19.339  0.00  0.00    +0.000 HD
ATOM     71  H   UNL     1     -11.673   1.423  18.067  0.00  0.00    +0.000 HD
ATOM     72  H   UNL     1     -10.695   2.846  18.483  0.00  0.00    +0.000 HD
ENDBRANCH  66  69
ENDBRANCH  60  65
ENDBRANCH  54  55
ENDBRANCH  51  54
ENDBRANCH  16  51
TORSDOF 10
ENDMDL
MODEL 3
REMARK VINA RESULT:   -10.269      1.270      2.382
REMARK INTER + INTRA:         -17.567
REMARK INTER:                 -16.285
REMARK INTRA:                  -1.282
REMARK UNBOUND:                -1.895
REMARK  Name = 
REMARK  10 active torsions:
REMARK  status: ('A' for Active; 'I' for Inactive)
REMARK    1  A    between atoms: C_1  and  C_2
REMARK    2  A    between atoms: C_2  and  C_3
REMARK    3  A    between atoms: C_16  and  C_17
REMARK    4  A    between atoms: C_17  and  C_18
REMARK    5  A    between atoms: C_18  and  C_19
REMARK    6  A    between atoms: C_26  and  C_27
REMARK    7  A    between atoms: C_27  and  O_28
REMARK    8  A    between atoms: O_28  and  C_29
REMARK    9  A    between atoms: C_34  and  N_35
REMARK   10  A    between atoms: C_36  and  C_37
REMARK                            x       y       z     vdW  Elec       q    Type
REMARK                         _______ _______ _______ _____ _____    ______ ____
ROOT
ATOM      1  C   UNL     1      -6.897  -4.612  20.658  0.00  0.00    +0.000 A 
ATOM      2  C   UNL     1      -6.446  -4.041  21.834  0.00  0.00    +0.000 A 
ATOM      3  C   UNL     1      -7.022  -2.830  22.312  0.00  0.00    +0.000 A 
ATOM      4  C   UNL     1      -8.079  -2.170  21.643  0.00  0.00    +0.000 A 
ATOM      5  C   UNL     1      -8.557  -2.677  20.455  0.00  0.00    +0.000 A 
ATOM      6  C   UNL     1      -7.906  -3.909  20.021  0.00  0.00    +0.000 A 
ATOM      7  C   UNL     1      -8.521  -4.306  18.789  0.00  0.00    +0.000 C 
ATOM      8  N   UNL     1      -8.757  -5.352  17.916  0.00  0.00    +0.000 N 
ATOM      9  C   UNL     1     -10.124  -4.916  17.457  0.00  0.00    +0.000 A 
ATOM     10  C   UNL     1     -10.486  -3.486  17.312  0.00  0.00    +0.000 A 
ATOM     11  C   UNL     1     -11.164  -3.220  16.126  0.00  0.00    +0.000 A 
ATOM     12  C   UNL     1     -11.582  -4.291  15.291  0.00  0.00    +0.000 A 
ATOM     13  C   UNL     1     -11.499  -5.641  15.694  0.00  0.00    +0.000 A 
ATOM     14  C   UNL     1     -10.833  -5.965  16.861  0.00  0.00    +0.000 A 
ATOM     15  C   UNL     1      -9.979  -2.254  18.275  0.00  0.00    +0.000 C 
ATOM     16  C   UNL     1      -9.906  -2.237  19.677  0.00  0.00    +0.000 C 
ATOM     17  H   UNL     1      -5.658  -4.532  22.401  0.00  0.00    +0.000 HD
ATOM     18  H   UNL     1      -6.636  -2.432  23.247  0.00  0.00    +0.000 HD
ATOM     19  H   UNL     1      -8.511  -1.274  22.091  0.00  0.00    +0.000 HD
ATOM     20  H   UNL     1      -8.152  -3.522  18.131  0.00  0.00    +0.000 HD
ATOM     21  H   UNL     1      -9.477  -4.400  19.329  0.00  0.00    +0.000 HD
ATOM     22  H   UNL     1      -8.759  -6.279  18.301  0.00  0.00    +0.000 HD
ATOM     23  H   UNL     1     -11.320  -2.199  15.784  0.00  0.00    +0.000 HD
ATOM     24  H   UNL     1     -12.003  -4.071  14.310  0.00  0.00    +0.000 HD
ATOM     25  H   UNL     1     -11.911  -6.426  15.067  0.00  0.00    +0.000 HD
ATOM     26  H   UNL     1      -9.153  -1.787  17.726  0.00  0.00    +0.000 HD
ENDROOT
BRANCH   1  27
ATOM     27  C   UNL     1      -6.408  -5.930  20.104  0.00  0.00    +0.000 C 
ATOM     28  H   UNL     1      -6.263  -6.650  20.922  0.00  0.00    +0.000 HD
ATOM     29  H   UNL     1      -7.176  -6.379  19.466  0.00  0.00    +0.000 HD
BRANCH  27  30
ATOM     30  C   UNL     1      -5.103  -5.804  19.315  0.00  0.00    +0.000 C 
ATOM     31  H   UNL     1      -5.037  -6.593  18.559  0.00  0.00    +0.000 HD
ATOM     32  H   UNL     1      -4.216  -5.902  19.948  0.00  0.00    +0.000 HD
ATOM     33  H   UNL     1      -5.025  -4.835  18.819  0.00  0.00    +0.000 HD
ENDBRANCH  27  30
ENDBRANCH   1  27
BRANCH  14  34
ATOM     34  C   UNL     1     -10.868  -7.328  17.549  0.00  0.00    +0.000 C 
ATOM     35  H   UNL     1     -11.628  -7.337  18.342  0.00  0.00    +0.000 HD
ATOM     36  H   UNL     1      -9.917  -7.532  18.046  0.00  0.00    +0.000 HD
BRANCH  34  37
ATOM     37  C   UNL     1     -11.184  -8.456  16.516  0.00  0.00    +0.000 C 
ATOM     38  H   UNL     1     -11.328  -7.987  15.533  0.00  0.00    +0.000 HD
ATOM     39  H   UNL     1     -12.145  -8.921  16.775  0.00  0.00    +0.000 HD
BRANCH  37  40
ATOM     40  C   UNL     1     -10.203  -9.601  16.326  0.00  0.00    +0.000 A 
ATOM     41  C   UNL     1      -9.636 -10.198  17.472  0.00  0.00    +0.000 A 
ATOM     42  C   UNL     1      -8.752 -11.277  17.372  0.00  0.00    +0.000 A 
ATOM     43  C   UNL     1      -8.423 -11.786  16.120  0.00  0.00    +0.000 A 
ATOM     44  C   UNL     1      -8.982 -11.217  14.977  0.00  0.00    +0.000 A 
ATOM     45  C   UNL     1      -9.869 -10.134  15.077  0.00  0.00    +0.000 A 
ATOM     46  H   UNL     1      -9.883  -9.830  18.469  0.00  0.00    +0.000 HD
ATOM     47  H   UNL     1      -8.328 -11.724  18.271  0.00  0.00    +0.000 HD
ATOM     48  H   UNL     1      -7.747 -12.635  16.035  0.00  0.00    +0.000 HD
ATOM     49  H   UNL     1      -8.739 -11.627  13.999  0.00  0.00    +0.000 HD
ATOM     50  H   UNL     1     -10.298  -9.732  14.165  0.00  0.00    +0.000 HD
ENDBRANCH  37  40
ENDBRANCH  34  37
ENDBRANCH  14  34
BRANCH  16  51
ATOM     51  C   UNL     1     -11.164  -2.648  20.466  0.00  0.00    +0.000 C 
ATOM     52  H   UNL     1     -11.311  -3.733  20.411  0.00  0.00    +0.000 HD
ATOM     53  H   UNL     1     -11.977  -2.142  19.942  0.00  0.00    +0.000 HD
BRANCH  51  54
ATOM     54  O   UNL     1     -11.186  -2.266  21.866  0.00  0.00    +0.000 OA
BRANCH  54  55
ATOM     55  C   UNL     1     -11.446  -0.908  22.083  0.00  0.00    +0.000 A 
ATOM     56  C   UNL     1     -12.359  -0.178  21.295  0.00  0.00    +0.000 A 
ATOM     57  C   UNL     1     -12.601   1.180  21.511  0.00  0.00    +0.000 A 
ATOM     58  C   UNL     1     -11.932   1.851  22.515  0.00  0.00    +0.000 A 
ATOM     59  C   UNL     1     -11.012   1.159  23.299  0.00  0.00    +0.000 A 
ATOM     60  C   UNL     1     -10.748  -0.215  23.112  0.00  0.00    +0.000 A 
ATOM     61  H   UNL     1     -12.907  -0.615  20.463  0.00  0.00    +0.000 HD
ATOM     62  H   UNL     1     -13.292   1.714  20.880  0.00  0.00    +0.000 HD
ATOM     63  H   UNL     1     -12.114   2.907  22.691  0.00  0.00    +0.000 HD
ATOM     64  H   UNL     1     -10.511   1.747  24.062  0.00  0.00    +0.000 HD
BRANCH  60  65
ATOM     65  N   UNL     1      -9.800  -0.884  23.932  0.00  0.00    +0.000 N 
ATOM     66  C   UNL     1     -10.061  -1.938  24.806  0.00  0.00    +0.000 C 
ATOM     67  O   UNL     1     -11.139  -2.496  24.994  0.00  0.00    +0.000 OA
ATOM     68  H   UNL     1      -8.845  -0.562  23.831  0.00  0.00    +0.000 HD
BRANCH  66  69
ATOM     69  C   UNL     1      -8.851  -2.433  25.556  0.00  0.00    +0.000 C 
ATOM     70  H   UNL     1      -8.662  -1.832  26.448  0.00  0.00    +0.000 HD
ATOM     71  H   UNL     1      -7.983  -2.425  24.891  0.00  0.00    +0.000 HD
ATOM     72  H   UNL     1      -9.033  -3.466  25.877  0.00  0.00    +0.000 HD
ENDBRANCH  66  69
ENDBRANCH  60  65
ENDBRANCH  54  55
ENDBRANCH  51  54
ENDBRANCH  16  51
TORSDOF 10
ENDMDL
MODEL 4
REMARK VINA RESULT:    -9.685      2.818      9.601
REMARK INTER + INTRA:         -16.676
REMARK INTER:                 -15.359
REMARK INTRA:                  -1.317
REMARK UNBOUND:                -1.895
REMARK  Name = 
REMARK  10 active torsions:
REMARK  status: ('A' for Active; 'I' for Inactive)
REMARK    1  A    between atoms: C_1  and  C_2
REMARK    2  A    between atoms: C_2  and  C_3
REMARK    3  A    between atoms: C_16  and  C_17
REMARK    4  A    between atoms: C_17  and  C_18
REMARK    5  A    between atoms: C_18  and  C_19
REMARK    6  A    between atoms: C_26  and  C_27
REMARK    7  A    between atoms: C_27  and  O_28
REMARK    8  A    between atoms: O_28  and  C_29
REMARK    9  A    between atoms: C_34  and  N_35
REMARK   10  A    between atoms: C_36  and  C_37
REMARK                            x       y       z     vdW  Elec       q    Type
REMARK                         _______ _______ _______ _____ _____    ______ ____
ROOT
ATOM      1  C   UNL     1     -11.281  -2.419  17.847  0.00  0.00    +0.000 A 
ATOM      2  C   UNL     1     -12.099  -2.815  16.804  0.00  0.00    +0.000 A 
ATOM      3  C   UNL     1     -11.877  -4.060  16.150  0.00  0.00    +0.000 A 
ATOM      4  C   UNL     1     -10.850  -4.953  16.535  0.00  0.00    +0.000 A 
ATOM      5  C   UNL     1      -9.990  -4.607  17.552  0.00  0.00    +0.000 A 
ATOM      6  C   UNL     1     -10.269  -3.310  18.161  0.00  0.00    +0.000 A 
ATOM      7  C   UNL     1      -9.301  -3.108  19.199  0.00  0.00    +0.000 C 
ATOM      8  N   UNL     1      -8.998  -2.420  20.360  0.00  0.00    +0.000 N 
ATOM      9  C   UNL     1      -8.222  -3.519  21.038  0.00  0.00    +0.000 A 
ATOM     10  C   UNL     1      -7.379  -4.472  20.277  0.00  0.00    +0.000 A 
ATOM     11  C   UNL     1      -6.132  -4.674  20.862  0.00  0.00    +0.000 A 
ATOM     12  C   UNL     1      -5.852  -4.128  22.144  0.00  0.00    +0.000 A 
ATOM     13  C   UNL     1      -6.849  -3.530  22.945  0.00  0.00    +0.000 A 
ATOM     14  C   UNL     1      -8.104  -3.299  22.415  0.00  0.00    +0.000 A 
ATOM     15  C   UNL     1      -7.706  -5.081  18.786  0.00  0.00    +0.000 C 
ATOM     16  C   UNL     1      -8.934  -5.571  18.311  0.00  0.00    +0.000 C 
ATOM     17  H   UNL     1     -12.922  -2.176  16.495  0.00  0.00    +0.000 HD
ATOM     18  H   UNL     1     -12.556  -4.325  15.344  0.00  0.00    +0.000 HD
ATOM     19  H   UNL     1     -10.768  -5.915  16.027  0.00  0.00    +0.000 HD
ATOM     20  H   UNL     1      -8.404  -2.972  18.598  0.00  0.00    +0.000 HD
ATOM     21  H   UNL     1      -9.698  -4.003  19.705  0.00  0.00    +0.000 HD
ATOM     22  H   UNL     1      -9.769  -2.097  20.915  0.00  0.00    +0.000 HD
ATOM     23  H   UNL     1      -5.336  -5.184  20.326  0.00  0.00    +0.000 HD
ATOM     24  H   UNL     1      -4.839  -4.188  22.540  0.00  0.00    +0.000 HD
ATOM     25  H   UNL     1      -6.617  -3.205  23.956  0.00  0.00    +0.000 HD
ATOM     26  H   UNL     1      -7.111  -4.473  18.095  0.00  0.00    +0.000 HD
ENDROOT
BRANCH   1  27
ATOM     27  C   UNL     1     -11.476  -1.157  18.655  0.00  0.00    +0.000 C 
ATOM     28  H   UNL     1     -12.549  -0.961  18.791  0.00  0.00    +0.000 HD
ATOM     29  H   UNL     1     -11.083  -1.294  19.668  0.00  0.00    +0.000 HD
BRANCH  27  30
ATOM     30  C   UNL     1     -10.822   0.071  18.019  0.00  0.00    +0.000 C 
ATOM     31  H   UNL     1      -9.961  -0.227  17.413  0.00  0.00    +0.000 HD
ATOM     32  H   UNL     1     -10.450   0.784  18.761  0.00  0.00    +0.000 HD
ATOM     33  H   UNL     1     -11.523   0.618  17.387  0.00  0.00    +0.000 HD
ENDBRANCH  27  30
ENDBRANCH   1  27
BRANCH  14  34
ATOM     34  C   UNL     1      -9.340  -2.895  23.216  0.00  0.00    +0.000 C 
ATOM     35  H   UNL     1      -9.891  -3.786  23.545  0.00  0.00    +0.000 HD
ATOM     36  H   UNL     1     -10.034  -2.330  22.589  0.00  0.00    +0.000 HD
BRANCH  34  37
ATOM     37  C   UNL     1      -8.933  -2.046  24.461  0.00  0.00    +0.000 C 
ATOM     38  H   UNL     1      -7.870  -2.232  24.668  0.00  0.00    +0.000 HD
ATOM     39  H   UNL     1      -9.482  -2.412  25.340  0.00  0.00    +0.000 HD
BRANCH  37  40
ATOM     40  C   UNL     1      -9.129  -0.539  24.444  0.00  0.00    +0.000 A 
ATOM     41  C   UNL     1      -9.730   0.048  23.311  0.00  0.00    +0.000 A 
ATOM     42  C   UNL     1      -9.971   1.425  23.242  0.00  0.00    +0.000 A 
ATOM     43  C   UNL     1      -9.619   2.241  24.311  0.00  0.00    +0.000 A 
ATOM     44  C   UNL     1      -9.035   1.677  25.445  0.00  0.00    +0.000 A 
ATOM     45  C   UNL     1      -8.794   0.297  25.514  0.00  0.00    +0.000 A 
ATOM     46  H   UNL     1     -10.028  -0.567  22.460  0.00  0.00    +0.000 HD
ATOM     47  H   UNL     1     -10.439   1.855  22.357  0.00  0.00    +0.000 HD
ATOM     48  H   UNL     1      -9.817   3.310  24.271  0.00  0.00    +0.000 HD
ATOM     49  H   UNL     1      -8.777   2.313  26.289  0.00  0.00    +0.000 HD
ATOM     50  H   UNL     1      -8.355  -0.106  26.421  0.00  0.00    +0.000 HD
ENDBRANCH  37  40
ENDBRANCH  34  37
ENDBRANCH  14  34
BRANCH  16  51
ATOM     51  C   UNL     1      -9.659  -6.631  19.161  0.00  0.00    +0.000 C 
ATOM     52  H   UNL     1     -10.529  -6.190  19.662  0.00  0.00    +0.000 HD
ATOM     53  H   UNL     1      -8.917  -6.920  19.908  0.00  0.00    +0.000 HD
BRANCH  51  54
ATOM     54  O   UNL     1     -10.108  -7.815  18.450  0.00  0.00    +0.000 OA
BRANCH  54  55
ATOM     55  C   UNL     1      -9.399  -8.977  18.773  0.00  0.00    +0.000 A 
ATOM     56  C   UNL     1      -8.825  -9.184  20.044  0.00  0.00    +0.000 A 
ATOM     57  C   UNL     1      -8.108 -10.342  20.351  0.00  0.00    +0.000 A 
ATOM     58  C   UNL     1      -7.936 -11.324  19.396  0.00  0.00    +0.000 A 
ATOM     59  C   UNL     1      -8.479 -11.140  18.127  0.00  0.00    +0.000 A 
ATOM     60  C   UNL     1      -9.214  -9.984  17.784  0.00  0.00    +0.000 A 
ATOM     61  H   UNL     1      -8.882  -8.452  20.847  0.00  0.00    +0.000 HD
ATOM     62  H   UNL     1      -7.667 -10.462  21.326  0.00  0.00    +0.000 HD
ATOM     63  H   UNL     1      -7.381 -12.229  19.626  0.00  0.00    +0.000 HD
ATOM     64  H   UNL     1      -8.298 -11.942  17.418  0.00  0.00    +0.000 HD
BRANCH  60  65
ATOM     65  N   UNL     1      -9.750  -9.833  16.477  0.00  0.00    +0.000 N 
ATOM     66  C   UNL     1      -9.239 -10.385  15.304  0.00  0.00    +0.000 C 
ATOM     67  O   UNL     1      -8.265 -11.127  15.197  0.00  0.00    +0.000 OA
ATOM     68  H   UNL     1     -10.602  -9.287  16.424  0.00  0.00    +0.000 HD
BRANCH  66  69
ATOM     69  C   UNL     1     -10.018 -10.033  14.063  0.00  0.00    +0.000 C 
ATOM     70  H   UNL     1     -10.459  -9.037  14.139  0.00  0.00    +0.000 HD
ATOM     71  H   UNL     1     -10.790 -10.788  13.893  0.00  0.00    +0.000 HD
ATOM     72  H   UNL     1      -9.335 -10.035  13.205  0.00  0.00    +0.000 HD
ENDBRANCH  66  69
ENDBRANCH  60  65
ENDBRANCH  54  55
ENDBRANCH  51  54
ENDBRANCH  16  51
TORSDOF 10
ENDMDL
MODEL 5
REMARK VINA RESULT:    -9.667      3.136      9.856
REMARK INTER + INTRA:         -16.649
REMARK INTER:                 -16.508
REMARK INTRA:                  -0.142
REMARK UNBOUND:                -1.895
REMARK  Name = 
REMARK  10 active torsions:
REMARK  status: ('A' for Active; 'I' for Inactive)
REMARK    1  A    between atoms: C_1  and  C_2
REMARK    2  A    between atoms: C_2  and  C_3
REMARK    3  A    between atoms: C_16  and  C_17
REMARK    4  A    between atoms: C_17  and  C_18
REMARK    5  A    between atoms: C_18  and  C_19
REMARK    6  A    between atoms: C_26  and  C_27
REMARK    7  A    between atoms: C_27  and  O_28
REMARK    8  A    between atoms: O_28  and  C_29
REMARK    9  A    between atoms: C_34  and  N_35
REMARK   10  A    between atoms: C_36  and  C_37
REMARK                            x       y       z     vdW  Elec       q    Type
REMARK                         _______ _______ _______ _____ _____    ______ ____
ROOT
ATOM      1  C   UNL     1     -11.252  -3.441  18.126  0.00  0.00    +0.000 A 
ATOM      2  C   UNL     1     -12.253  -3.893  17.287  0.00  0.00    +0.000 A 
ATOM      3  C   UNL     1     -12.092  -5.111  16.567  0.00  0.00    +0.000 A 
ATOM      4  C   UNL     1     -10.939  -5.922  16.686  0.00  0.00    +0.000 A 
ATOM      5  C   UNL     1      -9.898  -5.514  17.489  0.00  0.00    +0.000 A 
ATOM      6  C   UNL     1     -10.129  -4.249  18.179  0.00  0.00    +0.000 A 
ATOM      7  C   UNL     1      -8.968  -3.978  18.974  0.00  0.00    +0.000 C 
ATOM      8  N   UNL     1      -8.461  -3.277  20.053  0.00  0.00    +0.000 N 
ATOM      9  C   UNL     1      -7.469  -4.314  20.509  0.00  0.00    +0.000 A 
ATOM     10  C   UNL     1      -6.752  -5.191  19.552  0.00  0.00    +0.000 A 
ATOM     11  C   UNL     1      -5.393  -5.296  19.833  0.00  0.00    +0.000 A 
ATOM     12  C   UNL     1      -4.870  -4.739  21.031  0.00  0.00    +0.000 A 
ATOM     13  C   UNL     1      -5.699  -4.229  22.053  0.00  0.00    +0.000 A 
ATOM     14  C   UNL     1      -7.056  -4.097  21.828  0.00  0.00    +0.000 A 
ATOM     15  C   UNL     1      -7.364  -5.812  18.159  0.00  0.00    +0.000 C 
ATOM     16  C   UNL     1      -8.626  -6.396  17.963  0.00  0.00    +0.000 C 
ATOM     17  H   UNL     1     -13.172  -3.320  17.190  0.00  0.00    +0.000 HD
ATOM     18  H   UNL     1     -12.915  -5.424  15.930  0.00  0.00    +0.000 HD
ATOM     19  H   UNL     1     -10.902  -6.870  16.147  0.00  0.00    +0.000 HD
ATOM     20  H   UNL     1      -8.246  -3.766  18.189  0.00  0.00    +0.000 HD
ATOM     21  H   UNL     1      -9.169  -4.906  19.534  0.00  0.00    +0.000 HD
ATOM     22  H   UNL     1      -9.108  -3.021  20.777  0.00  0.00    +0.000 HD
ATOM     23  H   UNL     1      -4.704  -5.736  19.116  0.00  0.00    +0.000 HD
ATOM     24  H   UNL     1      -3.791  -4.720  21.185  0.00  0.00    +0.000 HD
ATOM     25  H   UNL     1      -5.268  -3.895  22.992  0.00  0.00    +0.000 HD
ATOM     26  H   UNL     1      -6.991  -5.154  17.367  0.00  0.00    +0.000 HD
ENDROOT
BRANCH   1  27
ATOM     27  C   UNL     1     -11.353  -2.205  18.989  0.00  0.00    +0.000 C 
ATOM     28  H   UNL     1     -12.360  -2.132  19.424  0.00  0.00    +0.000 HD
ATOM     29  H   UNL     1     -10.681  -2.289  19.850  0.00  0.00    +0.000 HD
BRANCH  27  30
ATOM     30  C   UNL     1     -11.044  -0.913  18.229  0.00  0.00    +0.000 C 
ATOM     31  H   UNL     1     -10.790  -0.111  18.929  0.00  0.00    +0.000 HD
ATOM     32  H   UNL     1     -11.895  -0.556  17.641  0.00  0.00    +0.000 HD
ATOM     33  H   UNL     1     -10.217  -1.045  17.531  0.00  0.00    +0.000 HD
ENDBRANCH  27  30
ENDBRANCH   1  27
BRANCH  14  34
ATOM     34  C   UNL     1      -8.104  -3.799  22.899  0.00  0.00    +0.000 C 
ATOM     35  H   UNL     1      -8.095  -4.581  23.670  0.00  0.00    +0.000 HD
ATOM     36  H   UNL     1      -9.108  -3.818  22.468  0.00  0.00    +0.000 HD
BRANCH  34  37
ATOM     37  C   UNL     1      -7.832  -2.412  23.561  0.00  0.00    +0.000 C 
ATOM     38  H   UNL     1      -6.848  -2.060  23.224  0.00  0.00    +0.000 HD
ATOM     39  H   UNL     1      -7.751  -2.544  24.649  0.00  0.00    +0.000 HD
BRANCH  37  40
ATOM     40  C   UNL     1      -8.813  -1.270  23.351  0.00  0.00    +0.000 A 
ATOM     41  C   UNL     1     -10.008  -1.531  22.647  0.00  0.00    +0.000 A 
ATOM     42  C   UNL     1     -10.969  -0.535  22.445  0.00  0.00    +0.000 A 
ATOM     43  C   UNL     1     -10.755   0.743  22.950  0.00  0.00    +0.000 A 
ATOM     44  C   UNL     1      -9.585   1.017  23.658  0.00  0.00    +0.000 A 
ATOM     45  C   UNL     1      -8.621   0.018  23.861  0.00  0.00    +0.000 A 
ATOM     46  H   UNL     1     -10.211  -2.526  22.249  0.00  0.00    +0.000 HD
ATOM     47  H   UNL     1     -11.886  -0.760  21.901  0.00  0.00    +0.000 HD
ATOM     48  H   UNL     1     -11.505   1.519  22.809  0.00  0.00    +0.000 HD
ATOM     49  H   UNL     1      -9.427   2.011  24.069  0.00  0.00    +0.000 HD
ATOM     50  H   UNL     1      -7.733   0.266  24.433  0.00  0.00    +0.000 HD
ENDBRANCH  37  40
ENDBRANCH  34  37
ENDBRANCH  14  34
BRANCH  16  51
ATOM     51  C   UNL     1      -9.054  -7.518  18.928  0.00  0.00    +0.000 C 
ATOM     52  H   UNL     1     -10.147  -7.558  19.007  0.00  0.00    +0.000 HD
ATOM     53  H   UNL     1      -8.631  -7.214  19.887  0.00  0.00    +0.000 HD
BRANCH  51  54
ATOM     54  O   UNL     1      -8.583  -8.852  18.599  0.00  0.00    +0.000 OA
BRANCH  54  55
ATOM     55  C   UNL     1      -8.867  -9.249  17.287  0.00  0.00    +0.000 A 
ATOM     56  C   UNL     1      -8.950  -8.330  16.221  0.00  0.00    +0.000 A 
ATOM     57  C   UNL     1      -9.247  -8.736  14.918  0.00  0.00    +0.000 A 
ATOM     58  C   UNL     1      -9.478 -10.069  14.643  0.00  0.00    +0.000 A 
ATOM     59  C   UNL     1      -9.418 -10.997  15.680  0.00  0.00    +0.000 A 
ATOM     60  C   UNL     1      -9.115 -10.622  17.007  0.00  0.00    +0.000 A 
ATOM     61  H   UNL     1      -8.815  -7.258  16.349  0.00  0.00    +0.000 HD
ATOM     62  H   UNL     1      -9.321  -8.008  14.128  0.00  0.00    +0.000 HD
ATOM     63  H   UNL     1      -9.709 -10.394  13.633  0.00  0.00    +0.000 HD
ATOM     64  H   UNL     1      -9.622 -12.026  15.401  0.00  0.00    +0.000 HD
BRANCH  60  65
ATOM     65  N   UNL     1      -9.066 -11.599  18.038  0.00  0.00    +0.000 N 
ATOM     66  C   UNL     1      -8.753 -12.949  17.885  0.00  0.00    +0.000 C 
ATOM     67  O   UNL     1      -8.428 -13.521  16.847  0.00  0.00    +0.000 OA
ATOM     68  H   UNL     1      -9.255 -11.248  18.969  0.00  0.00    +0.000 HD
BRANCH  66  69
ATOM     69  C   UNL     1      -8.799 -13.743  19.164  0.00  0.00    +0.000 C 
ATOM     70  H   UNL     1      -9.207 -13.151  19.986  0.00  0.00    +0.000 HD
ATOM     71  H   UNL     1      -7.795 -14.102  19.405  0.00  0.00    +0.000 HD
ATOM     72  H   UNL     1      -9.452 -14.612  19.017  0.00  0.00    +0.000 HD
ENDBRANCH  66  69
ENDBRANCH  60  65
ENDBRANCH  54  55
ENDBRANCH  51  54
ENDBRANCH  16  51
TORSDOF 10
ENDMDL
MODEL 6
REMARK VINA RESULT:    -9.603      2.961      9.655
REMARK INTER + INTRA:         -16.550
REMARK INTER:                 -15.054
REMARK INTRA:                  -1.496
REMARK UNBOUND:                -1.895
REMARK  Name = 
REMARK  10 active torsions:
REMARK  status: ('A' for Active; 'I' for Inactive)
REMARK    1  A    between atoms: C_1  and  C_2
REMARK    2  A    between atoms: C_2  and  C_3
REMARK    3  A    between atoms: C_16  and  C_17
REMARK    4  A    between atoms: C_17  and  C_18
REMARK    5  A    between atoms: C_18  and  C_19
REMARK    6  A    between atoms: C_26  and  C_27
REMARK    7  A    between atoms: C_27  and  O_28
REMARK    8  A    between atoms: O_28  and  C_29
REMARK    9  A    between atoms: C_34  and  N_35
REMARK   10  A    between atoms: C_36  and  C_37
REMARK                            x       y       z     vdW  Elec       q    Type
REMARK                         _______ _______ _______ _____ _____    ______ ____
ROOT
ATOM      1  C   UNL     1     -11.094  -4.029  17.720  0.00  0.00    +0.000 A 
ATOM      2  C   UNL     1     -11.946  -4.633  16.814  0.00  0.00    +0.000 A 
ATOM      3  C   UNL     1     -11.563  -5.839  16.161  0.00  0.00    +0.000 A 
ATOM      4  C   UNL     1     -10.331  -6.487  16.413  0.00  0.00    +0.000 A 
ATOM      5  C   UNL     1      -9.431  -5.923  17.288  0.00  0.00    +0.000 A 
ATOM      6  C   UNL     1      -9.886  -4.681  17.904  0.00  0.00    +0.000 A 
ATOM      7  C   UNL     1      -8.848  -4.236  18.787  0.00  0.00    +0.000 C 
ATOM      8  N   UNL     1      -8.538  -3.445  19.877  0.00  0.00    +0.000 N 
ATOM      9  C   UNL     1      -7.467  -4.329  20.460  0.00  0.00    +0.000 A 
ATOM     10  C   UNL     1      -6.557  -5.129  19.606  0.00  0.00    +0.000 A 
ATOM     11  C   UNL     1      -5.228  -5.047  20.010  0.00  0.00    +0.000 A 
ATOM     12  C   UNL     1      -4.895  -4.392  21.226  0.00  0.00    +0.000 A 
ATOM     13  C   UNL     1      -5.874  -3.968  22.150  0.00  0.00    +0.000 A 
ATOM     14  C   UNL     1      -7.210  -4.022  21.801  0.00  0.00    +0.000 A 
ATOM     15  C   UNL     1      -6.952  -5.865  18.190  0.00  0.00    +0.000 C 
ATOM     16  C   UNL     1      -8.105  -6.616  17.907  0.00  0.00    +0.000 C 
ATOM     17  H   UNL     1     -12.918  -4.189  16.613  0.00  0.00    +0.000 HD
ATOM     18  H   UNL     1     -12.276  -6.276  15.466  0.00  0.00    +0.000 HD
ATOM     19  H   UNL     1     -10.122  -7.436  15.918  0.00  0.00    +0.000 HD
ATOM     20  H   UNL     1      -8.089  -3.953  18.060  0.00  0.00    +0.000 HD
ATOM     21  H   UNL     1      -8.979  -5.167  19.363  0.00  0.00    +0.000 HD
ATOM     22  H   UNL     1      -9.277  -3.256  20.531  0.00  0.00    +0.000 HD
ATOM     23  H   UNL     1      -4.424  -5.412  19.375  0.00  0.00    +0.000 HD
ATOM     24  H   UNL     1      -3.846  -4.227  21.474  0.00  0.00    +0.000 HD
ATOM     25  H   UNL     1      -5.579  -3.553  23.109  0.00  0.00    +0.000 HD
ATOM     26  H   UNL     1      -6.595  -5.186  17.408  0.00  0.00    +0.000 HD
ENDROOT
BRANCH   1  27
ATOM     27  C   UNL     1     -11.432  -2.794  18.521  0.00  0.00    +0.000 C 
ATOM     28  H   UNL     1     -12.482  -2.835  18.849  0.00  0.00    +0.000 HD
ATOM     29  H   UNL     1     -10.849  -2.773  19.447  0.00  0.00    +0.000 HD
BRANCH  27  30
ATOM     30  C   UNL     1     -11.204  -1.494  17.747  0.00  0.00    +0.000 C 
ATOM     31  H   UNL     1     -12.115  -0.886  17.746  0.00  0.00    +0.000 HD
ATOM     32  H   UNL     1     -10.942  -1.667  16.699  0.00  0.00    +0.000 HD
ATOM     33  H   UNL     1     -10.392  -0.907  18.178  0.00  0.00    +0.000 HD
ENDBRANCH  27  30
ENDBRANCH   1  27
BRANCH  14  34
ATOM     34  C   UNL     1      -8.382  -3.836  22.762  0.00  0.00    +0.000 C 
ATOM     35  H   UNL     1      -8.554  -4.754  23.339  0.00  0.00    +0.000 HD
ATOM     36  H   UNL     1      -9.306  -3.654  22.209  0.00  0.00    +0.000 HD
BRANCH  34  37
ATOM     37  C   UNL     1      -8.105  -2.652  23.742  0.00  0.00    +0.000 C 
ATOM     38  H   UNL     1      -7.027  -2.442  23.727  0.00  0.00    +0.000 HD
ATOM     39  H   UNL     1      -8.337  -2.972  24.767  0.00  0.00    +0.000 HD
BRANCH  37  40
ATOM     40  C   UNL     1      -8.822  -1.326  23.546  0.00  0.00    +0.000 A 
ATOM     41  C   UNL     1      -9.832  -1.247  22.564  0.00  0.00    +0.000 A 
ATOM     42  C   UNL     1     -10.555  -0.068  22.353  0.00  0.00    +0.000 A 
ATOM     43  C   UNL     1     -10.283   1.056  23.126  0.00  0.00    +0.000 A 
ATOM     44  C   UNL     1      -9.295   0.993  24.108  0.00  0.00    +0.000 A 
ATOM     45  C   UNL     1      -8.571  -0.189  24.320  0.00  0.00    +0.000 A 
ATOM     46  H   UNL     1     -10.078  -2.114  21.950  0.00  0.00    +0.000 HD
ATOM     47  H   UNL     1     -11.333  -0.031  21.592  0.00  0.00    +0.000 HD
ATOM     48  H   UNL     1     -10.851   1.972  22.977  0.00  0.00    +0.000 HD
ATOM     49  H   UNL     1      -9.096   1.867  24.725  0.00  0.00    +0.000 HD
ATOM     50  H   UNL     1      -7.824  -0.203  25.107  0.00  0.00    +0.000 HD
ENDBRANCH  37  40
ENDBRANCH  34  37
ENDBRANCH  14  34
BRANCH  16  51
ATOM     51  C   UNL     1      -8.473  -7.757  18.875  0.00  0.00    +0.000 C 
ATOM     52  H   UNL     1      -8.844  -7.350  19.822  0.00  0.00    +0.000 HD
ATOM     53  H   UNL     1      -7.524  -8.270  19.045  0.00  0.00    +0.000 HD
BRANCH  51  54
ATOM     54  O   UNL     1      -9.452  -8.711  18.386  0.00  0.00    +0.000 OA
BRANCH  54  55
ATOM     55  C   UNL     1      -9.003 -10.037  18.380  0.00  0.00    +0.000 A 
ATOM     56  C   UNL     1      -8.418 -10.642  19.511  0.00  0.00    +0.000 A 
ATOM     57  C   UNL     1      -7.961 -11.962  19.490  0.00  0.00    +0.000 A 
ATOM     58  C   UNL     1      -8.067 -12.712  18.336  0.00  0.00    +0.000 A 
ATOM     59  C   UNL     1      -8.626 -12.135  17.198  0.00  0.00    +0.000 A 
ATOM     60  C   UNL     1      -9.103 -10.806  17.186  0.00  0.00    +0.000 A 
ATOM     61  H   UNL     1      -8.265 -10.118  20.452  0.00  0.00    +0.000 HD
ATOM     62  H   UNL     1      -7.504 -12.390  20.365  0.00  0.00    +0.000 HD
ATOM     63  H   UNL     1      -7.715 -13.739  18.310  0.00  0.00    +0.000 HD
ATOM     64  H   UNL     1      -8.668 -12.773  16.321  0.00  0.00    +0.000 HD
BRANCH  60  65
ATOM     65  N   UNL     1      -9.664 -10.253  16.004  0.00  0.00    +0.000 N 
ATOM     66  C   UNL     1      -9.100 -10.279  14.730  0.00  0.00    +0.000 C 
ATOM     67  O   UNL     1      -8.046 -10.814  14.396  0.00  0.00    +0.000 OA
ATOM     68  H   UNL     1     -10.576  -9.827  16.122  0.00  0.00    +0.000 HD
BRANCH  66  69
ATOM     69  C   UNL     1      -9.927  -9.592  13.673  0.00  0.00    +0.000 C 
ATOM     70  H   UNL     1      -9.490  -8.632  13.388  0.00  0.00    +0.000 HD
ATOM     71  H   UNL     1     -10.948  -9.461  14.040  0.00  0.00    +0.000 HD
ATOM     72  H   UNL     1      -9.957 -10.227  12.780  0.00  0.00    +0.000 HD
ENDBRANCH  66  69
ENDBRANCH  60  65
ENDBRANCH  54  55
ENDBRANCH  51  54
ENDBRANCH  16  51
TORSDOF 10
ENDMDL
MODEL 7
REMARK VINA RESULT:    -9.550      3.567      8.828
REMARK INTER + INTRA:         -16.469
REMARK INTER:                 -14.824
REMARK INTRA:                  -1.645
REMARK UNBOUND:                -1.895
REMARK  Name = 
REMARK  10 active torsions:
REMARK  status: ('A' for Active; 'I' for Inactive)
REMARK    1  A    between atoms: C_1  and  C_2
REMARK    2  A    between atoms: C_2  and  C_3
REMARK    3  A    between atoms: C_16  and  C_17
REMARK    4  A    between atoms: C_17  and  C_18
REMARK    5  A    between atoms: C_18  and  C_19
REMARK    6  A    between atoms: C_26  and  C_27
REMARK    7  A    between atoms: C_27  and  O_28
REMARK    8  A    between atoms: O_28  and  C_29
REMARK    9  A    between atoms: C_34  and  N_35
REMARK   10  A    between atoms: C_36  and  C_37
REMARK                            x       y       z     vdW  Elec       q    Type
REMARK                         _______ _______ _______ _____ _____    ______ ____
ROOT
ATOM      1  C   UNL     1      -9.221  -9.163  18.137  0.00  0.00    +0.000 A 
ATOM      2  C   UNL     1      -9.090 -10.222  17.256  0.00  0.00    +0.000 A 
ATOM      3  C   UNL     1      -9.523 -10.091  15.906  0.00  0.00    +0.000 A 
ATOM      4  C   UNL     1     -10.075  -8.894  15.393  0.00  0.00    +0.000 A 
ATOM      5  C   UNL     1     -10.251  -7.812  16.226  0.00  0.00    +0.000 A 
ATOM      6  C   UNL     1      -9.800  -8.028  17.597  0.00  0.00    +0.000 A 
ATOM      7  C   UNL     1     -10.041  -6.814  18.321  0.00  0.00    +0.000 C 
ATOM      8  N   UNL     1      -9.708  -6.064  19.434  0.00  0.00    +0.000 N 
ATOM      9  C   UNL     1      -9.871  -4.704  18.806  0.00  0.00    +0.000 A 
ATOM     10  C   UNL     1     -10.903  -4.432  17.777  0.00  0.00    +0.000 A 
ATOM     11  C   UNL     1     -11.588  -3.241  18.004  0.00  0.00    +0.000 A 
ATOM     12  C   UNL     1     -11.156  -2.358  19.029  0.00  0.00    +0.000 A 
ATOM     13  C   UNL     1      -9.942  -2.543  19.726  0.00  0.00    +0.000 A 
ATOM     14  C   UNL     1      -9.222  -3.708  19.545  0.00  0.00    +0.000 A 
ATOM     15  C   UNL     1     -11.406  -5.471  16.608  0.00  0.00    +0.000 C 
ATOM     16  C   UNL     1     -10.612  -6.294  15.793  0.00  0.00    +0.000 C 
ATOM     17  H   UNL     1      -8.641 -11.151  17.598  0.00  0.00    +0.000 HD
ATOM     18  H   UNL     1      -9.387 -10.951  15.256  0.00  0.00    +0.000 HD
ATOM     19  H   UNL     1     -10.337  -8.844  14.335  0.00  0.00    +0.000 HD
ATOM     20  H   UNL     1     -11.129  -6.826  18.355  0.00  0.00    +0.000 HD
ATOM     21  H   UNL     1      -9.349  -6.300  17.634  0.00  0.00    +0.000 HD
ATOM     22  H   UNL     1      -8.792  -6.200  19.821  0.00  0.00    +0.000 HD
ATOM     23  H   UNL     1     -12.497  -3.004  17.457  0.00  0.00    +0.000 HD
ATOM     24  H   UNL     1     -11.767  -1.490  19.279  0.00  0.00    +0.000 HD
ATOM     25  H   UNL     1      -9.601  -1.798  20.439  0.00  0.00    +0.000 HD
ATOM     26  H   UNL     1     -12.338  -5.901  16.992  0.00  0.00    +0.000 HD
ENDROOT
BRANCH   1  27
ATOM     27  C   UNL     1      -8.727  -9.172  19.564  0.00  0.00    +0.000 C 
ATOM     28  H   UNL     1      -8.023  -8.342  19.723  0.00  0.00    +0.000 HD
ATOM     29  H   UNL     1      -9.556  -8.973  20.252  0.00  0.00    +0.000 HD
BRANCH  27  30
ATOM     30  C   UNL     1      -8.046 -10.485  19.958  0.00  0.00    +0.000 C 
ATOM     31  H   UNL     1      -7.039 -10.291  20.341  0.00  0.00    +0.000 HD
ATOM     32  H   UNL     1      -7.933 -11.171  19.113  0.00  0.00    +0.000 HD
ATOM     33  H   UNL     1      -8.614 -11.020  20.720  0.00  0.00    +0.000 HD
ENDBRANCH  27  30
ENDBRANCH   1  27
BRANCH  14  34
ATOM     34  C   UNL     1      -7.793  -3.948  20.027  0.00  0.00    +0.000 C 
ATOM     35  H   UNL     1      -7.154  -3.092  19.771  0.00  0.00    +0.000 HD
ATOM     36  H   UNL     1      -7.355  -4.809  19.516  0.00  0.00    +0.000 HD
BRANCH  34  37
ATOM     37  C   UNL     1      -7.766  -4.172  21.571  0.00  0.00    +0.000 C 
ATOM     38  H   UNL     1      -6.775  -4.562  21.842  0.00  0.00    +0.000 HD
ATOM     39  H   UNL     1      -8.484  -4.963  21.832  0.00  0.00    +0.000 HD
BRANCH  37  40
ATOM     40  C   UNL     1      -8.064  -3.013  22.508  0.00  0.00    +0.000 A 
ATOM     41  C   UNL     1      -8.897  -3.246  23.623  0.00  0.00    +0.000 A 
ATOM     42  C   UNL     1      -9.186  -2.234  24.544  0.00  0.00    +0.000 A 
ATOM     43  C   UNL     1      -8.640  -0.967  24.370  0.00  0.00    +0.000 A 
ATOM     44  C   UNL     1      -7.804  -0.720  23.281  0.00  0.00    +0.000 A 
ATOM     45  C   UNL     1      -7.514  -1.736  22.358  0.00  0.00    +0.000 A 
ATOM     46  H   UNL     1      -9.332  -4.232  23.794  0.00  0.00    +0.000 HD
ATOM     47  H   UNL     1      -9.830  -2.438  25.398  0.00  0.00    +0.000 HD
ATOM     48  H   UNL     1      -8.848  -0.178  25.090  0.00  0.00    +0.000 HD
ATOM     49  H   UNL     1      -7.362   0.265  23.156  0.00  0.00    +0.000 HD
ATOM     50  H   UNL     1      -6.845  -1.509  21.534  0.00  0.00    +0.000 HD
ENDBRANCH  37  40
ENDBRANCH  34  37
ENDBRANCH  14  34
BRANCH  16  51
ATOM     51  C   UNL     1      -9.442  -5.638  15.035  0.00  0.00    +0.000 C 
ATOM     52  H   UNL     1      -8.601  -6.336  14.952  0.00  0.00    +0.000 HD
ATOM     53  H   UNL     1      -9.158  -4.798  15.671  0.00  0.00    +0.000 HD
BRANCH  51  54
ATOM     54  O   UNL     1      -9.747  -5.148  13.702  0.00  0.00    +0.000 OA
BRANCH  54  55
ATOM     55  C   UNL     1     -10.305  -3.865  13.680  0.00  0.00    +0.000 A 
ATOM     56  C   UNL     1     -10.016  -2.898  14.664  0.00  0.00    +0.000 A 
ATOM     57  C   UNL     1     -10.589  -1.624  14.640  0.00  0.00    +0.000 A 
ATOM     58  C   UNL     1     -11.474  -1.283  13.638  0.00  0.00    +0.000 A 
ATOM     59  C   UNL     1     -11.791  -2.224  12.661  0.00  0.00    +0.000 A 
ATOM     60  C   UNL     1     -11.226  -3.517  12.652  0.00  0.00    +0.000 A 
ATOM     61  H   UNL     1      -9.355  -3.089  15.508  0.00  0.00    +0.000 HD
ATOM     62  H   UNL     1     -10.361  -0.914  15.416  0.00  0.00    +0.000 HD
ATOM     63  H   UNL     1     -11.924  -0.295  13.610  0.00  0.00    +0.000 HD
ATOM     64  H   UNL     1     -12.503  -1.897  11.909  0.00  0.00    +0.000 HD
BRANCH  60  65
ATOM     65  N   UNL     1     -11.577  -4.450  11.639  0.00  0.00    +0.000 N 
ATOM     66  C   UNL     1     -11.570  -4.220  10.264  0.00  0.00    +0.000 C 
ATOM     67  O   UNL     1     -11.225  -3.192   9.686  0.00  0.00    +0.000 OA
ATOM     68  H   UNL     1     -11.827  -5.372  11.975  0.00  0.00    +0.000 HD
BRANCH  66  69
ATOM     69  C   UNL     1     -12.010  -5.400   9.437  0.00  0.00    +0.000 C 
ATOM     70  H   UNL     1     -12.548  -6.132  10.043  0.00  0.00    +0.000 HD
ATOM     71  H   UNL     1     -11.137  -5.855   8.962  0.00  0.00    +0.000 HD
ATOM     72  H   UNL     1     -12.689  -5.047   8.651  0.00  0.00    +0.000 HD
ENDBRANCH  66  69
ENDBRANCH  60  65
ENDBRANCH  54  55
ENDBRANCH  51  54
ENDBRANCH  16  51
TORSDOF 10
ENDMDL
MODEL 8
REMARK VINA RESULT:    -9.448      2.572      7.815
REMARK INTER + INTRA:         -16.315
REMARK INTER:                 -14.414
REMARK INTRA:                  -1.900
REMARK UNBOUND:                -1.895
REMARK  Name = 
REMARK  10 active torsions:
REMARK  status: ('A' for Active; 'I' for Inactive)
REMARK    1  A    between atoms: C_1  and  C_2
REMARK    2  A    between atoms: C_2  and  C_3
REMARK    3  A    between atoms: C_16  and  C_17
REMARK    4  A    between atoms: C_17  and  C_18
REMARK    5  A    between atoms: C_18  and  C_19
REMARK    6  A    between atoms: C_26  and  C_27
REMARK    7  A    between atoms: C_27  and  O_28
REMARK    8  A    between atoms: O_28  and  C_29
REMARK    9  A    between atoms: C_34  and  N_35
REMARK   10  A    between atoms: C_36  and  C_37
REMARK                            x       y       z     vdW  Elec       q    Type
REMARK                         _______ _______ _______ _____ _____    ______ ____
ROOT
ATOM      1  C   UNL     1      -8.867  -9.329  18.514  0.00  0.00    +0.000 A 
ATOM      2  C   UNL     1      -8.887 -10.418  17.661  0.00  0.00    +0.000 A 
ATOM      3  C   UNL     1      -9.601 -10.353  16.432  0.00  0.00    +0.000 A 
ATOM      4  C   UNL     1     -10.292  -9.194  16.008  0.00  0.00    +0.000 A 
ATOM      5  C   UNL     1     -10.327  -8.085  16.823  0.00  0.00    +0.000 A 
ATOM      6  C   UNL     1      -9.588  -8.233  18.073  0.00  0.00    +0.000 A 
ATOM      7  C   UNL     1      -9.713  -6.999  18.792  0.00  0.00    +0.000 C 
ATOM      8  N   UNL     1      -9.179  -6.195  19.782  0.00  0.00    +0.000 N 
ATOM      9  C   UNL     1      -9.520  -4.867  19.159  0.00  0.00    +0.000 A 
ATOM     10  C   UNL     1     -10.757  -4.665  18.365  0.00  0.00    +0.000 A 
ATOM     11  C   UNL     1     -11.421  -3.487  18.694  0.00  0.00    +0.000 A 
ATOM     12  C   UNL     1     -10.813  -2.551  19.574  0.00  0.00    +0.000 A 
ATOM     13  C   UNL     1      -9.473  -2.674  20.001  0.00  0.00    +0.000 A 
ATOM     14  C   UNL     1      -8.766  -3.824  19.709  0.00  0.00    +0.000 A 
ATOM     15  C   UNL     1     -11.459  -5.764  17.366  0.00  0.00    +0.000 C 
ATOM     16  C   UNL     1     -10.826  -6.596  16.428  0.00  0.00    +0.000 C 
ATOM     17  H   UNL     1      -8.342 -11.319  17.930  0.00  0.00    +0.000 HD
ATOM     18  H   UNL     1      -9.575 -11.235  15.795  0.00  0.00    +0.000 HD
ATOM     19  H   UNL     1     -10.775  -9.194  15.030  0.00  0.00    +0.000 HD
ATOM     20  H   UNL     1     -10.768  -7.040  19.057  0.00  0.00    +0.000 HD
ATOM     21  H   UNL     1      -9.202  -6.493  17.956  0.00  0.00    +0.000 HD
ATOM     22  H   UNL     1      -8.197  -6.290  19.969  0.00  0.00    +0.000 HD
ATOM     23  H   UNL     1     -12.433  -3.297  18.347  0.00  0.00    +0.000 HD
ATOM     24  H   UNL     1     -11.388  -1.692  19.920  0.00  0.00    +0.000 HD
ATOM     25  H   UNL     1      -9.016  -1.892  20.600  0.00  0.00    +0.000 HD
ATOM     26  H   UNL     1     -12.271  -6.205  17.954  0.00  0.00    +0.000 HD
ENDROOT
BRANCH   1  27
ATOM     27  C   UNL     1      -8.081  -9.267  19.803  0.00  0.00    +0.000 C 
ATOM     28  H   UNL     1      -7.115  -9.777  19.678  0.00  0.00    +0.000 HD
ATOM     29  H   UNL     1      -7.822  -8.229  20.038  0.00  0.00    +0.000 HD
BRANCH  27  30
ATOM     30  C   UNL     1      -8.821  -9.886  20.990  0.00  0.00    +0.000 C 
ATOM     31  H   UNL     1      -8.258  -9.727  21.915  0.00  0.00    +0.000 HD
ATOM     32  H   UNL     1      -8.955 -10.967  20.887  0.00  0.00    +0.000 HD
ATOM     33  H   UNL     1      -9.818  -9.459  21.109  0.00  0.00    +0.000 HD
ENDBRANCH  27  30
ENDBRANCH   1  27
BRANCH  14  34
ATOM     34  C   UNL     1      -7.260  -4.003  19.883  0.00  0.00    +0.000 C 
ATOM     35  H   UNL     1      -6.722  -3.132  19.486  0.00  0.00    +0.000 HD
ATOM     36  H   UNL     1      -6.906  -4.860  19.304  0.00  0.00    +0.000 HD
BRANCH  34  37
ATOM     37  C   UNL     1      -6.901  -4.193  21.390  0.00  0.00    +0.000 C 
ATOM     38  H   UNL     1      -5.807  -4.150  21.488  0.00  0.00    +0.000 HD
ATOM     39  H   UNL     1      -7.194  -5.204  21.705  0.00  0.00    +0.000 HD
BRANCH  37  40
ATOM     40  C   UNL     1      -7.481  -3.247  22.429  0.00  0.00    +0.000 A 
ATOM     41  C   UNL     1      -7.109  -1.887  22.382  0.00  0.00    +0.000 A 
ATOM     42  C   UNL     1      -7.630  -0.955  23.287  0.00  0.00    +0.000 A 
ATOM     43  C   UNL     1      -8.540  -1.367  24.253  0.00  0.00    +0.000 A 
ATOM     44  C   UNL     1      -8.929  -2.706  24.308  0.00  0.00    +0.000 A 
ATOM     45  C   UNL     1      -8.407  -3.640  23.401  0.00  0.00    +0.000 A 
ATOM     46  H   UNL     1      -6.406  -1.530  21.628  0.00  0.00    +0.000 HD
ATOM     47  H   UNL     1      -7.330   0.090  23.230  0.00  0.00    +0.000 HD
ATOM     48  H   UNL     1      -8.961  -0.646  24.951  0.00  0.00    +0.000 HD
ATOM     49  H   UNL     1      -9.656  -3.024  25.052  0.00  0.00    +0.000 HD
ATOM     50  H   UNL     1      -8.749  -4.667  23.464  0.00  0.00    +0.000 HD
ENDBRANCH  37  40
ENDBRANCH  34  37
ENDBRANCH  14  34
BRANCH  16  51
ATOM     51  C   UNL     1      -9.869  -5.938  15.416  0.00  0.00    +0.000 C 
ATOM     52  H   UNL     1     -10.184  -6.163  14.390  0.00  0.00    +0.000 HD
ATOM     53  H   UNL     1      -8.908  -6.417  15.616  0.00  0.00    +0.000 HD
BRANCH  51  54
ATOM     54  O   UNL     1      -9.718  -4.499  15.530  0.00  0.00    +0.000 OA
BRANCH  54  55
ATOM     55  C   UNL     1     -10.446  -3.772  14.581  0.00  0.00    +0.000 A 
ATOM     56  C   UNL     1     -11.245  -4.397  13.601  0.00  0.00    +0.000 A 
ATOM     57  C   UNL     1     -11.958  -3.662  12.651  0.00  0.00    +0.000 A 
ATOM     58  C   UNL     1     -11.887  -2.284  12.646  0.00  0.00    +0.000 A 
ATOM     59  C   UNL     1     -11.094  -1.641  13.593  0.00  0.00    +0.000 A 
ATOM     60  C   UNL     1     -10.365  -2.351  14.571  0.00  0.00    +0.000 A 
ATOM     61  H   UNL     1     -11.334  -5.477  13.509  0.00  0.00    +0.000 HD
ATOM     62  H   UNL     1     -12.545  -4.170  11.905  0.00  0.00    +0.000 HD
ATOM     63  H   UNL     1     -12.439  -1.704  11.912  0.00  0.00    +0.000 HD
ATOM     64  H   UNL     1     -11.071  -0.557  13.528  0.00  0.00    +0.000 HD
BRANCH  60  65
ATOM     65  N   UNL     1      -9.565  -1.658  15.518  0.00  0.00    +0.000 N 
ATOM     66  C   UNL     1     -10.017  -0.764  16.488  0.00  0.00    +0.000 C 
ATOM     67  O   UNL     1     -11.182  -0.450  16.720  0.00  0.00    +0.000 OA
ATOM     68  H   UNL     1      -8.575  -1.872  15.481  0.00  0.00    +0.000 HD
BRANCH  66  69
ATOM     69  C   UNL     1      -8.925  -0.171  17.341  0.00  0.00    +0.000 C 
ATOM     70  H   UNL     1      -9.336   0.341  18.214  0.00  0.00    +0.000 HD
ATOM     71  H   UNL     1      -8.324   0.513  16.737  0.00  0.00    +0.000 HD
ATOM     72  H   UNL     1      -8.278  -0.981  17.698  0.00  0.00    +0.000 HD
ENDBRANCH  66  69
ENDBRANCH  60  65
ENDBRANCH  54  55
ENDBRANCH  51  54
ENDBRANCH  16  51
TORSDOF 10
ENDMDL
MODEL 9
REMARK VINA RESULT:    -9.315      2.883      6.007
REMARK INTER + INTRA:         -16.111
REMARK INTER:                 -13.941
REMARK INTRA:                  -2.170
REMARK UNBOUND:                -1.895
REMARK  Name = 
REMARK  10 active torsions:
REMARK  status: ('A' for Active; 'I' for Inactive)
REMARK    1  A    between atoms: C_1  and  C_2
REMARK    2  A    between atoms: C_2  and  C_3
REMARK    3  A    between atoms: C_16  and  C_17
REMARK    4  A    between atoms: C_17  and  C_18
REMARK    5  A    between atoms: C_18  and  C_19
REMARK    6  A    between atoms: C_26  and  C_27
REMARK    7  A    between atoms: C_27  and  O_28
REMARK    8  A    between atoms: O_28  and  C_29
REMARK    9  A    between atoms: C_34  and  N_35
REMARK   10  A    between atoms: C_36  and  C_37
REMARK                            x       y       z     vdW  Elec       q    Type
REMARK                         _______ _______ _______ _____ _____    ______ ____
ROOT
ATOM      1  C   UNL     1     -10.691  -0.849  18.209  0.00  0.00    +0.000 A 
ATOM      2  C   UNL     1     -11.290   0.053  17.349  0.00  0.00    +0.000 A 
ATOM      3  C   UNL     1     -12.162   1.058  17.855  0.00  0.00    +0.000 A 
ATOM      4  C   UNL     1     -12.441   1.205  19.234  0.00  0.00    +0.000 A 
ATOM      5  C   UNL     1     -11.892   0.324  20.138  0.00  0.00    +0.000 A 
ATOM      6  C   UNL     1     -11.025  -0.688  19.543  0.00  0.00    +0.000 A 
ATOM      7  C   UNL     1     -10.531  -1.508  20.610  0.00  0.00    +0.000 C 
ATOM      8  N   UNL     1      -9.547  -2.394  21.008  0.00  0.00    +0.000 N 
ATOM      9  C   UNL     1      -9.486  -1.979  22.455  0.00  0.00    +0.000 A 
ATOM     10  C   UNL     1     -10.691  -1.536  23.196  0.00  0.00    +0.000 A 
ATOM     11  C   UNL     1     -10.785  -2.110  24.462  0.00  0.00    +0.000 A 
ATOM     12  C   UNL     1      -9.707  -2.880  24.974  0.00  0.00    +0.000 A 
ATOM     13  C   UNL     1      -8.453  -2.950  24.329  0.00  0.00    +0.000 A 
ATOM     14  C   UNL     1      -8.302  -2.403  23.069  0.00  0.00    +0.000 A 
ATOM     15  C   UNL     1     -11.940  -0.661  22.585  0.00  0.00    +0.000 C 
ATOM     16  C   UNL     1     -11.869   0.466  21.750  0.00  0.00    +0.000 C 
ATOM     17  H   UNL     1     -11.079  -0.001  16.283  0.00  0.00    +0.000 HD
ATOM     18  H   UNL     1     -12.597   1.746  17.135  0.00  0.00    +0.000 HD
ATOM     19  H   UNL     1     -13.077   2.029  19.560  0.00  0.00    +0.000 HD
ATOM     20  H   UNL     1     -11.447  -2.024  20.892  0.00  0.00    +0.000 HD
ATOM     21  H   UNL     1     -10.050  -0.614  21.038  0.00  0.00    +0.000 HD
ATOM     22  H   UNL     1      -8.655  -2.323  20.551  0.00  0.00    +0.000 HD
ATOM     23  H   UNL     1     -11.701  -2.041  25.042  0.00  0.00    +0.000 HD
ATOM     24  H   UNL     1      -9.836  -3.424  25.910  0.00  0.00    +0.000 HD
ATOM     25  H   UNL     1      -7.625  -3.475  24.797  0.00  0.00    +0.000 HD
ATOM     26  H   UNL     1     -12.720  -1.397  22.363  0.00  0.00    +0.000 HD
ENDROOT
BRANCH   1  27
ATOM     27  C   UNL     1      -9.695  -1.903  17.786  0.00  0.00    +0.000 C 
ATOM     28  H   UNL     1      -9.091  -1.532  16.945  0.00  0.00    +0.000 HD
ATOM     29  H   UNL     1      -8.974  -2.086  18.590  0.00  0.00    +0.000 HD
BRANCH  27  30
ATOM     30  C   UNL     1     -10.351  -3.225  17.383  0.00  0.00    +0.000 C 
ATOM     31  H   UNL     1      -9.782  -4.070  17.782  0.00  0.00    +0.000 HD
ATOM     32  H   UNL     1     -10.394  -3.361  16.298  0.00  0.00    +0.000 HD
ATOM     33  H   UNL     1     -11.378  -3.291  17.745  0.00  0.00    +0.000 HD
ENDBRANCH  27  30
ENDBRANCH   1  27
BRANCH  14  34
ATOM     34  C   UNL     1      -6.970  -2.182  22.356  0.00  0.00    +0.000 C 
ATOM     35  H   UNL     1      -6.400  -1.383  22.848  0.00  0.00    +0.000 HD
ATOM     36  H   UNL     1      -7.136  -1.842  21.331  0.00  0.00    +0.000 HD
BRANCH  34  37
ATOM     37  C   UNL     1      -6.126  -3.495  22.352  0.00  0.00    +0.000 C 
ATOM     38  H   UNL     1      -6.475  -4.127  23.180  0.00  0.00    +0.000 HD
ATOM     39  H   UNL     1      -5.079  -3.250  22.578  0.00  0.00    +0.000 HD
BRANCH  37  40
ATOM     40  C   UNL     1      -6.091  -4.367  21.107  0.00  0.00    +0.000 A 
ATOM     41  C   UNL     1      -7.315  -4.807  20.560  0.00  0.00    +0.000 A 
ATOM     42  C   UNL     1      -7.359  -5.584  19.398  0.00  0.00    +0.000 A 
ATOM     43  C   UNL     1      -6.176  -5.932  18.756  0.00  0.00    +0.000 A 
ATOM     44  C   UNL     1      -4.957  -5.498  19.276  0.00  0.00    +0.000 A 
ATOM     45  C   UNL     1      -4.913  -4.718  20.441  0.00  0.00    +0.000 A 
ATOM     46  H   UNL     1      -8.262  -4.540  21.033  0.00  0.00    +0.000 HD
ATOM     47  H   UNL     1      -8.316  -5.910  18.992  0.00  0.00    +0.000 HD
ATOM     48  H   UNL     1      -6.202  -6.525  17.843  0.00  0.00    +0.000 HD
ATOM     49  H   UNL     1      -4.032  -5.754  18.763  0.00  0.00    +0.000 HD
ATOM     50  H   UNL     1      -3.946  -4.384  20.803  0.00  0.00    +0.000 HD
ENDBRANCH  37  40
ENDBRANCH  34  37
ENDBRANCH  14  34
BRANCH  16  51
ATOM     51  C   UNL     1     -10.962   1.631  22.194  0.00  0.00    +0.000 C 
ATOM     52  H   UNL     1     -11.046   2.468  21.492  0.00  0.00    +0.000 HD
ATOM     53  H   UNL     1      -9.956   1.211  22.143  0.00  0.00    +0.000 HD
BRANCH  51  54
ATOM     54  O   UNL     1     -11.200   2.145  23.531  0.00  0.00    +0.000 OA
BRANCH  54  55
ATOM     55  C   UNL     1     -10.036   2.520  24.212  0.00  0.00    +0.000 A 
ATOM     56  C   UNL     1      -8.840   1.779  24.128  0.00  0.00    +0.000 A 
ATOM     57  C   UNL     1      -7.688   2.154  24.823  0.00  0.00    +0.000 A 
ATOM     58  C   UNL     1      -7.700   3.276  25.628  0.00  0.00    +0.000 A 
ATOM     59  C   UNL     1      -8.872   4.018  25.742  0.00  0.00    +0.000 A 
ATOM     60  C   UNL     1     -10.053   3.671  25.050  0.00  0.00    +0.000 A 
ATOM     61  H   UNL     1      -8.747   0.865  23.545  0.00  0.00    +0.000 HD
ATOM     62  H   UNL     1      -6.794   1.557  24.752  0.00  0.00    +0.000 HD
ATOM     63  H   UNL     1      -6.809   3.576  26.171  0.00  0.00    +0.000 HD
ATOM     64  H   UNL     1      -8.820   4.881  26.400  0.00  0.00    +0.000 HD
BRANCH  60  65
ATOM     65  N   UNL     1     -11.230   4.453  25.194  0.00  0.00    +0.000 N 
ATOM     66  C   UNL     1     -12.147   4.381  26.241  0.00  0.00    +0.000 C 
ATOM     67  O   UNL     1     -12.082   3.664  27.237  0.00  0.00    +0.000 OA
ATOM     68  H   UNL     1     -11.379   5.140  24.465  0.00  0.00    +0.000 HD
BRANCH  66  69
ATOM     69  C   UNL     1     -13.311   5.330  26.110  0.00  0.00    +0.000 C 
ATOM     70  H   UNL     1     -12.982   6.371  26.153  0.00  0.00    +0.000 HD
ATOM     71  H   UNL     1     -14.041   5.120  26.896  0.00  0.00    +0.000 HD
ATOM     72  H   UNL     1     -13.791   5.168  25.138  0.00  0.00    +0.000 HD
ENDBRANCH  66  69
ENDBRANCH  60  65
ENDBRANCH  54  55
ENDBRANCH  51  54
ENDBRANCH  16  51
TORSDOF 10
ENDMDL
