
 OpenBabel01112422403D

 39 42  0  0  0  0  0  0  0  0999 V2000
    0.9492    0.0557   -0.1788 O   0  0  0  0  0  0  0  0  0  0  0  0
    2.3167    0.0041   -0.1380 C   0  0  0  0  0  0  0  0  0  0  0  0
    2.9648   -1.2336   -0.1623 C   0  0  0  0  0  0  0  0  0  0  0  0
    4.3739   -1.2738   -0.0844 C   0  0  0  0  0  0  0  0  0  0  0  0
    5.3182   -2.3438   -0.0752 C   0  0  0  0  0  0  0  0  0  0  0  0
    5.1915   -3.7475   -0.2007 C   0  0  0  0  0  0  0  0  0  0  0  0
    6.3182   -4.5689   -0.0944 C   0  0  0  0  0  0  0  0  0  0  0  0
    7.5500   -3.9993    0.1819 C   0  0  0  0  0  0  0  0  0  0  0  0
    8.6767   -4.7675    0.3218 O   0  0  0  0  0  0  0  0  0  0  0  0
    7.7015   -2.6159    0.3177 C   0  0  0  0  0  0  0  0  0  0  0  0
    8.9434   -2.1183    0.6283 O   0  0  0  0  0  0  0  0  0  0  0  0
    6.5847   -1.7881    0.1344 C   0  0  0  0  0  0  0  0  0  0  0  0
    6.4344   -0.4135    0.0607 N   0  0  0  0  0  0  0  0  0  0  0  0
    7.5278    0.5535   -0.0532 C   0  0  0  0  0  0  0  0  0  0  0  0
    7.7876    0.9217   -1.4999 C   0  0  0  0  0  0  0  0  0  0  0  0
    7.6167    2.2411   -1.9455 C   0  0  0  0  0  0  0  0  0  0  0  0
    7.7864    2.5629   -3.2947 C   0  0  0  0  0  0  0  0  0  0  0  0
    8.1374    1.5747   -4.2123 C   0  0  0  0  0  0  0  0  0  0  0  0
    8.3482    0.2693   -3.7782 C   0  0  0  0  0  0  0  0  0  0  0  0
    8.1864   -0.0521   -2.4301 C   0  0  0  0  0  0  0  0  0  0  0  0
    5.0881   -0.0766    0.0069 C   0  0  0  0  0  0  0  0  0  0  0  0
    4.4404    1.1739   -0.0019 C   0  0  0  0  0  0  0  0  0  0  0  0
    3.0441    1.1850   -0.0683 C   0  0  0  0  0  0  0  0  0  0  0  0
    2.3708    2.3778   -0.0625 O   0  0  0  0  0  0  0  0  0  0  0  0
    0.5991   -0.8468   -0.1436 H   0  0  0  0  0  0  0  0  0  0  0  0
    2.4067   -2.1611   -0.2260 H   0  0  0  0  0  0  0  0  0  0  0  0
    4.2158   -4.1870   -0.3909 H   0  0  0  0  0  0  0  0  0  0  0  0
    6.2017   -5.6409   -0.2116 H   0  0  0  0  0  0  0  0  0  0  0  0
    8.4508   -5.6777    0.0632 H   0  0  0  0  0  0  0  0  0  0  0  0
    9.4872   -2.9163    0.7876 H   0  0  0  0  0  0  0  0  0  0  0  0
    8.4324    0.1568    0.4101 H   0  0  0  0  0  0  0  0  0  0  0  0
    7.2449    1.4325    0.5370 H   0  0  0  0  0  0  0  0  0  0  0  0
    7.3359    3.0280   -1.2501 H   0  0  0  0  0  0  0  0  0  0  0  0
    7.6335    3.5842   -3.6339 H   0  0  0  0  0  0  0  0  0  0  0  0
    8.2465    1.8210   -5.2652 H   0  0  0  0  0  0  0  0  0  0  0  0
    8.6275   -0.5042   -4.4887 H   0  0  0  0  0  0  0  0  0  0  0  0
    8.3543   -1.0795   -2.1139 H   0  0  0  0  0  0  0  0  0  0  0  0
    5.0078    2.0955    0.0495 H   0  0  0  0  0  0  0  0  0  0  0  0
    3.0140    3.1007   -0.0555 H   0  0  0  0  0  0  0  0  0  0  0  0
  1  2  1  0  0  0  0
  1 25  1  0  0  0  0
  2  3  1  0  0  0  0
  2 23  2  0  0  0  0
  3  4  2  0  0  0  0
  3 26  1  0  0  0  0
  4  5  1  0  0  0  0
  4 21  1  0  0  0  0
  5  6  1  0  0  0  0
  5 12  2  0  0  0  0
  6  7  2  0  0  0  0
  6 27  1  0  0  0  0
  7  8  1  0  0  0  0
  7 28  1  0  0  0  0
  8  9  1  0  0  0  0
  8 10  2  0  0  0  0
  9 29  1  0  0  0  0
 10 11  1  0  0  0  0
 10 12  1  0  0  0  0
 11 30  1  0  0  0  0
 12 13  1  0  0  0  0
 13 14  1  0  0  0  0
 13 21  1  0  0  0  0
 14 15  1  0  0  0  0
 14 31  1  0  0  0  0
 14 32  1  0  0  0  0
 15 16  1  0  0  0  0
 15 20  2  0  0  0  0
 16 17  2  0  0  0  0
 16 33  1  0  0  0  0
 17 18  1  0  0  0  0
 17 34  1  0  0  0  0
 18 19  2  0  0  0  0
 18 35  1  0  0  0  0
 19 20  1  0  0  0  0
 19 36  1  0  0  0  0
 20 37  1  0  0  0  0
 21 22  2  0  0  0  0
 22 23  1  0  0  0  0
 22 38  1  0  0  0  0
 23 24  1  0  0  0  0
 24 39  1  0  0  0  0
M  END
$$$$
