
 OpenBabel01112423013D

 61 64  0  0  0  0  0  0  0  0999 V2000
   10.7706   -6.1029    2.0980 C   0  0  0  0  0  0  0  0  0  0  0  0
   10.0021   -5.0379    1.5398 O   0  0  0  0  0  0  0  0  0  0  0  0
   10.3492   -4.6777    0.2785 C   0  0  0  0  0  0  0  0  0  0  0  0
   11.2253   -5.1882   -0.3993 O   0  0  0  0  0  0  0  0  0  0  0  0
    9.5122   -3.5288   -0.1678 C   0  0  0  0  0  0  0  0  0  0  0  0
    8.4903   -3.0118    0.6378 C   0  0  0  0  0  0  0  0  0  0  0  0
    7.7410   -1.9241    0.2009 C   0  0  0  0  0  0  0  0  0  0  0  0
    8.0093   -1.3383   -1.0349 C   0  0  0  0  0  0  0  0  0  0  0  0
    9.0293   -1.8310   -1.8497 C   0  0  0  0  0  0  0  0  0  0  0  0
    9.3800   -1.2519   -3.0851 N   0  0  0  0  0  0  0  0  0  0  0  0
    8.9010   -0.0793   -3.6397 C   0  0  0  0  0  0  0  0  0  0  0  0
    7.9685    0.5824   -3.1864 O   0  0  0  0  0  0  0  0  0  0  0  0
    9.5590    0.3285   -4.9773 C   0  0  0  0  0  0  0  0  0  0  0  0
   11.0775   -0.0878   -5.0190 C   0  0  0  0  0  0  0  0  0  0  0  0
   11.4505   -1.5277   -4.8672 N   0  0  0  0  0  0  0  0  0  0  0  0
   10.9842   -2.4015   -5.9511 C   0  0  0  0  0  0  0  0  0  0  0  0
   12.9180   -1.6462   -4.8012 C   0  0  0  0  0  0  0  0  0  0  0  0
    9.5058    1.9030   -5.0671 C   0  0  0  0  0  0  0  0  0  0  0  0
    8.1807    2.4987   -5.5824 C   0  0  0  0  0  0  0  0  0  0  0  0
    7.8236    1.7522   -6.7823 N   0  0  0  0  0  0  0  0  0  0  0  0
    7.3657    2.3893   -7.9129 C   0  0  0  0  0  0  0  0  0  0  0  0
    6.8926    3.6481   -7.8199 N   0  0  0  0  0  0  0  0  0  0  0  0
    6.5201    4.2812   -8.9566 C   0  0  0  0  0  0  0  0  0  0  0  0
    6.6056    3.8094  -10.2081 N   0  0  0  0  0  0  0  0  0  0  0  0
    7.0981    2.5812  -10.2461 C   0  0  0  0  0  0  0  0  0  0  0  0
    7.4682    1.8200   -9.1585 C   0  0  0  0  0  0  0  0  0  0  0  0
    8.0055    0.5100   -9.6351 C   0  0  0  0  0  0  0  0  0  0  0  0
    7.9303    0.6539  -11.1554 C   0  0  0  0  0  0  0  0  0  0  0  0
    8.2884   -0.1680  -11.9755 O   0  0  0  0  0  0  0  0  0  0  0  0
    7.3603    1.8878  -11.4130 N   0  0  0  0  0  0  0  0  0  0  0  0
    7.4754    0.3757   -6.4926 C   0  0  0  0  0  0  0  0  0  0  0  0
    8.7737   -0.3307   -6.1362 C   0  0  0  0  0  0  0  0  0  0  0  0
    9.7722   -2.9401   -1.4161 C   0  0  0  0  0  0  0  0  0  0  0  0
   10.3214   -6.3689    3.0595 H   0  0  0  0  0  0  0  0  0  0  0  0
   11.7977   -5.7710    2.2752 H   0  0  0  0  0  0  0  0  0  0  0  0
   10.7488   -6.9844    1.4506 H   0  0  0  0  0  0  0  0  0  0  0  0
    8.2679   -3.4403    1.6110 H   0  0  0  0  0  0  0  0  0  0  0  0
    6.9485   -1.5207    0.8263 H   0  0  0  0  0  0  0  0  0  0  0  0
    7.4017   -0.4887   -1.3283 H   0  0  0  0  0  0  0  0  0  0  0  0
   10.1787   -1.6767   -3.5637 H   0  0  0  0  0  0  0  0  0  0  0  0
   11.5627    0.4482   -4.1888 H   0  0  0  0  0  0  0  0  0  0  0  0
   11.5309    0.3034   -5.9405 H   0  0  0  0  0  0  0  0  0  0  0  0
    9.9400   -2.6773   -5.7989 H   0  0  0  0  0  0  0  0  0  0  0  0
   11.5077   -3.3647   -5.9433 H   0  0  0  0  0  0  0  0  0  0  0  0
   11.1159   -1.9551   -6.9416 H   0  0  0  0  0  0  0  0  0  0  0  0
   13.3206   -1.0758   -3.9586 H   0  0  0  0  0  0  0  0  0  0  0  0
   13.3973   -1.3024   -5.7254 H   0  0  0  0  0  0  0  0  0  0  0  0
   13.2073   -2.6908   -4.6338 H   0  0  0  0  0  0  0  0  0  0  0  0
   10.2958    2.2480   -5.7472 H   0  0  0  0  0  0  0  0  0  0  0  0
    9.7321    2.3487   -4.0886 H   0  0  0  0  0  0  0  0  0  0  0  0
    8.3337    3.5670   -5.7755 H   0  0  0  0  0  0  0  0  0  0  0  0
    7.3849    2.4248   -4.8309 H   0  0  0  0  0  0  0  0  0  0  0  0
    6.1130    5.2800   -8.8396 H   0  0  0  0  0  0  0  0  0  0  0  0
    7.3634   -0.3276   -9.3529 H   0  0  0  0  0  0  0  0  0  0  0  0
    9.0431    0.3564   -9.3300 H   0  0  0  0  0  0  0  0  0  0  0  0
    7.1995    2.2609  -12.3317 H   0  0  0  0  0  0  0  0  0  0  0  0
    6.9954   -0.1424   -7.3242 H   0  0  0  0  0  0  0  0  0  0  0  0
    6.7570    0.3171   -5.6664 H   0  0  0  0  0  0  0  0  0  0  0  0
    9.4093   -0.3416   -7.0310 H   0  0  0  0  0  0  0  0  0  0  0  0
    8.4985   -1.3580   -5.8956 H   0  0  0  0  0  0  0  0  0  0  0  0
   10.5725   -3.3412   -2.0359 H   0  0  0  0  0  0  0  0  0  0  0  0
  1  2  1  0  0  0  0
  1 34  1  0  0  0  0
  1 35  1  0  0  0  0
  1 36  1  0  0  0  0
  2  3  1  0  0  0  0
  3  4  2  0  0  0  0
  3  5  1  0  0  0  0
  5  6  1  0  0  0  0
  5 33  2  0  0  0  0
  6  7  2  0  0  0  0
  6 37  1  0  0  0  0
  7  8  1  0  0  0  0
  7 38  1  0  0  0  0
  8  9  2  0  0  0  0
  8 39  1  0  0  0  0
  9 10  1  0  0  0  0
  9 33  1  0  0  0  0
 10 11  1  0  0  0  0
 10 40  1  0  0  0  0
 11 12  2  0  0  0  0
 11 13  1  0  0  0  0
 13 14  1  0  0  0  0
 13 18  1  0  0  0  0
 13 32  1  0  0  0  0
 14 15  1  0  0  0  0
 14 41  1  0  0  0  0
 14 42  1  0  0  0  0
 15 16  1  0  0  0  0
 15 17  1  0  0  0  0
 16 43  1  0  0  0  0
 16 44  1  0  0  0  0
 16 45  1  0  0  0  0
 17 46  1  0  0  0  0
 17 47  1  0  0  0  0
 17 48  1  0  0  0  0
 18 19  1  0  0  0  0
 18 49  1  0  0  0  0
 18 50  1  0  0  0  0
 19 20  1  0  0  0  0
 19 51  1  0  0  0  0
 19 52  1  0  0  0  0
 20 21  1  0  0  0  0
 20 31  1  0  0  0  0
 21 22  1  0  0  0  0
 21 26  2  0  0  0  0
 22 23  2  0  0  0  0
 23 24  1  0  0  0  0
 23 53  1  0  0  0  0
 24 25  2  0  0  0  0
 25 26  1  0  0  0  0
 25 30  1  0  0  0  0
 26 27  1  0  0  0  0
 27 28  1  0  0  0  0
 27 54  1  0  0  0  0
 27 55  1  0  0  0  0
 28 29  2  0  0  0  0
 28 30  1  0  0  0  0
 30 56  1  0  0  0  0
 31 32  1  0  0  0  0
 31 57  1  0  0  0  0
 31 58  1  0  0  0  0
 32 59  1  0  0  0  0
 32 60  1  0  0  0  0
 33 61  1  0  0  0  0
M  END
$$$$
