MODEL 1
REMARK VINA RESULT:   -10.802      0.000      0.000
REMARK INTER + INTRA:         -19.648
REMARK INTER:                 -17.432
REMARK INTRA:                  -2.215
REMARK UNBOUND:                -2.215
REMARK  Name = 
REMARK  13 active torsions:
REMARK  status: ('A' for Active; 'I' for Inactive)
REMARK    1  A    between atoms: C_2  and  C_34
REMARK    2  A    between atoms: N_3  and  C_4
REMARK    3  A    between atoms: C_10  and  O_11
REMARK    4  A    between atoms: O_11  and  C_12
REMARK    5  A    between atoms: C_12  and  C_14
REMARK    6  A    between atoms: C_16  and  O_17
REMARK    7  A    between atoms: C_18  and  C_19
REMARK    8  A    between atoms: C_19  and  C_21
REMARK    9  A    between atoms: C_22  and  O_23
REMARK   10  A    between atoms: C_27  and  C_28
REMARK   11  A    between atoms: C_28  and  O_30
REMARK   12  A    between atoms: C_31  and  O_32
REMARK   13  A    between atoms: C_37  and  O_38
REMARK                            x       y       z     vdW  Elec       q    Type
REMARK                         _______ _______ _______ _____ _____    ______ ____
ROOT
ATOM      1  C   UNL     1      -8.715  -2.068  22.644  0.00  0.00    +0.000 C 
ATOM      2  C   UNL     1     -10.203  -2.498  22.793  0.00  0.00    +0.000 C 
ATOM      3  N   UNL     1     -11.112  -1.563  22.125  0.00  0.00    +0.000 NA
ATOM      4  C   UNL     1     -11.326  -1.785  20.703  0.00  0.00    +0.000 C 
ATOM      5  C   UNL     1     -10.289  -2.589  19.916  0.00  0.00    +0.000 C 
ATOM      6  C   UNL     1      -8.847  -2.092  20.059  0.00  0.00    +0.000 C 
ATOM      7  C   UNL     1      -8.112  -2.584  21.315  0.00  0.00    +0.000 C 
ATOM      8  H   UNL     1      -8.172  -2.570  23.456  0.00  0.00    +0.000 HD
ATOM      9  H   UNL     1     -10.467  -2.495  23.858  0.00  0.00    +0.000 HD
ATOM     10  H   UNL     1     -10.370  -3.534  22.468  0.00  0.00    +0.000 HD
ATOM     11  H   UNL     1     -10.740  -0.625  22.280  0.00  0.00    +0.000 HD
ATOM     12  H   UNL     1     -11.444  -0.804  20.226  0.00  0.00    +0.000 HD
ATOM     13  H   UNL     1     -12.298  -2.282  20.586  0.00  0.00    +0.000 HD
ATOM     14  H   UNL     1     -10.566  -2.522  18.856  0.00  0.00    +0.000 HD
ATOM     15  H   UNL     1     -10.366  -3.653  20.170  0.00  0.00    +0.000 HD
ATOM     16  H   UNL     1      -8.809  -1.000  19.998  0.00  0.00    +0.000 HD
ATOM     17  H   UNL     1      -8.302  -2.472  19.187  0.00  0.00    +0.000 HD
ATOM     18  H   UNL     1      -7.064  -2.258  21.278  0.00  0.00    +0.000 HD
ENDROOT
BRANCH   1  21
ATOM     19  O   UNL     1      -8.832  -0.829  25.110  0.00  0.00    +0.000 OA
ATOM     20  C   UNL     1      -8.697  -0.083  24.140  0.00  0.00    +0.000 C 
ATOM     21  N   UNL     1      -8.538  -0.605  22.864  0.00  0.00    +0.000 N 
ATOM     22  H   UNL     1      -8.158  -0.025  22.128  0.00  0.00    +0.000 HD
BRANCH  20  23
ATOM     23  C   UNL     1      -8.694   1.397  24.370  0.00  0.00    +0.000 A 
ATOM     24  C   UNL     1      -9.900   2.074  24.097  0.00  0.00    +0.000 A 
ATOM     25  C   UNL     1     -10.009   3.455  24.237  0.00  0.00    +0.000 A 
ATOM     26  C   UNL     1      -8.909   4.184  24.679  0.00  0.00    +0.000 A 
ATOM     27  C   UNL     1      -7.693   3.536  24.933  0.00  0.00    +0.000 A 
ATOM     28  C   UNL     1      -7.583   2.147  24.775  0.00  0.00    +0.000 A 
ATOM     29  H   UNL     1     -10.770   1.521  23.745  0.00  0.00    +0.000 HD
ATOM     30  H   UNL     1     -10.956   3.944  24.018  0.00  0.00    +0.000 HD
ATOM     31  H   UNL     1      -6.838   4.131  25.245  0.00  0.00    +0.000 HD
ATOM     32  H   UNL     1      -6.619   1.686  24.963  0.00  0.00    +0.000 HD
BRANCH  26  33
ATOM     33  O   UNL     1      -8.987   5.534  24.859  0.00  0.00    +0.000 OA
ATOM     34  H   UNL     1      -8.219   5.828  25.375  0.00  0.00    +0.000 HD
ENDBRANCH  26  33
ENDBRANCH  20  23
ENDBRANCH   1  21
BRANCH   7  35
ATOM     35  O   UNL     1      -8.132  -4.037  21.344  0.00  0.00    +0.000 OA
BRANCH  35  36
ATOM     36  C   UNL     1      -7.196  -4.704  20.627  0.00  0.00    +0.000 C 
ATOM     37  O   UNL     1      -5.988  -4.490  20.648  0.00  0.00    +0.000 OA
BRANCH  36  38
ATOM     38  C   UNL     1      -7.820  -5.762  19.793  0.00  0.00    +0.000 A 
ATOM     39  C   UNL     1      -8.503  -6.832  20.386  0.00  0.00    +0.000 A 
ATOM     40  C   UNL     1      -9.133  -7.791  19.580  0.00  0.00    +0.000 A 
ATOM     41  C   UNL     1      -9.110  -7.698  18.176  0.00  0.00    +0.000 A 
ATOM     42  C   UNL     1      -8.443  -6.602  17.607  0.00  0.00    +0.000 A 
ATOM     43  C   UNL     1      -7.769  -5.681  18.406  0.00  0.00    +0.000 A 
ATOM     44  H   UNL     1      -8.530  -6.912  21.474  0.00  0.00    +0.000 HD
ATOM     45  H   UNL     1      -7.220  -4.882  17.906  0.00  0.00    +0.000 HD
BRANCH  40  46
ATOM     46  O   UNL     1      -9.754  -8.844  20.203  0.00  0.00    +0.000 OA
ATOM     47  H   UNL     1      -9.836  -8.676  21.163  0.00  0.00    +0.000 HD
ENDBRANCH  40  46
BRANCH  41  48
ATOM     48  C   UNL     1      -9.817  -8.728  17.340  0.00  0.00    +0.000 C 
ATOM     49  O   UNL     1     -11.039  -8.669  17.252  0.00  0.00    +0.000 OA
BRANCH  48  50
ATOM     50  C   UNL     1      -9.116  -9.710  16.474  0.00  0.00    +0.000 A 
ATOM     51  C   UNL     1      -8.958  -9.472  15.089  0.00  0.00    +0.000 A 
ATOM     52  C   UNL     1      -8.544 -10.482  14.220  0.00  0.00    +0.000 A 
ATOM     53  C   UNL     1      -8.188 -11.726  14.718  0.00  0.00    +0.000 A 
ATOM     54  C   UNL     1      -8.245 -11.953  16.089  0.00  0.00    +0.000 A 
ATOM     55  C   UNL     1      -8.715 -10.966  16.989  0.00  0.00    +0.000 A 
ATOM     56  H   UNL     1      -8.525 -10.298  13.147  0.00  0.00    +0.000 HD
ATOM     57  H   UNL     1      -7.866 -12.514  14.037  0.00  0.00    +0.000 HD
ATOM     58  H   UNL     1      -7.942 -12.935  16.463  0.00  0.00    +0.000 HD
BRANCH  51  59
ATOM     59  O   UNL     1      -9.286  -8.309  14.445  0.00  0.00    +0.000 OA
ATOM     60  H   UNL     1      -9.767  -8.465  13.616  0.00  0.00    +0.000 HD
ENDBRANCH  51  59
BRANCH  55  61
ATOM     61  C   UNL     1      -8.740 -11.427  18.415  0.00  0.00    +0.000 C 
ATOM     62  O   UNL     1      -8.119 -10.816  19.274  0.00  0.00    +0.000 OA
BRANCH  61  63
ATOM     63  O   UNL     1      -9.264 -12.642  18.656  0.00  0.00    +0.000 OA
ATOM     64  H   UNL     1      -9.245 -13.240  17.876  0.00  0.00    +0.000 HD
ENDBRANCH  61  63
ENDBRANCH  55  61
ENDBRANCH  48  50
ENDBRANCH  41  48
BRANCH  42  65
ATOM     65  O   UNL     1      -8.361  -6.272  16.286  0.00  0.00    +0.000 OA
ATOM     66  H   UNL     1      -8.794  -6.901  15.702  0.00  0.00    +0.000 HD
ENDBRANCH  42  65
ENDBRANCH  36  38
ENDBRANCH  35  36
ENDBRANCH   7  35
TORSDOF 13
ENDMDL
MODEL 2
REMARK VINA RESULT:   -10.113      2.926     11.851
REMARK INTER + INTRA:         -18.537
REMARK INTER:                 -16.395
REMARK INTRA:                  -2.141
REMARK UNBOUND:                -2.215
REMARK  Name = 
REMARK  13 active torsions:
REMARK  status: ('A' for Active; 'I' for Inactive)
REMARK    1  A    between atoms: C_2  and  C_34
REMARK    2  A    between atoms: N_3  and  C_4
REMARK    3  A    between atoms: C_10  and  O_11
REMARK    4  A    between atoms: O_11  and  C_12
REMARK    5  A    between atoms: C_12  and  C_14
REMARK    6  A    between atoms: C_16  and  O_17
REMARK    7  A    between atoms: C_18  and  C_19
REMARK    8  A    between atoms: C_19  and  C_21
REMARK    9  A    between atoms: C_22  and  O_23
REMARK   10  A    between atoms: C_27  and  C_28
REMARK   11  A    between atoms: C_28  and  O_30
REMARK   12  A    between atoms: C_31  and  O_32
REMARK   13  A    between atoms: C_37  and  O_38
REMARK                            x       y       z     vdW  Elec       q    Type
REMARK                         _______ _______ _______ _____ _____    ______ ____
ROOT
ATOM      1  C   UNL     1      -8.514  -7.787  17.158  0.00  0.00    +0.000 C 
ATOM      2  C   UNL     1      -9.616  -7.245  16.202  0.00  0.00    +0.000 C 
ATOM      3  N   UNL     1     -10.888  -7.949  16.379  0.00  0.00    +0.000 NA
ATOM      4  C   UNL     1     -11.750  -7.456  17.442  0.00  0.00    +0.000 C 
ATOM      5  C   UNL     1     -11.132  -6.632  18.573  0.00  0.00    +0.000 C 
ATOM      6  C   UNL     1      -9.932  -7.287  19.265  0.00  0.00    +0.000 C 
ATOM      7  C   UNL     1      -8.587  -7.105  18.545  0.00  0.00    +0.000 C 
ATOM      8  H   UNL     1      -7.555  -7.496  16.709  0.00  0.00    +0.000 HD
ATOM      9  H   UNL     1      -9.299  -7.412  15.166  0.00  0.00    +0.000 HD
ATOM     10  H   UNL     1      -9.736  -6.157  16.284  0.00  0.00    +0.000 HD
ATOM     11  H   UNL     1     -10.663  -8.933  16.539  0.00  0.00    +0.000 HD
ATOM     12  H   UNL     1     -12.268  -8.318  17.880  0.00  0.00    +0.000 HD
ATOM     13  H   UNL     1     -12.540  -6.852  16.977  0.00  0.00    +0.000 HD
ATOM     14  H   UNL     1     -11.915  -6.479  19.327  0.00  0.00    +0.000 HD
ATOM     15  H   UNL     1     -10.877  -5.628  18.211  0.00  0.00    +0.000 HD
ATOM     16  H   UNL     1     -10.127  -8.350  19.446  0.00  0.00    +0.000 HD
ATOM     17  H   UNL     1      -9.847  -6.813  20.249  0.00  0.00    +0.000 HD
ATOM     18  H   UNL     1      -7.781  -7.521  19.163  0.00  0.00    +0.000 HD
ENDROOT
BRANCH   1  21
ATOM     19  O   UNL     1      -8.373  -9.438  14.947  0.00  0.00    +0.000 OA
ATOM     20  C   UNL     1      -8.520 -10.003  16.031  0.00  0.00    +0.000 C 
ATOM     21  N   UNL     1      -8.515  -9.277  17.213  0.00  0.00    +0.000 N 
ATOM     22  H   UNL     1      -8.358  -9.751  18.092  0.00  0.00    +0.000 HD
BRANCH  20  23
ATOM     23  C   UNL     1      -8.692 -11.491  16.045  0.00  0.00    +0.000 A 
ATOM     24  C   UNL     1      -8.718 -12.106  17.313  0.00  0.00    +0.000 A 
ATOM     25  C   UNL     1      -8.835 -13.486  17.452  0.00  0.00    +0.000 A 
ATOM     26  C   UNL     1      -8.954 -14.278  16.314  0.00  0.00    +0.000 A 
ATOM     27  C   UNL     1      -8.906 -13.692  15.043  0.00  0.00    +0.000 A 
ATOM     28  C   UNL     1      -8.772 -12.303  14.906  0.00  0.00    +0.000 A 
ATOM     29  H   UNL     1      -8.621 -11.503  18.215  0.00  0.00    +0.000 HD
ATOM     30  H   UNL     1      -8.851 -13.926  18.447  0.00  0.00    +0.000 HD
ATOM     31  H   UNL     1      -8.966 -14.335  14.168  0.00  0.00    +0.000 HD
ATOM     32  H   UNL     1      -8.720 -11.890  13.904  0.00  0.00    +0.000 HD
BRANCH  26  33
ATOM     33  O   UNL     1      -9.102 -15.630  16.412  0.00  0.00    +0.000 OA
ATOM     34  H   UNL     1     -10.028 -15.860  16.232  0.00  0.00    +0.000 HD
ENDBRANCH  26  33
ENDBRANCH  20  23
ENDBRANCH   1  21
BRANCH   7  35
ATOM     35  O   UNL     1      -8.330  -5.685  18.364  0.00  0.00    +0.000 OA
BRANCH  35  36
ATOM     36  C   UNL     1      -7.432  -5.089  19.183  0.00  0.00    +0.000 C 
ATOM     37  O   UNL     1      -6.214  -5.233  19.140  0.00  0.00    +0.000 OA
BRANCH  36  38
ATOM     38  C   UNL     1      -8.112  -4.208  20.165  0.00  0.00    +0.000 A 
ATOM     39  C   UNL     1      -9.168  -3.376  19.770  0.00  0.00    +0.000 A 
ATOM     40  C   UNL     1      -9.835  -2.592  20.723  0.00  0.00    +0.000 A 
ATOM     41  C   UNL     1      -9.477  -2.631  22.083  0.00  0.00    +0.000 A 
ATOM     42  C   UNL     1      -8.434  -3.492  22.457  0.00  0.00    +0.000 A 
ATOM     43  C   UNL     1      -7.735  -4.227  21.503  0.00  0.00    +0.000 A 
ATOM     44  H   UNL     1      -9.457  -3.341  18.718  0.00  0.00    +0.000 HD
ATOM     45  H   UNL     1      -6.897  -4.836  21.845  0.00  0.00    +0.000 HD
BRANCH  40  46
ATOM     46  O   UNL     1     -10.835  -1.762  20.283  0.00  0.00    +0.000 OA
ATOM     47  H   UNL     1     -11.539  -2.275  19.841  0.00  0.00    +0.000 HD
ENDBRANCH  40  46
BRANCH  41  48
ATOM     48  C   UNL     1     -10.228  -1.798  23.084  0.00  0.00    +0.000 C 
ATOM     49  O   UNL     1     -11.300  -2.219  23.506  0.00  0.00    +0.000 OA
BRANCH  48  50
ATOM     50  C   UNL     1      -9.672  -0.580  23.726  0.00  0.00    +0.000 A 
ATOM     51  C   UNL     1      -9.070  -0.643  25.005  0.00  0.00    +0.000 A 
ATOM     52  C   UNL     1      -8.783   0.512  25.732  0.00  0.00    +0.000 A 
ATOM     53  C   UNL     1      -8.999   1.760  25.169  0.00  0.00    +0.000 A 
ATOM     54  C   UNL     1      -9.501   1.847  23.875  0.00  0.00    +0.000 A 
ATOM     55  C   UNL     1      -9.856   0.693  23.134  0.00  0.00    +0.000 A 
ATOM     56  H   UNL     1      -8.411   0.431  26.751  0.00  0.00    +0.000 HD
ATOM     57  H   UNL     1      -8.774   2.662  25.739  0.00  0.00    +0.000 HD
ATOM     58  H   UNL     1      -9.648   2.841  23.442  0.00  0.00    +0.000 HD
BRANCH  51  59
ATOM     59  O   UNL     1      -8.814  -1.794  25.700  0.00  0.00    +0.000 OA
ATOM     60  H   UNL     1      -9.474  -1.967  26.391  0.00  0.00    +0.000 HD
ENDBRANCH  51  59
BRANCH  55  61
ATOM     61  C   UNL     1     -10.420   1.006  21.781  0.00  0.00    +0.000 C 
ATOM     62  O   UNL     1     -11.629   1.086  21.617  0.00  0.00    +0.000 OA
BRANCH  61  63
ATOM     63  O   UNL     1      -9.570   0.960  20.738  0.00  0.00    +0.000 OA
ATOM     64  H   UNL     1      -9.852   1.514  19.977  0.00  0.00    +0.000 HD
ENDBRANCH  61  63
ENDBRANCH  55  61
ENDBRANCH  48  50
ENDBRANCH  41  48
BRANCH  42  65
ATOM     65  O   UNL     1      -7.977  -3.746  23.717  0.00  0.00    +0.000 OA
ATOM     66  H   UNL     1      -7.741  -2.956  24.211  0.00  0.00    +0.000 HD
ENDBRANCH  42  65
ENDBRANCH  36  38
ENDBRANCH  35  36
ENDBRANCH   7  35
TORSDOF 13
ENDMDL
MODEL 3
REMARK VINA RESULT:    -9.934      2.878     11.406
REMARK INTER + INTRA:         -18.247
REMARK INTER:                 -17.342
REMARK INTRA:                  -0.905
REMARK UNBOUND:                -2.215
REMARK  Name = 
REMARK  13 active torsions:
REMARK  status: ('A' for Active; 'I' for Inactive)
REMARK    1  A    between atoms: C_2  and  C_34
REMARK    2  A    between atoms: N_3  and  C_4
REMARK    3  A    between atoms: C_10  and  O_11
REMARK    4  A    between atoms: O_11  and  C_12
REMARK    5  A    between atoms: C_12  and  C_14
REMARK    6  A    between atoms: C_16  and  O_17
REMARK    7  A    between atoms: C_18  and  C_19
REMARK    8  A    between atoms: C_19  and  C_21
REMARK    9  A    between atoms: C_22  and  O_23
REMARK   10  A    between atoms: C_27  and  C_28
REMARK   11  A    between atoms: C_28  and  O_30
REMARK   12  A    between atoms: C_31  and  O_32
REMARK   13  A    between atoms: C_37  and  O_38
REMARK                            x       y       z     vdW  Elec       q    Type
REMARK                         _______ _______ _______ _____ _____    ______ ____
ROOT
ATOM      1  C   UNL     1      -8.563  -7.202  17.201  0.00  0.00    +0.000 C 
ATOM      2  C   UNL     1      -8.880  -6.214  16.041  0.00  0.00    +0.000 C 
ATOM      3  N   UNL     1     -10.134  -6.552  15.363  0.00  0.00    +0.000 NA
ATOM      4  C   UNL     1     -11.349  -6.027  15.968  0.00  0.00    +0.000 C 
ATOM      5  C   UNL     1     -11.325  -5.620  17.443  0.00  0.00    +0.000 C 
ATOM      6  C   UNL     1     -10.801  -6.696  18.399  0.00  0.00    +0.000 C 
ATOM      7  C   UNL     1      -9.271  -6.778  18.510  0.00  0.00    +0.000 C 
ATOM      8  H   UNL     1      -7.483  -7.120  17.382  0.00  0.00    +0.000 HD
ATOM      9  H   UNL     1      -8.083  -6.282  15.291  0.00  0.00    +0.000 HD
ATOM     10  H   UNL     1      -8.862  -5.168  16.372  0.00  0.00    +0.000 HD
ATOM     11  H   UNL     1     -10.180  -7.571  15.313  0.00  0.00    +0.000 HD
ATOM     12  H   UNL     1     -12.142  -6.771  15.824  0.00  0.00    +0.000 HD
ATOM     13  H   UNL     1     -11.663  -5.154  15.382  0.00  0.00    +0.000 HD
ATOM     14  H   UNL     1     -12.358  -5.386  17.730  0.00  0.00    +0.000 HD
ATOM     15  H   UNL     1     -10.770  -4.681  17.565  0.00  0.00    +0.000 HD
ATOM     16  H   UNL     1     -11.218  -7.675  18.140  0.00  0.00    +0.000 HD
ATOM     17  H   UNL     1     -11.192  -6.444  19.391  0.00  0.00    +0.000 HD
ATOM     18  H   UNL     1      -8.998  -7.505  19.286  0.00  0.00    +0.000 HD
ENDROOT
BRANCH   1  21
ATOM     19  O   UNL     1      -8.452  -9.354  18.930  0.00  0.00    +0.000 OA
ATOM     20  C   UNL     1      -8.652  -9.626  17.745  0.00  0.00    +0.000 C 
ATOM     21  N   UNL     1      -8.814  -8.617  16.806  0.00  0.00    +0.000 N 
ATOM     22  H   UNL     1      -9.244  -8.826  15.915  0.00  0.00    +0.000 HD
BRANCH  20  23
ATOM     23  C   UNL     1      -8.728 -11.067  17.345  0.00  0.00    +0.000 A 
ATOM     24  C   UNL     1      -8.650 -12.012  18.389  0.00  0.00    +0.000 A 
ATOM     25  C   UNL     1      -8.673 -13.380  18.137  0.00  0.00    +0.000 A 
ATOM     26  C   UNL     1      -8.799 -13.831  16.827  0.00  0.00    +0.000 A 
ATOM     27  C   UNL     1      -8.854 -12.912  15.771  0.00  0.00    +0.000 A 
ATOM     28  C   UNL     1      -8.815 -11.534  16.027  0.00  0.00    +0.000 A 
ATOM     29  H   UNL     1      -8.545 -11.678  19.421  0.00  0.00    +0.000 HD
ATOM     30  H   UNL     1      -8.610 -14.080  18.968  0.00  0.00    +0.000 HD
ATOM     31  H   UNL     1      -8.919 -13.288  14.752  0.00  0.00    +0.000 HD
ATOM     32  H   UNL     1      -8.841 -10.855  15.181  0.00  0.00    +0.000 HD
BRANCH  26  33
ATOM     33  O   UNL     1      -8.857 -15.163  16.544  0.00  0.00    +0.000 OA
ATOM     34  H   UNL     1      -8.168 -15.378  15.895  0.00  0.00    +0.000 HD
ENDBRANCH  26  33
ENDBRANCH  20  23
ENDBRANCH   1  21
BRANCH   7  35
ATOM     35  O   UNL     1      -8.750  -5.480  18.905  0.00  0.00    +0.000 OA
BRANCH  35  36
ATOM     36  C   UNL     1      -7.843  -5.434  19.910  0.00  0.00    +0.000 C 
ATOM     37  O   UNL     1      -6.942  -6.244  20.102  0.00  0.00    +0.000 OA
BRANCH  36  38
ATOM     38  C   UNL     1      -8.067  -4.247  20.773  0.00  0.00    +0.000 A 
ATOM     39  C   UNL     1      -8.223  -2.972  20.212  0.00  0.00    +0.000 A 
ATOM     40  C   UNL     1      -8.490  -1.872  21.040  0.00  0.00    +0.000 A 
ATOM     41  C   UNL     1      -8.620  -2.019  22.434  0.00  0.00    +0.000 A 
ATOM     42  C   UNL     1      -8.486  -3.310  22.968  0.00  0.00    +0.000 A 
ATOM     43  C   UNL     1      -8.165  -4.392  22.152  0.00  0.00    +0.000 A 
ATOM     44  H   UNL     1      -8.128  -2.847  19.133  0.00  0.00    +0.000 HD
ATOM     45  H   UNL     1      -8.018  -5.362  22.630  0.00  0.00    +0.000 HD
BRANCH  40  46
ATOM     46  O   UNL     1      -8.593  -0.637  20.452  0.00  0.00    +0.000 OA
ATOM     47  H   UNL     1      -9.530  -0.364  20.387  0.00  0.00    +0.000 HD
ENDBRANCH  40  46
BRANCH  41  48
ATOM     48  C   UNL     1      -8.931  -0.825  23.292  0.00  0.00    +0.000 C 
ATOM     49  O   UNL     1      -8.176  -0.562  24.222  0.00  0.00    +0.000 OA
BRANCH  48  50
ATOM     50  C   UNL     1      -9.999   0.159  22.980  0.00  0.00    +0.000 A 
ATOM     51  C   UNL     1      -9.810   1.539  23.231  0.00  0.00    +0.000 A 
ATOM     52  C   UNL     1     -10.876   2.437  23.195  0.00  0.00    +0.000 A 
ATOM     53  C   UNL     1     -12.138   2.006  22.817  0.00  0.00    +0.000 A 
ATOM     54  C   UNL     1     -12.327   0.671  22.473  0.00  0.00    +0.000 A 
ATOM     55  C   UNL     1     -11.277  -0.276  22.555  0.00  0.00    +0.000 A 
ATOM     56  H   UNL     1     -10.719   3.474  23.487  0.00  0.00    +0.000 HD
ATOM     57  H   UNL     1     -12.970   2.709  22.790  0.00  0.00    +0.000 HD
ATOM     58  H   UNL     1     -13.326   0.354  22.160  0.00  0.00    +0.000 HD
BRANCH  51  59
ATOM     59  O   UNL     1      -8.635   2.114  23.634  0.00  0.00    +0.000 OA
ATOM     60  H   UNL     1      -8.127   1.544  24.233  0.00  0.00    +0.000 HD
ENDBRANCH  51  59
BRANCH  55  61
ATOM     61  C   UNL     1     -11.700  -1.665  22.185  0.00  0.00    +0.000 C 
ATOM     62  O   UNL     1     -11.957  -1.945  21.022  0.00  0.00    +0.000 OA
BRANCH  61  63
ATOM     63  O   UNL     1     -12.007  -2.501  23.194  0.00  0.00    +0.000 OA
ATOM     64  H   UNL     1     -12.572  -3.257  22.920  0.00  0.00    +0.000 HD
ENDBRANCH  61  63
ENDBRANCH  55  61
ENDBRANCH  48  50
ENDBRANCH  41  48
BRANCH  42  65
ATOM     65  O   UNL     1      -8.650  -3.694  24.267  0.00  0.00    +0.000 OA
ATOM     66  H   UNL     1      -8.835  -4.632  24.373  0.00  0.00    +0.000 HD
ENDBRANCH  42  65
ENDBRANCH  36  38
ENDBRANCH  35  36
ENDBRANCH   7  35
TORSDOF 13
ENDMDL
MODEL 4
REMARK VINA RESULT:    -9.862      0.668      2.160
REMARK INTER + INTRA:         -18.132
REMARK INTER:                 -16.309
REMARK INTRA:                  -1.822
REMARK UNBOUND:                -2.215
REMARK  Name = 
REMARK  13 active torsions:
REMARK  status: ('A' for Active; 'I' for Inactive)
REMARK    1  A    between atoms: C_2  and  C_34
REMARK    2  A    between atoms: N_3  and  C_4
REMARK    3  A    between atoms: C_10  and  O_11
REMARK    4  A    between atoms: O_11  and  C_12
REMARK    5  A    between atoms: C_12  and  C_14
REMARK    6  A    between atoms: C_16  and  O_17
REMARK    7  A    between atoms: C_18  and  C_19
REMARK    8  A    between atoms: C_19  and  C_21
REMARK    9  A    between atoms: C_22  and  O_23
REMARK   10  A    between atoms: C_27  and  C_28
REMARK   11  A    between atoms: C_28  and  O_30
REMARK   12  A    between atoms: C_31  and  O_32
REMARK   13  A    between atoms: C_37  and  O_38
REMARK                            x       y       z     vdW  Elec       q    Type
REMARK                         _______ _______ _______ _____ _____    ______ ____
ROOT
ATOM      1  C   UNL     1      -8.566  -2.382  22.449  0.00  0.00    +0.000 C 
ATOM      2  C   UNL     1     -10.045  -2.862  22.485  0.00  0.00    +0.000 C 
ATOM      3  N   UNL     1     -10.927  -1.970  21.730  0.00  0.00    +0.000 NA
ATOM      4  C   UNL     1     -11.018  -2.220  20.299  0.00  0.00    +0.000 C 
ATOM      5  C   UNL     1      -9.893  -2.997  19.612  0.00  0.00    +0.000 C 
ATOM      6  C   UNL     1      -8.485  -2.448  19.862  0.00  0.00    +0.000 C 
ATOM      7  C   UNL     1      -7.838  -2.895  21.183  0.00  0.00    +0.000 C 
ATOM      8  H   UNL     1      -8.074  -2.853  23.311  0.00  0.00    +0.000 HD
ATOM      9  H   UNL     1     -10.395  -2.854  23.524  0.00  0.00    +0.000 HD
ATOM     10  H   UNL     1     -10.149  -3.908  22.165  0.00  0.00    +0.000 HD
ATOM     11  H   UNL     1     -10.602  -1.017  21.899  0.00  0.00    +0.000 HD
ATOM     12  H   UNL     1     -11.130  -1.250  19.797  0.00  0.00    +0.000 HD
ATOM     13  H   UNL     1     -11.959  -2.752  20.113  0.00  0.00    +0.000 HD
ATOM     14  H   UNL     1     -10.085  -2.955  18.532  0.00  0.00    +0.000 HD
ATOM     15  H   UNL     1      -9.954  -4.060  19.877  0.00  0.00    +0.000 HD
ATOM     16  H   UNL     1      -8.480  -1.355  19.786  0.00  0.00    +0.000 HD
ATOM     17  H   UNL     1      -7.858  -2.821  19.045  0.00  0.00    +0.000 HD
ATOM     18  H   UNL     1      -6.803  -2.533  21.225  0.00  0.00    +0.000 HD
ENDROOT
BRANCH   1  21
ATOM     19  O   UNL     1      -8.860  -1.120  24.889  0.00  0.00    +0.000 OA
ATOM     20  C   UNL     1      -8.703  -0.381  23.916  0.00  0.00    +0.000 C 
ATOM     21  N   UNL     1      -8.456  -0.911  22.658  0.00  0.00    +0.000 N 
ATOM     22  H   UNL     1      -8.061  -0.325  21.935  0.00  0.00    +0.000 HD
BRANCH  20  23
ATOM     23  C   UNL     1      -8.770   1.101  24.126  0.00  0.00    +0.000 A 
ATOM     24  C   UNL     1      -7.716   1.677  24.864  0.00  0.00    +0.000 A 
ATOM     25  C   UNL     1      -7.688   3.037  25.155  0.00  0.00    +0.000 A 
ATOM     26  C   UNL     1      -8.711   3.856  24.687  0.00  0.00    +0.000 A 
ATOM     27  C   UNL     1      -9.781   3.303  23.972  0.00  0.00    +0.000 A 
ATOM     28  C   UNL     1      -9.814   1.929  23.695  0.00  0.00    +0.000 A 
ATOM     29  H   UNL     1      -6.909   1.051  25.244  0.00  0.00    +0.000 HD
ATOM     30  H   UNL     1      -6.858   3.447  25.728  0.00  0.00    +0.000 HD
ATOM     31  H   UNL     1     -10.586   3.957  23.646  0.00  0.00    +0.000 HD
ATOM     32  H   UNL     1     -10.669   1.536  23.155  0.00  0.00    +0.000 HD
BRANCH  26  33
ATOM     33  O   UNL     1      -8.701   5.199  24.925  0.00  0.00    +0.000 OA
ATOM     34  H   UNL     1      -8.520   5.665  24.093  0.00  0.00    +0.000 HD
ENDBRANCH  26  33
ENDBRANCH  20  23
ENDBRANCH   1  21
BRANCH   7  35
ATOM     35  O   UNL     1      -7.812  -4.348  21.234  0.00  0.00    +0.000 OA
BRANCH  35  36
ATOM     36  C   UNL     1      -6.951  -5.000  20.417  0.00  0.00    +0.000 C 
ATOM     37  O   UNL     1      -5.746  -4.788  20.326  0.00  0.00    +0.000 OA
BRANCH  36  38
ATOM     38  C   UNL     1      -7.655  -6.040  19.625  0.00  0.00    +0.000 A 
ATOM     39  C   UNL     1      -8.473  -6.988  20.254  0.00  0.00    +0.000 A 
ATOM     40  C   UNL     1      -9.175  -7.927  19.485  0.00  0.00    +0.000 A 
ATOM     41  C   UNL     1      -9.089  -7.933  18.080  0.00  0.00    +0.000 A 
ATOM     42  C   UNL     1      -8.285  -6.957  17.473  0.00  0.00    +0.000 A 
ATOM     43  C   UNL     1      -7.544  -6.061  18.240  0.00  0.00    +0.000 A 
ATOM     44  H   UNL     1      -8.551  -6.989  21.343  0.00  0.00    +0.000 HD
ATOM     45  H   UNL     1      -6.892  -5.362  17.715  0.00  0.00    +0.000 HD
BRANCH  40  46
ATOM     46  O   UNL     1      -9.930  -8.862  20.146  0.00  0.00    +0.000 OA
ATOM     47  H   UNL     1      -9.787  -9.751  19.765  0.00  0.00    +0.000 HD
ENDBRANCH  40  46
BRANCH  41  48
ATOM     48  C   UNL     1      -9.873  -8.937  17.281  0.00  0.00    +0.000 C 
ATOM     49  O   UNL     1     -10.976  -8.610  16.855  0.00  0.00    +0.000 OA
BRANCH  48  50
ATOM     50  C   UNL     1      -9.324 -10.240  16.828  0.00  0.00    +0.000 A 
ATOM     51  C   UNL     1      -8.857 -11.195  17.761  0.00  0.00    +0.000 A 
ATOM     52  C   UNL     1      -8.106 -12.299  17.358  0.00  0.00    +0.000 A 
ATOM     53  C   UNL     1      -7.879 -12.533  16.011  0.00  0.00    +0.000 A 
ATOM     54  C   UNL     1      -8.409 -11.658  15.069  0.00  0.00    +0.000 A 
ATOM     55  C   UNL     1      -9.127 -10.498  15.450  0.00  0.00    +0.000 A 
ATOM     56  H   UNL     1      -7.678 -12.964  18.107  0.00  0.00    +0.000 HD
ATOM     57  H   UNL     1      -7.291 -13.395  15.699  0.00  0.00    +0.000 HD
ATOM     58  H   UNL     1      -8.234 -11.869  14.010  0.00  0.00    +0.000 HD
BRANCH  51  59
ATOM     59  O   UNL     1      -8.982 -11.097  19.121  0.00  0.00    +0.000 OA
ATOM     60  H   UNL     1      -8.225 -11.478  19.594  0.00  0.00    +0.000 HD
ENDBRANCH  51  59
BRANCH  55  61
ATOM     61  C   UNL     1      -9.573  -9.667  14.285  0.00  0.00    +0.000 C 
ATOM     62  O   UNL     1     -10.224 -10.169  13.379  0.00  0.00    +0.000 OA
BRANCH  61  63
ATOM     63  O   UNL     1      -9.036  -8.438  14.168  0.00  0.00    +0.000 OA
ATOM     64  H   UNL     1      -8.278  -8.399  13.543  0.00  0.00    +0.000 HD
ENDBRANCH  61  63
ENDBRANCH  55  61
ENDBRANCH  48  50
ENDBRANCH  41  48
BRANCH  42  65
ATOM     65  O   UNL     1      -8.117  -6.729  16.138  0.00  0.00    +0.000 OA
ATOM     66  H   UNL     1      -7.264  -7.015  15.800  0.00  0.00    +0.000 HD
ENDBRANCH  42  65
ENDBRANCH  36  38
ENDBRANCH  35  36
ENDBRANCH   7  35
TORSDOF 13
ENDMDL
MODEL 5
REMARK VINA RESULT:    -9.852      2.786     11.400
REMARK INTER + INTRA:         -18.115
REMARK INTER:                 -16.155
REMARK INTRA:                  -1.960
REMARK UNBOUND:                -2.215
REMARK  Name = 
REMARK  13 active torsions:
REMARK  status: ('A' for Active; 'I' for Inactive)
REMARK    1  A    between atoms: C_2  and  C_34
REMARK    2  A    between atoms: N_3  and  C_4
REMARK    3  A    between atoms: C_10  and  O_11
REMARK    4  A    between atoms: O_11  and  C_12
REMARK    5  A    between atoms: C_12  and  C_14
REMARK    6  A    between atoms: C_16  and  O_17
REMARK    7  A    between atoms: C_18  and  C_19
REMARK    8  A    between atoms: C_19  and  C_21
REMARK    9  A    between atoms: C_22  and  O_23
REMARK   10  A    between atoms: C_27  and  C_28
REMARK   11  A    between atoms: C_28  and  O_30
REMARK   12  A    between atoms: C_31  and  O_32
REMARK   13  A    between atoms: C_37  and  O_38
REMARK                            x       y       z     vdW  Elec       q    Type
REMARK                         _______ _______ _______ _____ _____    ______ ____
ROOT
ATOM      1  C   UNL     1      -9.481  -7.595  18.799  0.00  0.00    +0.000 C 
ATOM      2  C   UNL     1      -8.854  -7.432  20.214  0.00  0.00    +0.000 C 
ATOM      3  N   UNL     1      -7.412  -7.688  20.205  0.00  0.00    +0.000 NA
ATOM      4  C   UNL     1      -6.564  -6.562  19.842  0.00  0.00    +0.000 C 
ATOM      5  C   UNL     1      -7.173  -5.404  19.049  0.00  0.00    +0.000 C 
ATOM      6  C   UNL     1      -7.907  -5.817  17.769  0.00  0.00    +0.000 C 
ATOM      7  C   UNL     1      -9.354  -6.292  17.974  0.00  0.00    +0.000 C 
ATOM      8  H   UNL     1     -10.554  -7.766  18.962  0.00  0.00    +0.000 HD
ATOM      9  H   UNL     1      -9.306  -8.170  20.888  0.00  0.00    +0.000 HD
ATOM     10  H   UNL     1      -9.094  -6.460  20.664  0.00  0.00    +0.000 HD
ATOM     11  H   UNL     1      -7.252  -8.467  19.563  0.00  0.00    +0.000 HD
ATOM     12  H   UNL     1      -5.707  -6.956  19.283  0.00  0.00    +0.000 HD
ATOM     13  H   UNL     1      -6.142  -6.152  20.768  0.00  0.00    +0.000 HD
ATOM     14  H   UNL     1      -6.349  -4.738  18.765  0.00  0.00    +0.000 HD
ATOM     15  H   UNL     1      -7.822  -4.803  19.698  0.00  0.00    +0.000 HD
ATOM     16  H   UNL     1      -7.332  -6.571  17.222  0.00  0.00    +0.000 HD
ATOM     17  H   UNL     1      -7.940  -4.927  17.131  0.00  0.00    +0.000 HD
ATOM     18  H   UNL     1      -9.823  -6.470  16.998  0.00  0.00    +0.000 HD
ENDROOT
BRANCH   1  21
ATOM     19  O   UNL     1     -10.769  -8.869  16.713  0.00  0.00    +0.000 OA
ATOM     20  C   UNL     1      -9.739  -9.408  17.119  0.00  0.00    +0.000 C 
ATOM     21  N   UNL     1      -8.966  -8.808  18.102  0.00  0.00    +0.000 N 
ATOM     22  H   UNL     1      -8.007  -9.098  18.233  0.00  0.00    +0.000 HD
BRANCH  20  23
ATOM     23  C   UNL     1      -9.334 -10.720  16.518  0.00  0.00    +0.000 A 
ATOM     24  C   UNL     1      -8.975 -11.739  17.424  0.00  0.00    +0.000 A 
ATOM     25  C   UNL     1      -8.545 -12.987  16.984  0.00  0.00    +0.000 A 
ATOM     26  C   UNL     1      -8.490 -13.247  15.618  0.00  0.00    +0.000 A 
ATOM     27  C   UNL     1      -8.819 -12.243  14.699  0.00  0.00    +0.000 A 
ATOM     28  C   UNL     1      -9.236 -10.981  15.146  0.00  0.00    +0.000 A 
ATOM     29  H   UNL     1      -9.006 -11.552  18.497  0.00  0.00    +0.000 HD
ATOM     30  H   UNL     1      -8.276 -13.750  17.712  0.00  0.00    +0.000 HD
ATOM     31  H   UNL     1      -8.736 -12.458  13.636  0.00  0.00    +0.000 HD
ATOM     32  H   UNL     1      -9.463 -10.224  14.402  0.00  0.00    +0.000 HD
BRANCH  26  33
ATOM     33  O   UNL     1      -8.105 -14.469  15.151  0.00  0.00    +0.000 OA
ATOM     34  H   UNL     1      -7.627 -14.349  14.314  0.00  0.00    +0.000 HD
ENDBRANCH  26  33
ENDBRANCH  20  23
ENDBRANCH   1  21
BRANCH   7  35
ATOM     35  O   UNL     1     -10.108  -5.251  18.655  0.00  0.00    +0.000 OA
BRANCH  35  36
ATOM     36  C   UNL     1     -10.375  -4.110  17.977  0.00  0.00    +0.000 C 
ATOM     37  O   UNL     1     -10.475  -4.003  16.759  0.00  0.00    +0.000 OA
BRANCH  36  38
ATOM     38  C   UNL     1     -10.548  -2.967  18.910  0.00  0.00    +0.000 A 
ATOM     39  C   UNL     1     -11.713  -2.837  19.676  0.00  0.00    +0.000 A 
ATOM     40  C   UNL     1     -11.834  -1.783  20.592  0.00  0.00    +0.000 A 
ATOM     41  C   UNL     1     -10.797  -0.849  20.774  0.00  0.00    +0.000 A 
ATOM     42  C   UNL     1      -9.629  -1.016  20.015  0.00  0.00    +0.000 A 
ATOM     43  C   UNL     1      -9.532  -2.030  19.064  0.00  0.00    +0.000 A 
ATOM     44  H   UNL     1     -12.522  -3.558  19.546  0.00  0.00    +0.000 HD
ATOM     45  H   UNL     1      -8.624  -2.077  18.463  0.00  0.00    +0.000 HD
BRANCH  40  46
ATOM     46  O   UNL     1     -13.010  -1.671  21.290  0.00  0.00    +0.000 OA
ATOM     47  H   UNL     1     -12.868  -1.871  22.237  0.00  0.00    +0.000 HD
ENDBRANCH  40  46
BRANCH  41  48
ATOM     48  C   UNL     1     -10.946   0.256  21.782  0.00  0.00    +0.000 C 
ATOM     49  O   UNL     1     -11.829   1.089  21.609  0.00  0.00    +0.000 OA
BRANCH  48  50
ATOM     50  C   UNL     1     -10.203   0.306  23.068  0.00  0.00    +0.000 A 
ATOM     51  C   UNL     1      -9.577   1.499  23.499  0.00  0.00    +0.000 A 
ATOM     52  C   UNL     1      -8.666   1.502  24.554  0.00  0.00    +0.000 A 
ATOM     53  C   UNL     1      -8.424   0.339  25.269  0.00  0.00    +0.000 A 
ATOM     54  C   UNL     1      -9.101  -0.826  24.923  0.00  0.00    +0.000 A 
ATOM     55  C   UNL     1      -9.988  -0.873  23.820  0.00  0.00    +0.000 A 
ATOM     56  H   UNL     1      -8.127   2.415  24.800  0.00  0.00    +0.000 HD
ATOM     57  H   UNL     1      -7.711   0.343  26.093  0.00  0.00    +0.000 HD
ATOM     58  H   UNL     1      -8.909  -1.729  25.510  0.00  0.00    +0.000 HD
BRANCH  51  59
ATOM     59  O   UNL     1      -9.697   2.718  22.887  0.00  0.00    +0.000 OA
ATOM     60  H   UNL     1      -8.837   3.104  22.655  0.00  0.00    +0.000 HD
ENDBRANCH  51  59
BRANCH  55  61
ATOM     61  C   UNL     1     -10.578  -2.233  23.591  0.00  0.00    +0.000 C 
ATOM     62  O   UNL     1     -11.717  -2.483  23.958  0.00  0.00    +0.000 OA
BRANCH  61  63
ATOM     63  O   UNL     1      -9.737  -3.205  23.192  0.00  0.00    +0.000 OA
ATOM     64  H   UNL     1      -9.110  -2.918  22.491  0.00  0.00    +0.000 HD
ENDBRANCH  61  63
ENDBRANCH  55  61
ENDBRANCH  48  50
ENDBRANCH  41  48
BRANCH  42  65
ATOM     65  O   UNL     1      -8.480  -0.285  20.083  0.00  0.00    +0.000 OA
ATOM     66  H   UNL     1      -8.059  -0.303  20.948  0.00  0.00    +0.000 HD
ENDBRANCH  42  65
ENDBRANCH  36  38
ENDBRANCH  35  36
ENDBRANCH   7  35
TORSDOF 13
ENDMDL
MODEL 6
REMARK VINA RESULT:    -9.807      5.961     11.388
REMARK INTER + INTRA:         -18.042
REMARK INTER:                 -15.900
REMARK INTRA:                  -2.142
REMARK UNBOUND:                -2.215
REMARK  Name = 
REMARK  13 active torsions:
REMARK  status: ('A' for Active; 'I' for Inactive)
REMARK    1  A    between atoms: C_2  and  C_34
REMARK    2  A    between atoms: N_3  and  C_4
REMARK    3  A    between atoms: C_10  and  O_11
REMARK    4  A    between atoms: O_11  and  C_12
REMARK    5  A    between atoms: C_12  and  C_14
REMARK    6  A    between atoms: C_16  and  O_17
REMARK    7  A    between atoms: C_18  and  C_19
REMARK    8  A    between atoms: C_19  and  C_21
REMARK    9  A    between atoms: C_22  and  O_23
REMARK   10  A    between atoms: C_27  and  C_28
REMARK   11  A    between atoms: C_28  and  O_30
REMARK   12  A    between atoms: C_31  and  O_32
REMARK   13  A    between atoms: C_37  and  O_38
REMARK                            x       y       z     vdW  Elec       q    Type
REMARK                         _______ _______ _______ _____ _____    ______ ____
ROOT
ATOM      1  C   UNL     1      -9.819  -7.665  17.461  0.00  0.00    +0.000 C 
ATOM      2  C   UNL     1     -10.101  -7.163  18.906  0.00  0.00    +0.000 C 
ATOM      3  N   UNL     1      -9.025  -7.528  19.831  0.00  0.00    +0.000 NA
ATOM      4  C   UNL     1      -7.886  -6.623  19.878  0.00  0.00    +0.000 C 
ATOM      5  C   UNL     1      -7.635  -5.689  18.692  0.00  0.00    +0.000 C 
ATOM      6  C   UNL     1      -7.574  -6.383  17.328  0.00  0.00    +0.000 C 
ATOM      7  C   UNL     1      -8.938  -6.661  16.678  0.00  0.00    +0.000 C 
ATOM      8  H   UNL     1     -10.794  -7.694  16.955  0.00  0.00    +0.000 HD
ATOM      9  H   UNL     1     -11.016  -7.641  19.275  0.00  0.00    +0.000 HD
ATOM     10  H   UNL     1     -10.318  -6.087  18.936  0.00  0.00    +0.000 HD
ATOM     11  H   UNL     1      -8.716  -8.466  19.571  0.00  0.00    +0.000 HD
ATOM     12  H   UNL     1      -6.986  -7.227  20.044  0.00  0.00    +0.000 HD
ATOM     13  H   UNL     1      -7.989  -6.005  20.779  0.00  0.00    +0.000 HD
ATOM     14  H   UNL     1      -6.669  -5.200  18.866  0.00  0.00    +0.000 HD
ATOM     15  H   UNL     1      -8.374  -4.879  18.689  0.00  0.00    +0.000 HD
ATOM     16  H   UNL     1      -6.987  -7.306  17.392  0.00  0.00    +0.000 HD
ATOM     17  H   UNL     1      -7.023  -5.709  16.663  0.00  0.00    +0.000 HD
ATOM     18  H   UNL     1      -8.788  -7.067  15.670  0.00  0.00    +0.000 HD
ENDROOT
BRANCH   1  21
ATOM     19  O   UNL     1     -10.136  -9.439  15.367  0.00  0.00    +0.000 OA
ATOM     20  C   UNL     1      -9.590  -9.889  16.375  0.00  0.00    +0.000 C 
ATOM     21  N   UNL     1      -9.301  -9.062  17.452  0.00  0.00    +0.000 N 
ATOM     22  H   UNL     1      -8.624  -9.356  18.142  0.00  0.00    +0.000 HD
BRANCH  20  23
ATOM     23  C   UNL     1      -9.234 -11.343  16.408  0.00  0.00    +0.000 A 
ATOM     24  C   UNL     1      -9.034 -11.967  15.159  0.00  0.00    +0.000 A 
ATOM     25  C   UNL     1      -8.736 -13.322  15.060  0.00  0.00    +0.000 A 
ATOM     26  C   UNL     1      -8.608 -14.079  16.220  0.00  0.00    +0.000 A 
ATOM     27  C   UNL     1      -8.826 -13.488  17.471  0.00  0.00    +0.000 A 
ATOM     28  C   UNL     1      -9.143 -12.125  17.566  0.00  0.00    +0.000 A 
ATOM     29  H   UNL     1      -9.135 -11.392  14.239  0.00  0.00    +0.000 HD
ATOM     30  H   UNL     1      -8.588 -13.770  14.078  0.00  0.00    +0.000 HD
ATOM     31  H   UNL     1      -8.754 -14.107  18.363  0.00  0.00    +0.000 HD
ATOM     32  H   UNL     1      -9.322 -11.709  18.553  0.00  0.00    +0.000 HD
BRANCH  26  33
ATOM     33  O   UNL     1      -8.285 -15.403  16.164  0.00  0.00    +0.000 OA
ATOM     34  H   UNL     1      -7.746 -15.629  16.940  0.00  0.00    +0.000 HD
ENDBRANCH  26  33
ENDBRANCH  20  23
ENDBRANCH   1  21
BRANCH   7  35
ATOM     35  O   UNL     1      -9.674  -5.413  16.558  0.00  0.00    +0.000 OA
BRANCH  35  36
ATOM     36  C   UNL     1     -10.779  -5.396  15.775  0.00  0.00    +0.000 C 
ATOM     37  O   UNL     1     -11.779  -6.089  15.928  0.00  0.00    +0.000 OA
BRANCH  36  38
ATOM     38  C   UNL     1     -10.638  -4.402  14.680  0.00  0.00    +0.000 A 
ATOM     39  C   UNL     1     -11.739  -4.046  13.890  0.00  0.00    +0.000 A 
ATOM     40  C   UNL     1     -11.600  -3.065  12.898  0.00  0.00    +0.000 A 
ATOM     41  C   UNL     1     -10.372  -2.411  12.682  0.00  0.00    +0.000 A 
ATOM     42  C   UNL     1      -9.292  -2.767  13.504  0.00  0.00    +0.000 A 
ATOM     43  C   UNL     1      -9.416  -3.781  14.451  0.00  0.00    +0.000 A 
ATOM     44  H   UNL     1     -12.697  -4.543  14.052  0.00  0.00    +0.000 HD
ATOM     45  H   UNL     1      -8.528  -4.055  15.022  0.00  0.00    +0.000 HD
BRANCH  40  46
ATOM     46  O   UNL     1     -12.693  -2.778  12.121  0.00  0.00    +0.000 OA
ATOM     47  H   UNL     1     -12.610  -1.887  11.726  0.00  0.00    +0.000 HD
ENDBRANCH  40  46
BRANCH  41  48
ATOM     48  C   UNL     1     -10.260  -1.346  11.627  0.00  0.00    +0.000 C 
ATOM     49  O   UNL     1     -10.818  -0.271  11.822  0.00  0.00    +0.000 OA
BRANCH  48  50
ATOM     50  C   UNL     1      -9.373  -1.450  10.441  0.00  0.00    +0.000 A 
ATOM     51  C   UNL     1      -8.156  -0.731  10.379  0.00  0.00    +0.000 A 
ATOM     52  C   UNL     1      -7.445  -0.606   9.186  0.00  0.00    +0.000 A 
ATOM     53  C   UNL     1      -7.874  -1.268   8.047  0.00  0.00    +0.000 A 
ATOM     54  C   UNL     1      -9.017  -2.059   8.108  0.00  0.00    +0.000 A 
ATOM     55  C   UNL     1      -9.791  -2.159   9.290  0.00  0.00    +0.000 A 
ATOM     56  H   UNL     1      -6.564   0.034   9.147  0.00  0.00    +0.000 HD
ATOM     57  H   UNL     1      -7.317  -1.168   7.115  0.00  0.00    +0.000 HD
ATOM     58  H   UNL     1      -9.329  -2.588   7.203  0.00  0.00    +0.000 HD
BRANCH  51  59
ATOM     59  O   UNL     1      -7.613  -0.009  11.408  0.00  0.00    +0.000 OA
ATOM     60  H   UNL     1      -7.395  -0.560  12.176  0.00  0.00    +0.000 HD
ENDBRANCH  51  59
BRANCH  55  61
ATOM     61  C   UNL     1     -11.006  -3.024   9.131  0.00  0.00    +0.000 C 
ATOM     62  O   UNL     1     -12.116  -2.520   9.036  0.00  0.00    +0.000 OA
BRANCH  61  63
ATOM     63  O   UNL     1     -10.847  -4.345   9.334  0.00  0.00    +0.000 OA
ATOM     64  H   UNL     1     -10.685  -4.581  10.274  0.00  0.00    +0.000 HD
ENDBRANCH  61  63
ENDBRANCH  55  61
ENDBRANCH  48  50
ENDBRANCH  41  48
BRANCH  42  65
ATOM     65  O   UNL     1      -8.044  -2.215  13.524  0.00  0.00    +0.000 OA
ATOM     66  H   UNL     1      -7.715  -2.034  14.409  0.00  0.00    +0.000 HD
ENDBRANCH  42  65
ENDBRANCH  36  38
ENDBRANCH  35  36
ENDBRANCH   7  35
TORSDOF 13
ENDMDL
MODEL 7
REMARK VINA RESULT:    -9.758      2.364      3.675
REMARK INTER + INTRA:         -17.964
REMARK INTER:                 -15.732
REMARK INTRA:                  -2.231
REMARK UNBOUND:                -2.215
REMARK  Name = 
REMARK  13 active torsions:
REMARK  status: ('A' for Active; 'I' for Inactive)
REMARK    1  A    between atoms: C_2  and  C_34
REMARK    2  A    between atoms: N_3  and  C_4
REMARK    3  A    between atoms: C_10  and  O_11
REMARK    4  A    between atoms: O_11  and  C_12
REMARK    5  A    between atoms: C_12  and  C_14
REMARK    6  A    between atoms: C_16  and  O_17
REMARK    7  A    between atoms: C_18  and  C_19
REMARK    8  A    between atoms: C_19  and  C_21
REMARK    9  A    between atoms: C_22  and  O_23
REMARK   10  A    between atoms: C_27  and  C_28
REMARK   11  A    between atoms: C_28  and  O_30
REMARK   12  A    between atoms: C_31  and  O_32
REMARK   13  A    between atoms: C_37  and  O_38
REMARK                            x       y       z     vdW  Elec       q    Type
REMARK                         _______ _______ _______ _____ _____    ______ ____
ROOT
ATOM      1  C   UNL     1     -10.915   0.658  20.612  0.00  0.00    +0.000 C 
ATOM      2  C   UNL     1     -11.796   1.566  19.707  0.00  0.00    +0.000 C 
ATOM      3  N   UNL     1     -11.056   2.729  19.215  0.00  0.00    +0.000 NA
ATOM      4  C   UNL     1     -10.263   2.522  18.012  0.00  0.00    +0.000 C 
ATOM      5  C   UNL     1      -9.852   1.097  17.635  0.00  0.00    +0.000 C 
ATOM      6  C   UNL     1      -9.151   0.314  18.749  0.00  0.00    +0.000 C 
ATOM      7  C   UNL     1     -10.091  -0.346  19.770  0.00  0.00    +0.000 C 
ATOM      8  H   UNL     1     -11.613   0.066  21.219  0.00  0.00    +0.000 HD
ATOM      9  H   UNL     1     -12.636   1.948  20.300  0.00  0.00    +0.000 HD
ATOM     10  H   UNL     1     -12.266   1.004  18.889  0.00  0.00    +0.000 HD
ATOM     11  H   UNL     1     -10.456   3.045  19.978  0.00  0.00    +0.000 HD
ATOM     12  H   UNL     1      -9.359   3.136  18.097  0.00  0.00    +0.000 HD
ATOM     13  H   UNL     1     -10.822   2.946  17.168  0.00  0.00    +0.000 HD
ATOM     14  H   UNL     1      -9.157   1.175  16.789  0.00  0.00    +0.000 HD
ATOM     15  H   UNL     1     -10.718   0.545  17.250  0.00  0.00    +0.000 HD
ATOM     16  H   UNL     1      -8.417   0.946  19.260  0.00  0.00    +0.000 HD
ATOM     17  H   UNL     1      -8.585  -0.485  18.256  0.00  0.00    +0.000 HD
ATOM     18  H   UNL     1      -9.504  -0.960  20.465  0.00  0.00    +0.000 HD
ENDROOT
BRANCH   1  21
ATOM     19  O   UNL     1     -10.637   0.072  23.298  0.00  0.00    +0.000 OA
ATOM     20  C   UNL     1     -10.100   1.112  22.916  0.00  0.00    +0.000 C 
ATOM     21  N   UNL     1     -10.101   1.457  21.572  0.00  0.00    +0.000 N 
ATOM     22  H   UNL     1      -9.441   2.141  21.229  0.00  0.00    +0.000 HD
BRANCH  20  23
ATOM     23  C   UNL     1      -9.434   1.988  23.933  0.00  0.00    +0.000 A 
ATOM     24  C   UNL     1     -10.227   3.010  24.493  0.00  0.00    +0.000 A 
ATOM     25  C   UNL     1      -9.709   3.910  25.419  0.00  0.00    +0.000 A 
ATOM     26  C   UNL     1      -8.383   3.786  25.823  0.00  0.00    +0.000 A 
ATOM     27  C   UNL     1      -7.569   2.794  25.261  0.00  0.00    +0.000 A 
ATOM     28  C   UNL     1      -8.090   1.899  24.316  0.00  0.00    +0.000 A 
ATOM     29  H   UNL     1     -11.266   3.126  24.186  0.00  0.00    +0.000 HD
ATOM     30  H   UNL     1     -10.351   4.686  25.831  0.00  0.00    +0.000 HD
ATOM     31  H   UNL     1      -6.526   2.737  25.567  0.00  0.00    +0.000 HD
ATOM     32  H   UNL     1      -7.422   1.156  23.892  0.00  0.00    +0.000 HD
BRANCH  26  33
ATOM     33  O   UNL     1      -7.849   4.629  26.752  0.00  0.00    +0.000 OA
ATOM     34  H   UNL     1      -7.902   5.540  26.418  0.00  0.00    +0.000 HD
ENDBRANCH  26  33
ENDBRANCH  20  23
ENDBRANCH   1  21
BRANCH   7  35
ATOM     35  O   UNL     1     -11.020  -1.218  19.071  0.00  0.00    +0.000 OA
BRANCH  35  36
ATOM     36  C   UNL     1     -11.368  -2.386  19.662  0.00  0.00    +0.000 C 
ATOM     37  O   UNL     1     -12.138  -2.511  20.608  0.00  0.00    +0.000 OA
BRANCH  36  38
ATOM     38  C   UNL     1     -10.693  -3.535  19.005  0.00  0.00    +0.000 A 
ATOM     39  C   UNL     1      -9.333  -3.787  19.224  0.00  0.00    +0.000 A 
ATOM     40  C   UNL     1      -8.727  -4.909  18.639  0.00  0.00    +0.000 A 
ATOM     41  C   UNL     1      -9.462  -5.806  17.841  0.00  0.00    +0.000 A 
ATOM     42  C   UNL     1     -10.829  -5.545  17.660  0.00  0.00    +0.000 A 
ATOM     43  C   UNL     1     -11.417  -4.401  18.193  0.00  0.00    +0.000 A 
ATOM     44  H   UNL     1      -8.754  -3.101  19.844  0.00  0.00    +0.000 HD
ATOM     45  H   UNL     1     -12.470  -4.221  17.972  0.00  0.00    +0.000 HD
BRANCH  40  46
ATOM     46  O   UNL     1      -7.384  -5.094  18.846  0.00  0.00    +0.000 OA
ATOM     47  H   UNL     1      -7.226  -5.554  19.694  0.00  0.00    +0.000 HD
ENDBRANCH  40  46
BRANCH  41  48
ATOM     48  C   UNL     1      -8.791  -7.013  17.249  0.00  0.00    +0.000 C 
ATOM     49  O   UNL     1      -7.974  -6.844  16.349  0.00  0.00    +0.000 OA
BRANCH  48  50
ATOM     50  C   UNL     1      -8.924  -8.385  17.802  0.00  0.00    +0.000 A 
ATOM     51  C   UNL     1      -8.437  -8.698  19.093  0.00  0.00    +0.000 A 
ATOM     52  C   UNL     1      -8.313 -10.019  19.523  0.00  0.00    +0.000 A 
ATOM     53  C   UNL     1      -8.757 -11.057  18.720  0.00  0.00    +0.000 A 
ATOM     54  C   UNL     1      -9.327 -10.767  17.485  0.00  0.00    +0.000 A 
ATOM     55  C   UNL     1      -9.414  -9.441  16.996  0.00  0.00    +0.000 A 
ATOM     56  H   UNL     1      -7.845 -10.233  20.483  0.00  0.00    +0.000 HD
ATOM     57  H   UNL     1      -8.659 -12.089  19.058  0.00  0.00    +0.000 HD
ATOM     58  H   UNL     1      -9.688 -11.600  16.873  0.00  0.00    +0.000 HD
BRANCH  51  59
ATOM     59  O   UNL     1      -7.943  -7.790  19.991  0.00  0.00    +0.000 OA
ATOM     60  H   UNL     1      -7.323  -7.164  19.586  0.00  0.00    +0.000 HD
ENDBRANCH  51  59
BRANCH  55  61
ATOM     61  C   UNL     1     -10.019  -9.350  15.628  0.00  0.00    +0.000 C 
ATOM     62  O   UNL     1      -9.331  -9.531  14.633  0.00  0.00    +0.000 OA
BRANCH  61  63
ATOM     63  O   UNL     1     -11.261  -8.840  15.541  0.00  0.00    +0.000 OA
ATOM     64  H   UNL     1     -11.960  -9.450  15.867  0.00  0.00    +0.000 HD
ENDBRANCH  61  63
ENDBRANCH  55  61
ENDBRANCH  48  50
ENDBRANCH  41  48
BRANCH  42  65
ATOM     65  O   UNL     1     -11.742  -6.313  16.998  0.00  0.00    +0.000 OA
ATOM     66  H   UNL     1     -11.371  -6.808  16.262  0.00  0.00    +0.000 HD
ENDBRANCH  42  65
ENDBRANCH  36  38
ENDBRANCH  35  36
ENDBRANCH   7  35
TORSDOF 13
ENDMDL
MODEL 8
REMARK VINA RESULT:    -9.701      2.675      3.943
REMARK INTER + INTRA:         -17.870
REMARK INTER:                 -16.023
REMARK INTRA:                  -1.847
REMARK UNBOUND:                -2.215
REMARK  Name = 
REMARK  13 active torsions:
REMARK  status: ('A' for Active; 'I' for Inactive)
REMARK    1  A    between atoms: C_2  and  C_34
REMARK    2  A    between atoms: N_3  and  C_4
REMARK    3  A    between atoms: C_10  and  O_11
REMARK    4  A    between atoms: O_11  and  C_12
REMARK    5  A    between atoms: C_12  and  C_14
REMARK    6  A    between atoms: C_16  and  O_17
REMARK    7  A    between atoms: C_18  and  C_19
REMARK    8  A    between atoms: C_19  and  C_21
REMARK    9  A    between atoms: C_22  and  O_23
REMARK   10  A    between atoms: C_27  and  C_28
REMARK   11  A    between atoms: C_28  and  O_30
REMARK   12  A    between atoms: C_31  and  O_32
REMARK   13  A    between atoms: C_37  and  O_38
REMARK                            x       y       z     vdW  Elec       q    Type
REMARK                         _______ _______ _______ _____ _____    ______ ____
ROOT
ATOM      1  C   UNL     1     -10.666  -0.671  19.876  0.00  0.00    +0.000 C 
ATOM      2  C   UNL     1     -11.674   0.509  19.758  0.00  0.00    +0.000 C 
ATOM      3  N   UNL     1     -11.115   1.758  20.279  0.00  0.00    +0.000 NA
ATOM      4  C   UNL     1     -10.302   2.531  19.352  0.00  0.00    +0.000 C 
ATOM      5  C   UNL     1      -9.683   1.824  18.145  0.00  0.00    +0.000 C 
ATOM      6  C   UNL     1      -8.873   0.569  18.480  0.00  0.00    +0.000 C 
ATOM      7  C   UNL     1      -9.703  -0.711  18.665  0.00  0.00    +0.000 C 
ATOM      8  H   UNL     1     -11.269  -1.589  19.833  0.00  0.00    +0.000 HD
ATOM      9  H   UNL     1     -12.560   0.278  20.362  0.00  0.00    +0.000 HD
ATOM     10  H   UNL     1     -12.056   0.627  18.736  0.00  0.00    +0.000 HD
ATOM     11  H   UNL     1     -10.567   1.517  21.107  0.00  0.00    +0.000 HD
ATOM     12  H   UNL     1      -9.498   3.006  19.929  0.00  0.00    +0.000 HD
ATOM     13  H   UNL     1     -10.918   3.359  18.980  0.00  0.00    +0.000 HD
ATOM     14  H   UNL     1      -9.009   2.542  17.661  0.00  0.00    +0.000 HD
ATOM     15  H   UNL     1     -10.458   1.606  17.400  0.00  0.00    +0.000 HD
ATOM     16  H   UNL     1      -8.240   0.742  19.357  0.00  0.00    +0.000 HD
ATOM     17  H   UNL     1      -8.195   0.403  17.635  0.00  0.00    +0.000 HD
ATOM     18  H   UNL     1      -9.031  -1.568  18.803  0.00  0.00    +0.000 HD
ENDROOT
BRANCH   1  21
ATOM     19  O   UNL     1     -11.524  -2.107  22.075  0.00  0.00    +0.000 OA
ATOM     20  C   UNL     1     -10.547  -1.379  22.255  0.00  0.00    +0.000 C 
ATOM     21  N   UNL     1      -9.979  -0.682  21.198  0.00  0.00    +0.000 N 
ATOM     22  H   UNL     1      -9.040  -0.318  21.284  0.00  0.00    +0.000 HD
BRANCH  20  23
ATOM     23  C   UNL     1      -9.979  -1.274  23.637  0.00  0.00    +0.000 A 
ATOM     24  C   UNL     1     -10.153  -2.396  24.473  0.00  0.00    +0.000 A 
ATOM     25  C   UNL     1      -9.702  -2.403  25.789  0.00  0.00    +0.000 A 
ATOM     26  C   UNL     1      -9.041  -1.285  26.289  0.00  0.00    +0.000 A 
ATOM     27  C   UNL     1      -8.877  -0.149  25.485  0.00  0.00    +0.000 A 
ATOM     28  C   UNL     1      -9.348  -0.140  24.165  0.00  0.00    +0.000 A 
ATOM     29  H   UNL     1     -10.674  -3.278  24.101  0.00  0.00    +0.000 HD
ATOM     30  H   UNL     1      -9.855  -3.287  26.405  0.00  0.00    +0.000 HD
ATOM     31  H   UNL     1      -8.387   0.725  25.909  0.00  0.00    +0.000 HD
ATOM     32  H   UNL     1      -9.217   0.765  23.581  0.00  0.00    +0.000 HD
BRANCH  26  33
ATOM     33  O   UNL     1      -8.556  -1.267  27.563  0.00  0.00    +0.000 OA
ATOM     34  H   UNL     1      -7.792  -1.863  27.619  0.00  0.00    +0.000 HD
ENDBRANCH  26  33
ENDBRANCH  20  23
ENDBRANCH   1  21
BRANCH   7  35
ATOM     35  O   UNL     1     -10.493  -0.946  17.467  0.00  0.00    +0.000 OA
BRANCH  35  36
ATOM     36  C   UNL     1      -9.990  -1.776  16.522  0.00  0.00    +0.000 C 
ATOM     37  O   UNL     1      -9.440  -1.430  15.481  0.00  0.00    +0.000 OA
BRANCH  36  38
ATOM     38  C   UNL     1     -10.179  -3.197  16.909  0.00  0.00    +0.000 A 
ATOM     39  C   UNL     1      -9.656  -3.687  18.113  0.00  0.00    +0.000 A 
ATOM     40  C   UNL     1      -9.893  -5.017  18.487  0.00  0.00    +0.000 A 
ATOM     41  C   UNL     1     -10.663  -5.879  17.683  0.00  0.00    +0.000 A 
ATOM     42  C   UNL     1     -11.198  -5.356  16.496  0.00  0.00    +0.000 A 
ATOM     43  C   UNL     1     -10.915  -4.052  16.097  0.00  0.00    +0.000 A 
ATOM     44  H   UNL     1      -9.061  -3.027  18.746  0.00  0.00    +0.000 HD
ATOM     45  H   UNL     1     -11.311  -3.717  15.137  0.00  0.00    +0.000 HD
BRANCH  40  46
ATOM     46  O   UNL     1      -9.327  -5.466  19.654  0.00  0.00    +0.000 OA
ATOM     47  H   UNL     1      -8.688  -6.184  19.472  0.00  0.00    +0.000 HD
ENDBRANCH  40  46
BRANCH  41  48
ATOM     48  C   UNL     1     -10.920  -7.292  18.124  0.00  0.00    +0.000 C 
ATOM     49  O   UNL     1     -11.929  -7.524  18.784  0.00  0.00    +0.000 OA
BRANCH  48  50
ATOM     50  C   UNL     1     -10.122  -8.458  17.666  0.00  0.00    +0.000 A 
ATOM     51  C   UNL     1     -10.348  -9.038  16.396  0.00  0.00    +0.000 A 
ATOM     52  C   UNL     1      -9.803 -10.276  16.055  0.00  0.00    +0.000 A 
ATOM     53  C   UNL     1      -8.945 -10.924  16.929  0.00  0.00    +0.000 A 
ATOM     54  C   UNL     1      -8.633 -10.326  18.146  0.00  0.00    +0.000 A 
ATOM     55  C   UNL     1      -9.215  -9.098  18.544  0.00  0.00    +0.000 A 
ATOM     56  H   UNL     1     -10.073 -10.743  15.109  0.00  0.00    +0.000 HD
ATOM     57  H   UNL     1      -8.521 -11.892  16.661  0.00  0.00    +0.000 HD
ATOM     58  H   UNL     1      -7.940 -10.846  18.814  0.00  0.00    +0.000 HD
BRANCH  51  59
ATOM     59  O   UNL     1     -11.182  -8.534  15.435  0.00  0.00    +0.000 OA
ATOM     60  H   UNL     1     -11.001  -8.899  14.554  0.00  0.00    +0.000 HD
ENDBRANCH  51  59
BRANCH  55  61
ATOM     61  C   UNL     1      -8.781  -8.650  19.907  0.00  0.00    +0.000 C 
ATOM     62  O   UNL     1      -7.952  -7.760  20.032  0.00  0.00    +0.000 OA
BRANCH  61  63
ATOM     63  O   UNL     1      -9.156  -9.414  20.950  0.00  0.00    +0.000 OA
ATOM     64  H   UNL     1     -10.122  -9.594  20.978  0.00  0.00    +0.000 HD
ENDBRANCH  61  63
ENDBRANCH  55  61
ENDBRANCH  48  50
ENDBRANCH  41  48
BRANCH  42  65
ATOM     65  O   UNL     1     -12.029  -5.979  15.612  0.00  0.00    +0.000 OA
ATOM     66  H   UNL     1     -11.878  -5.730  14.696  0.00  0.00    +0.000 HD
ENDBRANCH  42  65
ENDBRANCH  36  38
ENDBRANCH  35  36
ENDBRANCH   7  35
TORSDOF 13
ENDMDL
MODEL 9
REMARK VINA RESULT:    -9.609      5.825     11.327
REMARK INTER + INTRA:         -17.723
REMARK INTER:                 -15.398
REMARK INTRA:                  -2.325
REMARK UNBOUND:                -2.215
REMARK  Name = 
REMARK  13 active torsions:
REMARK  status: ('A' for Active; 'I' for Inactive)
REMARK    1  A    between atoms: C_2  and  C_34
REMARK    2  A    between atoms: N_3  and  C_4
REMARK    3  A    between atoms: C_10  and  O_11
REMARK    4  A    between atoms: O_11  and  C_12
REMARK    5  A    between atoms: C_12  and  C_14
REMARK    6  A    between atoms: C_16  and  O_17
REMARK    7  A    between atoms: C_18  and  C_19
REMARK    8  A    between atoms: C_19  and  C_21
REMARK    9  A    between atoms: C_22  and  O_23
REMARK   10  A    between atoms: C_27  and  C_28
REMARK   11  A    between atoms: C_28  and  O_30
REMARK   12  A    between atoms: C_31  and  O_32
REMARK   13  A    between atoms: C_37  and  O_38
REMARK                            x       y       z     vdW  Elec       q    Type
REMARK                         _______ _______ _______ _____ _____    ______ ____
ROOT
ATOM      1  C   UNL     1      -9.539  -7.697  18.039  0.00  0.00    +0.000 C 
ATOM      2  C   UNL     1      -9.425  -7.350  19.551  0.00  0.00    +0.000 C 
ATOM      3  N   UNL     1      -8.132  -7.752  20.108  0.00  0.00    +0.000 NA
ATOM      4  C   UNL     1      -7.040  -6.805  19.941  0.00  0.00    +0.000 C 
ATOM      5  C   UNL     1      -7.139  -5.751  18.837  0.00  0.00    +0.000 C 
ATOM      6  C   UNL     1      -7.439  -6.307  17.442  0.00  0.00    +0.000 C 
ATOM      7  C   UNL     1      -8.924  -6.584  17.157  0.00  0.00    +0.000 C 
ATOM      8  H   UNL     1     -10.614  -7.723  17.814  0.00  0.00    +0.000 HD
ATOM      9  H   UNL     1     -10.197  -7.903  20.100  0.00  0.00    +0.000 HD
ATOM     10  H   UNL     1      -9.645  -6.293  19.751  0.00  0.00    +0.000 HD
ATOM     11  H   UNL     1      -7.888  -8.646  19.678  0.00  0.00    +0.000 HD
ATOM     12  H   UNL     1      -6.118  -7.380  19.795  0.00  0.00    +0.000 HD
ATOM     13  H   UNL     1      -6.905  -6.281  20.896  0.00  0.00    +0.000 HD
ATOM     14  H   UNL     1      -6.170  -5.237  18.794  0.00  0.00    +0.000 HD
ATOM     15  H   UNL     1      -7.865  -4.979  19.117  0.00  0.00    +0.000 HD
ATOM     16  H   UNL     1      -6.840  -7.204  17.248  0.00  0.00    +0.000 HD
ATOM     17  H   UNL     1      -7.102  -5.548  16.727  0.00  0.00    +0.000 HD
ATOM     18  H   UNL     1      -9.046  -6.884  16.109  0.00  0.00    +0.000 HD
ENDROOT
BRANCH   1  21
ATOM     19  O   UNL     1     -10.489  -9.337  16.028  0.00  0.00    +0.000 OA
ATOM     20  C   UNL     1      -9.628  -9.826  16.759  0.00  0.00    +0.000 C 
ATOM     21  N   UNL     1      -9.018  -9.062  17.744  0.00  0.00    +0.000 N 
ATOM     22  H   UNL     1      -8.143  -9.368  18.146  0.00  0.00    +0.000 HD
BRANCH  20  23
ATOM     23  C   UNL     1      -9.244 -11.259  16.552  0.00  0.00    +0.000 A 
ATOM     24  C   UNL     1      -9.122 -11.688  15.215  0.00  0.00    +0.000 A 
ATOM     25  C   UNL     1      -8.807 -13.005  14.897  0.00  0.00    +0.000 A 
ATOM     26  C   UNL     1      -8.583 -13.920  15.921  0.00  0.00    +0.000 A 
ATOM     27  C   UNL     1      -8.723 -13.524  17.258  0.00  0.00    +0.000 A 
ATOM     28  C   UNL     1      -9.057 -12.199  17.574  0.00  0.00    +0.000 A 
ATOM     29  H   UNL     1      -9.299 -10.988  14.399  0.00  0.00    +0.000 HD
ATOM     30  H   UNL     1      -8.721 -13.300  13.852  0.00  0.00    +0.000 HD
ATOM     31  H   UNL     1      -8.577 -14.264  18.041  0.00  0.00    +0.000 HD
ATOM     32  H   UNL     1      -9.173 -11.937  18.621  0.00  0.00    +0.000 HD
BRANCH  26  33
ATOM     33  O   UNL     1      -8.242 -15.211  15.649  0.00  0.00    +0.000 OA
ATOM     34  H   UNL     1      -7.400 -15.414  16.088  0.00  0.00    +0.000 HD
ENDBRANCH  26  33
ENDBRANCH  20  23
ENDBRANCH   1  21
BRANCH   7  35
ATOM     35  O   UNL     1      -9.686  -5.365  17.371  0.00  0.00    +0.000 OA
BRANCH  35  36
ATOM     36  C   UNL     1     -10.878  -5.238  16.739  0.00  0.00    +0.000 C 
ATOM     37  O   UNL     1     -11.926  -5.787  17.063  0.00  0.00    +0.000 OA
BRANCH  36  38
ATOM     38  C   UNL     1     -10.766  -4.321  15.576  0.00  0.00    +0.000 A 
ATOM     39  C   UNL     1     -10.427  -2.974  15.756  0.00  0.00    +0.000 A 
ATOM     40  C   UNL     1     -10.271  -2.138  14.641  0.00  0.00    +0.000 A 
ATOM     41  C   UNL     1     -10.434  -2.625  13.331  0.00  0.00    +0.000 A 
ATOM     42  C   UNL     1     -10.747  -3.984  13.177  0.00  0.00    +0.000 A 
ATOM     43  C   UNL     1     -10.957  -4.801  14.285  0.00  0.00    +0.000 A 
ATOM     44  H   UNL     1     -10.294  -2.586  16.767  0.00  0.00    +0.000 HD
ATOM     45  H   UNL     1     -11.254  -5.835  14.105  0.00  0.00    +0.000 HD
BRANCH  40  46
ATOM     46  O   UNL     1      -9.980  -0.816  14.866  0.00  0.00    +0.000 OA
ATOM     47  H   UNL     1      -9.022  -0.651  14.760  0.00  0.00    +0.000 HD
ENDBRANCH  40  46
BRANCH  41  48
ATOM     48  C   UNL     1     -10.236  -1.710  12.155  0.00  0.00    +0.000 C 
ATOM     49  O   UNL     1      -9.113  -1.265  11.946  0.00  0.00    +0.000 OA
BRANCH  48  50
ATOM     50  C   UNL     1     -11.277  -1.447  11.130  0.00  0.00    +0.000 A 
ATOM     51  C   UNL     1     -11.153  -1.966   9.819  0.00  0.00    +0.000 A 
ATOM     52  C   UNL     1     -11.970  -1.521   8.780  0.00  0.00    +0.000 A 
ATOM     53  C   UNL     1     -12.992  -0.621   9.035  0.00  0.00    +0.000 A 
ATOM     54  C   UNL     1     -13.194  -0.169  10.335  0.00  0.00    +0.000 A 
ATOM     55  C   UNL     1     -12.345  -0.558  11.400  0.00  0.00    +0.000 A 
ATOM     56  H   UNL     1     -11.787  -1.866   7.764  0.00  0.00    +0.000 HD
ATOM     57  H   UNL     1     -13.629  -0.274   8.222  0.00  0.00    +0.000 HD
ATOM     58  H   UNL     1     -14.018   0.528  10.519  0.00  0.00    +0.000 HD
BRANCH  51  59
ATOM     59  O   UNL     1     -10.185  -2.841   9.406  0.00  0.00    +0.000 OA
ATOM     60  H   UNL     1      -9.501  -2.986  10.079  0.00  0.00    +0.000 HD
ENDBRANCH  51  59
BRANCH  55  61
ATOM     61  C   UNL     1     -12.707   0.075  12.710  0.00  0.00    +0.000 C 
ATOM     62  O   UNL     1     -11.975   0.915  13.214  0.00  0.00    +0.000 OA
BRANCH  61  63
ATOM     63  O   UNL     1     -13.721  -0.480  13.398  0.00  0.00    +0.000 OA
ATOM     64  H   UNL     1     -14.102  -1.275  12.963  0.00  0.00    +0.000 HD
ENDBRANCH  61  63
ENDBRANCH  55  61
ENDBRANCH  48  50
ENDBRANCH  41  48
BRANCH  42  65
ATOM     65  O   UNL     1     -10.873  -4.683  12.011  0.00  0.00    +0.000 OA
ATOM     66  H   UNL     1     -10.210  -5.370  11.898  0.00  0.00    +0.000 HD
ENDBRANCH  42  65
ENDBRANCH  36  38
ENDBRANCH  35  36
ENDBRANCH   7  35
TORSDOF 13
ENDMDL
