MODEL 1
REMARK VINA RESULT:   -10.947      0.000      0.000
REMARK INTER + INTRA:         -20.103
REMARK INTER:                 -17.666
REMARK INTRA:                  -2.436
REMARK UNBOUND:                -2.436
REMARK  Name = 
REMARK  13 active torsions:
REMARK  status: ('A' for Active; 'I' for Inactive)
REMARK    1  A    between atoms: C_2  and  C_32
REMARK    2  A    between atoms: N_3  and  C_4
REMARK    3  A    between atoms: C_8  and  O_9
REMARK    4  A    between atoms: O_9  and  C_10
REMARK    5  A    between atoms: C_10  and  C_12
REMARK    6  A    between atoms: C_14  and  O_15
REMARK    7  A    between atoms: C_16  and  C_17
REMARK    8  A    between atoms: C_17  and  C_19
REMARK    9  A    between atoms: C_20  and  O_21
REMARK   10  A    between atoms: C_25  and  C_26
REMARK   11  A    between atoms: C_26  and  O_28
REMARK   12  A    between atoms: C_29  and  O_30
REMARK   13  A    between atoms: C_35  and  O_36
REMARK                            x       y       z     vdW  Elec       q    Type
REMARK                         _______ _______ _______ _____ _____    ______ ____
ROOT
ATOM      1  C   UNL     1      -6.475  -5.194  20.197  0.00  0.00    +0.000 C 
ATOM      2  O   UNL     1      -5.390  -5.493  20.677  0.00  0.00    +0.000 OA
ENDROOT
BRANCH   1   3
ATOM      3  C   UNL     1      -7.347  -6.195  19.538  0.00  0.00    +0.000 A 
ATOM      4  C   UNL     1      -8.118  -7.115  20.253  0.00  0.00    +0.000 A 
ATOM      5  C   UNL     1      -8.905  -8.035  19.552  0.00  0.00    +0.000 A 
ATOM      6  C   UNL     1      -8.929  -8.057  18.143  0.00  0.00    +0.000 A 
ATOM      7  C   UNL     1      -8.206  -7.082  17.446  0.00  0.00    +0.000 A 
ATOM      8  C   UNL     1      -7.404  -6.176  18.137  0.00  0.00    +0.000 A 
ATOM      9  H   UNL     1      -8.081  -7.137  21.336  0.00  0.00    +0.000 HD
ATOM     10  H   UNL     1      -6.825  -5.443  17.577  0.00  0.00    +0.000 HD
BRANCH   5  11
ATOM     11  O   UNL     1      -9.639  -8.943  20.270  0.00  0.00    +0.000 OA
ATOM     12  H   UNL     1     -10.463  -8.538  20.584  0.00  0.00    +0.000 HD
ENDBRANCH   5  11
BRANCH   6  13
ATOM     13  C   UNL     1      -9.725  -9.087  17.434  0.00  0.00    +0.000 C 
ATOM     14  O   UNL     1     -10.900  -8.828  17.151  0.00  0.00    +0.000 OA
BRANCH  13  15
ATOM     15  C   UNL     1      -9.154 -10.349  16.867  0.00  0.00    +0.000 A 
ATOM     16  C   UNL     1      -8.776 -11.338  17.806  0.00  0.00    +0.000 A 
ATOM     17  C   UNL     1      -8.298 -12.585  17.410  0.00  0.00    +0.000 A 
ATOM     18  C   UNL     1      -8.176 -12.882  16.059  0.00  0.00    +0.000 A 
ATOM     19  C   UNL     1      -8.527 -11.924  15.108  0.00  0.00    +0.000 A 
ATOM     20  C   UNL     1      -9.022 -10.658  15.499  0.00  0.00    +0.000 A 
ATOM     21  H   UNL     1      -8.009 -13.316  18.161  0.00  0.00    +0.000 HD
ATOM     22  H   UNL     1      -7.789 -13.849  15.749  0.00  0.00    +0.000 HD
ATOM     23  H   UNL     1      -8.378 -12.167  14.056  0.00  0.00    +0.000 HD
BRANCH  16  24
ATOM     24  O   UNL     1      -8.877 -11.166  19.163  0.00  0.00    +0.000 OA
ATOM     25  H   UNL     1      -8.073 -10.687  19.474  0.00  0.00    +0.000 HD
ENDBRANCH  16  24
BRANCH  20  26
ATOM     26  C   UNL     1      -9.310  -9.685  14.423  0.00  0.00    +0.000 C 
ATOM     27  O   UNL     1      -8.640  -8.693  14.222  0.00  0.00    +0.000 OA
BRANCH  26  28
ATOM     28  O   UNL     1     -10.398 -10.000  13.677  0.00  0.00    +0.000 OA
ATOM     29  H   UNL     1     -10.379 -10.871  13.234  0.00  0.00    +0.000 HD
ENDBRANCH  26  28
ENDBRANCH  20  26
ENDBRANCH  13  15
ENDBRANCH   6  13
BRANCH   7  30
ATOM     30  O   UNL     1      -8.205  -6.943  16.082  0.00  0.00    +0.000 OA
ATOM     31  H   UNL     1      -8.489  -7.774  15.662  0.00  0.00    +0.000 HD
ENDBRANCH   7  30
ENDBRANCH   1   3
BRANCH   1  32
ATOM     32  O   UNL     1      -6.952  -3.924  20.063  0.00  0.00    +0.000 OA
BRANCH  32  37
ATOM     33  C   UNL     1      -9.179  -2.926  20.518  0.00  0.00    +0.000 C 
ATOM     34  C   UNL     1      -8.839  -1.440  20.602  0.00  0.00    +0.000 C 
ATOM     35  N   UNL     1      -8.116  -1.293  21.875  0.00  0.00    +0.000 NA
ATOM     36  C   UNL     1      -7.322  -2.527  22.013  0.00  0.00    +0.000 C 
ATOM     37  C   UNL     1      -7.925  -3.602  21.084  0.00  0.00    +0.000 C 
ATOM     38  H   UNL     1     -10.016  -3.121  21.204  0.00  0.00    +0.000 HD
ATOM     39  H   UNL     1      -9.734  -0.809  20.594  0.00  0.00    +0.000 HD
ATOM     40  H   UNL     1      -8.200  -1.124  19.769  0.00  0.00    +0.000 HD
ATOM     41  H   UNL     1      -8.804  -1.262  22.631  0.00  0.00    +0.000 HD
ATOM     42  H   UNL     1      -7.335  -2.858  23.056  0.00  0.00    +0.000 HD
ATOM     43  H   UNL     1      -6.281  -2.301  21.753  0.00  0.00    +0.000 HD
ATOM     44  H   UNL     1      -8.226  -4.506  21.628  0.00  0.00    +0.000 HD
BRANCH  33  47
ATOM     45  O   UNL     1     -11.797  -2.846  19.542  0.00  0.00    +0.000 OA
ATOM     46  C   UNL     1     -10.906  -3.270  18.808  0.00  0.00    +0.000 C 
ATOM     47  N   UNL     1      -9.588  -3.375  19.198  0.00  0.00    +0.000 N 
ATOM     48  H   UNL     1      -8.864  -3.529  18.507  0.00  0.00    +0.000 HD
BRANCH  46  49
ATOM     49  C   UNL     1     -11.214  -3.634  17.403  0.00  0.00    +0.000 A 
ATOM     50  C   UNL     1     -11.557  -2.613  16.506  0.00  0.00    +0.000 A 
ATOM     51  C   UNL     1     -11.806  -2.910  15.165  0.00  0.00    +0.000 A 
ATOM     52  C   UNL     1     -11.733  -4.233  14.739  0.00  0.00    +0.000 A 
ATOM     53  C   UNL     1     -11.442  -5.261  15.633  0.00  0.00    +0.000 A 
ATOM     54  C   UNL     1     -11.178  -4.965  16.972  0.00  0.00    +0.000 A 
ATOM     55  H   UNL     1     -11.621  -1.583  16.852  0.00  0.00    +0.000 HD
ATOM     56  H   UNL     1     -12.051  -2.108  14.477  0.00  0.00    +0.000 HD
ATOM     57  H   UNL     1     -11.420  -6.290  15.284  0.00  0.00    +0.000 HD
ATOM     58  H   UNL     1     -10.972  -5.774  17.667  0.00  0.00    +0.000 HD
BRANCH  52  59
ATOM     59  O   UNL     1     -11.939  -4.569  13.434  0.00  0.00    +0.000 OA
ATOM     60  H   UNL     1     -11.394  -5.343  13.220  0.00  0.00    +0.000 HD
ENDBRANCH  52  59
ENDBRANCH  46  49
ENDBRANCH  33  47
ENDBRANCH  32  37
ENDBRANCH   1  32
TORSDOF 13
ENDMDL
MODEL 2
REMARK VINA RESULT:   -10.902      0.527      1.958
REMARK INTER + INTRA:         -20.030
REMARK INTER:                 -17.195
REMARK INTRA:                  -2.834
REMARK UNBOUND:                -2.436
REMARK  Name = 
REMARK  13 active torsions:
REMARK  status: ('A' for Active; 'I' for Inactive)
REMARK    1  A    between atoms: C_2  and  C_32
REMARK    2  A    between atoms: N_3  and  C_4
REMARK    3  A    between atoms: C_8  and  O_9
REMARK    4  A    between atoms: O_9  and  C_10
REMARK    5  A    between atoms: C_10  and  C_12
REMARK    6  A    between atoms: C_14  and  O_15
REMARK    7  A    between atoms: C_16  and  C_17
REMARK    8  A    between atoms: C_17  and  C_19
REMARK    9  A    between atoms: C_20  and  O_21
REMARK   10  A    between atoms: C_25  and  C_26
REMARK   11  A    between atoms: C_26  and  O_28
REMARK   12  A    between atoms: C_29  and  O_30
REMARK   13  A    between atoms: C_35  and  O_36
REMARK                            x       y       z     vdW  Elec       q    Type
REMARK                         _______ _______ _______ _____ _____    ______ ____
ROOT
ATOM      1  C   UNL     1      -6.455  -5.335  20.005  0.00  0.00    +0.000 C 
ATOM      2  O   UNL     1      -5.346  -5.641  20.421  0.00  0.00    +0.000 OA
ENDROOT
BRANCH   1   3
ATOM      3  C   UNL     1      -7.356  -6.321  19.363  0.00  0.00    +0.000 A 
ATOM      4  C   UNL     1      -8.109  -7.245  20.091  0.00  0.00    +0.000 A 
ATOM      5  C   UNL     1      -8.926  -8.150  19.405  0.00  0.00    +0.000 A 
ATOM      6  C   UNL     1      -8.997  -8.152  17.997  0.00  0.00    +0.000 A 
ATOM      7  C   UNL     1      -8.291  -7.173  17.289  0.00  0.00    +0.000 A 
ATOM      8  C   UNL     1      -7.460  -6.281  17.965  0.00  0.00    +0.000 A 
ATOM      9  H   UNL     1      -8.037  -7.282  21.172  0.00  0.00    +0.000 HD
ATOM     10  H   UNL     1      -6.895  -5.545  17.396  0.00  0.00    +0.000 HD
BRANCH   5  11
ATOM     11  O   UNL     1      -9.642  -9.063  20.135  0.00  0.00    +0.000 OA
ATOM     12  H   UNL     1      -9.053  -9.555  20.729  0.00  0.00    +0.000 HD
ENDBRANCH   5  11
BRANCH   6  13
ATOM     13  C   UNL     1      -9.824  -9.167  17.301  0.00  0.00    +0.000 C 
ATOM     14  O   UNL     1     -11.044  -8.983  17.233  0.00  0.00    +0.000 OA
BRANCH  13  15
ATOM     15  C   UNL     1      -9.266 -10.308  16.510  0.00  0.00    +0.000 A 
ATOM     16  C   UNL     1      -9.329 -10.179  15.102  0.00  0.00    +0.000 A 
ATOM     17  C   UNL     1      -8.781 -11.135  14.250  0.00  0.00    +0.000 A 
ATOM     18  C   UNL     1      -8.156 -12.257  14.778  0.00  0.00    +0.000 A 
ATOM     19  C   UNL     1      -8.089 -12.421  16.162  0.00  0.00    +0.000 A 
ATOM     20  C   UNL     1      -8.633 -11.452  17.036  0.00  0.00    +0.000 A 
ATOM     21  H   UNL     1      -8.857 -11.005  13.173  0.00  0.00    +0.000 HD
ATOM     22  H   UNL     1      -7.741 -13.010  14.114  0.00  0.00    +0.000 HD
ATOM     23  H   UNL     1      -7.633 -13.332  16.548  0.00  0.00    +0.000 HD
BRANCH  16  24
ATOM     24  O   UNL     1      -9.898  -9.103  14.469  0.00  0.00    +0.000 OA
ATOM     25  H   UNL     1     -10.875  -9.156  14.590  0.00  0.00    +0.000 HD
ENDBRANCH  16  24
BRANCH  20  26
ATOM     26  C   UNL     1      -8.570 -11.741  18.486  0.00  0.00    +0.000 C 
ATOM     27  O   UNL     1      -7.974 -11.044  19.281  0.00  0.00    +0.000 OA
BRANCH  26  28
ATOM     28  O   UNL     1      -9.240 -12.863  18.850  0.00  0.00    +0.000 OA
ATOM     29  H   UNL     1     -10.140 -12.966  18.483  0.00  0.00    +0.000 HD
ENDBRANCH  26  28
ENDBRANCH  20  26
ENDBRANCH  13  15
ENDBRANCH   6  13
BRANCH   7  30
ATOM     30  O   UNL     1      -8.335  -7.016  15.928  0.00  0.00    +0.000 OA
ATOM     31  H   UNL     1      -7.707  -6.325  15.652  0.00  0.00    +0.000 HD
ENDBRANCH   7  30
ENDBRANCH   1   3
BRANCH   1  32
ATOM     32  O   UNL     1      -6.943  -4.064  19.932  0.00  0.00    +0.000 OA
BRANCH  32  37
ATOM     33  C   UNL     1      -9.176  -3.110  20.447  0.00  0.00    +0.000 C 
ATOM     34  C   UNL     1      -8.851  -1.625  20.593  0.00  0.00    +0.000 C 
ATOM     35  N   UNL     1      -8.119  -1.526  21.866  0.00  0.00    +0.000 NA
ATOM     36  C   UNL     1      -7.312  -2.756  21.944  0.00  0.00    +0.000 C 
ATOM     37  C   UNL     1      -7.912  -3.796  20.973  0.00  0.00    +0.000 C 
ATOM     38  H   UNL     1     -10.007  -3.342  21.129  0.00  0.00    +0.000 HD
ATOM     39  H   UNL     1      -9.752  -1.004  20.618  0.00  0.00    +0.000 HD
ATOM     40  H   UNL     1      -8.221  -1.267  19.770  0.00  0.00    +0.000 HD
ATOM     41  H   UNL     1      -8.802  -1.535  22.627  0.00  0.00    +0.000 HD
ATOM     42  H   UNL     1      -7.315  -3.133  22.972  0.00  0.00    +0.000 HD
ATOM     43  H   UNL     1      -6.276  -2.508  21.687  0.00  0.00    +0.000 HD
ATOM     44  H   UNL     1      -8.200  -4.726  21.479  0.00  0.00    +0.000 HD
BRANCH  33  47
ATOM     45  O   UNL     1     -11.791  -2.952  19.471  0.00  0.00    +0.000 OA
ATOM     46  C   UNL     1     -10.907  -3.364  18.723  0.00  0.00    +0.000 C 
ATOM     47  N   UNL     1      -9.591  -3.505  19.111  0.00  0.00    +0.000 N 
ATOM     48  H   UNL     1      -8.868  -3.646  18.416  0.00  0.00    +0.000 HD
BRANCH  46  49
ATOM     49  C   UNL     1     -11.218  -3.673  17.306  0.00  0.00    +0.000 A 
ATOM     50  C   UNL     1     -11.556  -2.617  16.449  0.00  0.00    +0.000 A 
ATOM     51  C   UNL     1     -11.808  -2.863  15.098  0.00  0.00    +0.000 A 
ATOM     52  C   UNL     1     -11.744  -4.169  14.623  0.00  0.00    +0.000 A 
ATOM     53  C   UNL     1     -11.459  -5.232  15.477  0.00  0.00    +0.000 A 
ATOM     54  C   UNL     1     -11.192  -4.987  16.826  0.00  0.00    +0.000 A 
ATOM     55  H   UNL     1     -11.612  -1.601  16.833  0.00  0.00    +0.000 HD
ATOM     56  H   UNL     1     -12.048  -2.033  14.441  0.00  0.00    +0.000 HD
ATOM     57  H   UNL     1     -11.443  -6.247  15.090  0.00  0.00    +0.000 HD
ATOM     58  H   UNL     1     -10.990  -5.824  17.490  0.00  0.00    +0.000 HD
BRANCH  52  59
ATOM     59  O   UNL     1     -11.953  -4.455  13.306  0.00  0.00    +0.000 OA
ATOM     60  H   UNL     1     -11.094  -4.556  12.867  0.00  0.00    +0.000 HD
ENDBRANCH  52  59
ENDBRANCH  46  49
ENDBRANCH  33  47
ENDBRANCH  32  37
ENDBRANCH   1  32
TORSDOF 13
ENDMDL
MODEL 3
REMARK VINA RESULT:   -10.612      0.541      2.382
REMARK INTER + INTRA:         -19.562
REMARK INTER:                 -16.963
REMARK INTRA:                  -2.599
REMARK UNBOUND:                -2.436
REMARK  Name = 
REMARK  13 active torsions:
REMARK  status: ('A' for Active; 'I' for Inactive)
REMARK    1  A    between atoms: C_2  and  C_32
REMARK    2  A    between atoms: N_3  and  C_4
REMARK    3  A    between atoms: C_8  and  O_9
REMARK    4  A    between atoms: O_9  and  C_10
REMARK    5  A    between atoms: C_10  and  C_12
REMARK    6  A    between atoms: C_14  and  O_15
REMARK    7  A    between atoms: C_16  and  C_17
REMARK    8  A    between atoms: C_17  and  C_19
REMARK    9  A    between atoms: C_20  and  O_21
REMARK   10  A    between atoms: C_25  and  C_26
REMARK   11  A    between atoms: C_26  and  O_28
REMARK   12  A    between atoms: C_29  and  O_30
REMARK   13  A    between atoms: C_35  and  O_36
REMARK                            x       y       z     vdW  Elec       q    Type
REMARK                         _______ _______ _______ _____ _____    ______ ____
ROOT
ATOM      1  C   UNL     1      -6.558  -5.200  20.123  0.00  0.00    +0.000 C 
ATOM      2  O   UNL     1      -5.523  -5.494  20.704  0.00  0.00    +0.000 OA
ENDROOT
BRANCH   1   3
ATOM      3  C   UNL     1      -7.350  -6.200  19.370  0.00  0.00    +0.000 A 
ATOM      4  C   UNL     1      -7.421  -6.215  17.975  0.00  0.00    +0.000 A 
ATOM      5  C   UNL     1      -8.204  -7.188  17.342  0.00  0.00    +0.000 A 
ATOM      6  C   UNL     1      -8.926  -8.144  18.084  0.00  0.00    +0.000 A 
ATOM      7  C   UNL     1      -8.786  -8.157  19.477  0.00  0.00    +0.000 A 
ATOM      8  C   UNL     1      -8.024  -7.179  20.114  0.00  0.00    +0.000 A 
ATOM      9  H   UNL     1      -6.902  -5.463  17.391  0.00  0.00    +0.000 HD
ATOM     10  H   UNL     1      -7.950  -7.187  21.200  0.00  0.00    +0.000 HD
BRANCH   5  11
ATOM     11  O   UNL     1      -8.277  -7.174  15.974  0.00  0.00    +0.000 OA
ATOM     12  H   UNL     1      -7.403  -6.997  15.591  0.00  0.00    +0.000 HD
ENDBRANCH   5  11
BRANCH   6  13
ATOM     13  C   UNL     1      -9.795  -9.119  17.382  0.00  0.00    +0.000 C 
ATOM     14  O   UNL     1     -11.011  -8.902  17.349  0.00  0.00    +0.000 OA
BRANCH  13  15
ATOM     15  C   UNL     1      -9.285 -10.252  16.547  0.00  0.00    +0.000 A 
ATOM     16  C   UNL     1      -9.398 -10.092  15.146  0.00  0.00    +0.000 A 
ATOM     17  C   UNL     1      -8.897 -11.038  14.254  0.00  0.00    +0.000 A 
ATOM     18  C   UNL     1      -8.273 -12.180  14.736  0.00  0.00    +0.000 A 
ATOM     19  C   UNL     1      -8.158 -12.375  16.112  0.00  0.00    +0.000 A 
ATOM     20  C   UNL     1      -8.654 -11.416  17.026  0.00  0.00    +0.000 A 
ATOM     21  H   UNL     1      -9.011 -10.884  13.184  0.00  0.00    +0.000 HD
ATOM     22  H   UNL     1      -7.896 -12.927  14.041  0.00  0.00    +0.000 HD
ATOM     23  H   UNL     1      -7.704 -13.302  16.462  0.00  0.00    +0.000 HD
BRANCH  16  24
ATOM     24  O   UNL     1      -9.971  -8.993  14.557  0.00  0.00    +0.000 OA
ATOM     25  H   UNL     1      -9.248  -8.396  14.250  0.00  0.00    +0.000 HD
ENDBRANCH  16  24
BRANCH  20  26
ATOM     26  C   UNL     1      -8.543 -11.737  18.466  0.00  0.00    +0.000 C 
ATOM     27  O   UNL     1      -7.886 -11.082  19.248  0.00  0.00    +0.000 OA
BRANCH  26  28
ATOM     28  O   UNL     1      -9.242 -12.839  18.836  0.00  0.00    +0.000 OA
ATOM     29  H   UNL     1     -10.158 -12.901  18.501  0.00  0.00    +0.000 HD
ENDBRANCH  26  28
ENDBRANCH  20  26
ENDBRANCH  13  15
ENDBRANCH   6  13
BRANCH   7  30
ATOM     30  O   UNL     1      -9.369  -9.079  20.307  0.00  0.00    +0.000 OA
ATOM     31  H   UNL     1      -9.362  -9.957  19.888  0.00  0.00    +0.000 HD
ENDBRANCH   7  30
ENDBRANCH   1   3
BRANCH   1  32
ATOM     32  O   UNL     1      -7.035  -3.933  19.959  0.00  0.00    +0.000 OA
BRANCH  32  37
ATOM     33  C   UNL     1      -9.247  -2.883  20.365  0.00  0.00    +0.000 C 
ATOM     34  C   UNL     1      -8.873  -1.407  20.470  0.00  0.00    +0.000 C 
ATOM     35  N   UNL     1      -8.180  -1.288  21.763  0.00  0.00    +0.000 NA
ATOM     36  C   UNL     1      -7.421  -2.542  21.911  0.00  0.00    +0.000 C 
ATOM     37  C   UNL     1      -8.025  -3.594  20.957  0.00  0.00    +0.000 C 
ATOM     38  H   UNL     1     -10.107  -3.062  21.027  0.00  0.00    +0.000 HD
ATOM     39  H   UNL     1      -9.751  -0.754  20.444  0.00  0.00    +0.000 HD
ATOM     40  H   UNL     1      -8.205  -1.100  19.657  0.00  0.00    +0.000 HD
ATOM     41  H   UNL     1      -8.886  -1.246  22.501  0.00  0.00    +0.000 HD
ATOM     42  H   UNL     1      -7.470  -2.881  22.951  0.00  0.00    +0.000 HD
ATOM     43  H   UNL     1      -6.368  -2.340  21.680  0.00  0.00    +0.000 HD
ATOM     44  H   UNL     1      -8.363  -4.495  21.486  0.00  0.00    +0.000 HD
BRANCH  33  47
ATOM     45  O   UNL     1     -11.868  -2.930  19.395  0.00  0.00    +0.000 OA
ATOM     46  C   UNL     1     -10.956  -3.274  18.646  0.00  0.00    +0.000 C 
ATOM     47  N   UNL     1      -9.632  -3.312  19.031  0.00  0.00    +0.000 N 
ATOM     48  H   UNL     1      -8.902  -3.398  18.334  0.00  0.00    +0.000 HD
BRANCH  46  49
ATOM     49  C   UNL     1     -11.245  -3.608  17.230  0.00  0.00    +0.000 A 
ATOM     50  C   UNL     1     -11.615  -2.574  16.359  0.00  0.00    +0.000 A 
ATOM     51  C   UNL     1     -11.848  -2.842  15.009  0.00  0.00    +0.000 A 
ATOM     52  C   UNL     1     -11.733  -4.150  14.548  0.00  0.00    +0.000 A 
ATOM     53  C   UNL     1     -11.415  -5.193  15.416  0.00  0.00    +0.000 A 
ATOM     54  C   UNL     1     -11.167  -4.925  16.763  0.00  0.00    +0.000 A 
ATOM     55  H   UNL     1     -11.711  -1.557  16.733  0.00  0.00    +0.000 HD
ATOM     56  H   UNL     1     -12.114  -2.029  14.342  0.00  0.00    +0.000 HD
ATOM     57  H   UNL     1     -11.360  -6.211  15.039  0.00  0.00    +0.000 HD
ATOM     58  H   UNL     1     -10.940  -5.747  17.437  0.00  0.00    +0.000 HD
BRANCH  52  59
ATOM     59  O   UNL     1     -11.922  -4.456  13.233  0.00  0.00    +0.000 OA
ATOM     60  H   UNL     1     -11.746  -3.665  12.699  0.00  0.00    +0.000 HD
ENDBRANCH  52  59
ENDBRANCH  46  49
ENDBRANCH  33  47
ENDBRANCH  32  37
ENDBRANCH   1  32
TORSDOF 13
ENDMDL
MODEL 4
REMARK VINA RESULT:   -10.308      0.828      1.859
REMARK INTER + INTRA:         -19.072
REMARK INTER:                 -16.893
REMARK INTRA:                  -2.179
REMARK UNBOUND:                -2.436
REMARK  Name = 
REMARK  13 active torsions:
REMARK  status: ('A' for Active; 'I' for Inactive)
REMARK    1  A    between atoms: C_2  and  C_32
REMARK    2  A    between atoms: N_3  and  C_4
REMARK    3  A    between atoms: C_8  and  O_9
REMARK    4  A    between atoms: O_9  and  C_10
REMARK    5  A    between atoms: C_10  and  C_12
REMARK    6  A    between atoms: C_14  and  O_15
REMARK    7  A    between atoms: C_16  and  C_17
REMARK    8  A    between atoms: C_17  and  C_19
REMARK    9  A    between atoms: C_20  and  O_21
REMARK   10  A    between atoms: C_25  and  C_26
REMARK   11  A    between atoms: C_26  and  O_28
REMARK   12  A    between atoms: C_29  and  O_30
REMARK   13  A    between atoms: C_35  and  O_36
REMARK                            x       y       z     vdW  Elec       q    Type
REMARK                         _______ _______ _______ _____ _____    ______ ____
ROOT
ATOM      1  C   UNL     1      -6.926  -5.147  19.934  0.00  0.00    +0.000 C 
ATOM      2  O   UNL     1      -5.957  -5.350  20.651  0.00  0.00    +0.000 OA
ENDROOT
BRANCH   1   3
ATOM      3  C   UNL     1      -7.621  -6.244  19.219  0.00  0.00    +0.000 A 
ATOM      4  C   UNL     1      -7.657  -6.338  17.826  0.00  0.00    +0.000 A 
ATOM      5  C   UNL     1      -8.346  -7.400  17.231  0.00  0.00    +0.000 A 
ATOM      6  C   UNL     1      -9.011  -8.370  18.009  0.00  0.00    +0.000 A 
ATOM      7  C   UNL     1      -8.905  -8.299  19.403  0.00  0.00    +0.000 A 
ATOM      8  C   UNL     1      -8.236  -7.233  20.002  0.00  0.00    +0.000 A 
ATOM      9  H   UNL     1      -7.182  -5.579  17.213  0.00  0.00    +0.000 HD
ATOM     10  H   UNL     1      -8.188  -7.178  21.088  0.00  0.00    +0.000 HD
BRANCH   5  11
ATOM     11  O   UNL     1      -8.387  -7.464  15.863  0.00  0.00    +0.000 OA
ATOM     12  H   UNL     1      -8.937  -8.211  15.576  0.00  0.00    +0.000 HD
ENDBRANCH   5  11
BRANCH   6  13
ATOM     13  C   UNL     1      -9.785  -9.445  17.343  0.00  0.00    +0.000 C 
ATOM     14  O   UNL     1     -10.964  -9.221  17.049  0.00  0.00    +0.000 OA
BRANCH  13  15
ATOM     15  C   UNL     1      -9.188 -10.718  16.830  0.00  0.00    +0.000 A 
ATOM     16  C   UNL     1      -8.801 -11.663  17.810  0.00  0.00    +0.000 A 
ATOM     17  C   UNL     1      -8.300 -12.916  17.466  0.00  0.00    +0.000 A 
ATOM     18  C   UNL     1      -8.161 -13.263  16.129  0.00  0.00    +0.000 A 
ATOM     19  C   UNL     1      -8.521 -12.349  15.139  0.00  0.00    +0.000 A 
ATOM     20  C   UNL     1      -9.040 -11.078  15.477  0.00  0.00    +0.000 A 
ATOM     21  H   UNL     1      -8.005 -13.612  18.248  0.00  0.00    +0.000 HD
ATOM     22  H   UNL     1      -7.756 -14.235  15.860  0.00  0.00    +0.000 HD
ATOM     23  H   UNL     1      -8.360 -12.631  14.099  0.00  0.00    +0.000 HD
BRANCH  16  24
ATOM     24  O   UNL     1      -8.917 -11.440  19.159  0.00  0.00    +0.000 OA
ATOM     25  H   UNL     1      -8.321 -10.692  19.399  0.00  0.00    +0.000 HD
ENDBRANCH  16  24
BRANCH  20  26
ATOM     26  C   UNL     1      -9.335 -10.152  14.361  0.00  0.00    +0.000 C 
ATOM     27  O   UNL     1     -10.424 -10.070  13.831  0.00  0.00    +0.000 OA
BRANCH  26  28
ATOM     28  O   UNL     1      -8.273  -9.401  13.978  0.00  0.00    +0.000 OA
ATOM     29  H   UNL     1      -7.409  -9.857  13.954  0.00  0.00    +0.000 HD
ENDBRANCH  26  28
ENDBRANCH  20  26
ENDBRANCH  13  15
ENDBRANCH   6  13
BRANCH   7  30
ATOM     30  O   UNL     1      -9.436  -9.218  20.270  0.00  0.00    +0.000 OA
ATOM     31  H   UNL     1      -8.910  -9.247  21.088  0.00  0.00    +0.000 HD
ENDBRANCH   7  30
ENDBRANCH   1   3
BRANCH   1  32
ATOM     32  O   UNL     1      -7.397  -3.918  19.576  0.00  0.00    +0.000 OA
BRANCH  32  37
ATOM     33  C   UNL     1      -9.593  -2.763  19.603  0.00  0.00    +0.000 C 
ATOM     34  C   UNL     1      -9.171  -1.302  19.731  0.00  0.00    +0.000 C 
ATOM     35  N   UNL     1      -8.684  -1.172  21.113  0.00  0.00    +0.000 NA
ATOM     36  C   UNL     1      -8.017  -2.452  21.409  0.00  0.00    +0.000 C 
ATOM     37  C   UNL     1      -8.514  -3.507  20.397  0.00  0.00    +0.000 C 
ATOM     38  H   UNL     1     -10.553  -2.885  20.125  0.00  0.00    +0.000 HD
ATOM     39  H   UNL     1     -10.003  -0.613  19.551  0.00  0.00    +0.000 HD
ATOM     40  H   UNL     1      -8.371  -1.049  19.026  0.00  0.00    +0.000 HD
ATOM     41  H   UNL     1      -9.495  -1.077  21.729  0.00  0.00    +0.000 HD
ATOM     42  H   UNL     1      -8.244  -2.757  22.436  0.00  0.00    +0.000 HD
ATOM     43  H   UNL     1      -6.933  -2.303  21.342  0.00  0.00    +0.000 HD
ATOM     44  H   UNL     1      -8.972  -4.376  20.887  0.00  0.00    +0.000 HD
BRANCH  33  47
ATOM     45  O   UNL     1     -11.787  -2.116  17.996  0.00  0.00    +0.000 OA
ATOM     46  C   UNL     1     -10.896  -2.817  17.522  0.00  0.00    +0.000 C 
ATOM     47  N   UNL     1      -9.785  -3.216  18.236  0.00  0.00    +0.000 N 
ATOM     48  H   UNL     1      -8.987  -3.612  17.754  0.00  0.00    +0.000 HD
BRANCH  46  49
ATOM     49  C   UNL     1     -10.950  -3.222  16.096  0.00  0.00    +0.000 A 
ATOM     50  C   UNL     1     -10.229  -4.354  15.693  0.00  0.00    +0.000 A 
ATOM     51  C   UNL     1     -10.294  -4.794  14.370  0.00  0.00    +0.000 A 
ATOM     52  C   UNL     1     -11.061  -4.079  13.455  0.00  0.00    +0.000 A 
ATOM     53  C   UNL     1     -11.741  -2.924  13.834  0.00  0.00    +0.000 A 
ATOM     54  C   UNL     1     -11.690  -2.490  15.160  0.00  0.00    +0.000 A 
ATOM     55  H   UNL     1      -9.625  -4.899  16.415  0.00  0.00    +0.000 HD
ATOM     56  H   UNL     1      -9.747  -5.684  14.076  0.00  0.00    +0.000 HD
ATOM     57  H   UNL     1     -12.311  -2.365  13.096  0.00  0.00    +0.000 HD
ATOM     58  H   UNL     1     -12.206  -1.576  15.443  0.00  0.00    +0.000 HD
BRANCH  52  59
ATOM     59  O   UNL     1     -11.179  -4.486  12.159  0.00  0.00    +0.000 OA
ATOM     60  H   UNL     1     -10.713  -3.854  11.589  0.00  0.00    +0.000 HD
ENDBRANCH  52  59
ENDBRANCH  46  49
ENDBRANCH  33  47
ENDBRANCH  32  37
ENDBRANCH   1  32
TORSDOF 13
ENDMDL
MODEL 5
REMARK VINA RESULT:    -9.855      2.383      5.365
REMARK INTER + INTRA:         -18.341
REMARK INTER:                 -17.334
REMARK INTRA:                  -1.007
REMARK UNBOUND:                -2.436
REMARK  Name = 
REMARK  13 active torsions:
REMARK  status: ('A' for Active; 'I' for Inactive)
REMARK    1  A    between atoms: C_2  and  C_32
REMARK    2  A    between atoms: N_3  and  C_4
REMARK    3  A    between atoms: C_8  and  O_9
REMARK    4  A    between atoms: O_9  and  C_10
REMARK    5  A    between atoms: C_10  and  C_12
REMARK    6  A    between atoms: C_14  and  O_15
REMARK    7  A    between atoms: C_16  and  C_17
REMARK    8  A    between atoms: C_17  and  C_19
REMARK    9  A    between atoms: C_20  and  O_21
REMARK   10  A    between atoms: C_25  and  C_26
REMARK   11  A    between atoms: C_26  and  O_28
REMARK   12  A    between atoms: C_29  and  O_30
REMARK   13  A    between atoms: C_35  and  O_36
REMARK                            x       y       z     vdW  Elec       q    Type
REMARK                         _______ _______ _______ _____ _____    ______ ____
ROOT
ATOM      1  C   UNL     1      -7.531  -5.101  19.884  0.00  0.00    +0.000 C 
ATOM      2  O   UNL     1      -6.345  -4.814  19.812  0.00  0.00    +0.000 OA
ENDROOT
BRANCH   1   3
ATOM      3  C   UNL     1      -8.106  -6.262  19.165  0.00  0.00    +0.000 A 
ATOM      4  C   UNL     1      -8.121  -6.359  17.771  0.00  0.00    +0.000 A 
ATOM      5  C   UNL     1      -8.696  -7.484  17.171  0.00  0.00    +0.000 A 
ATOM      6  C   UNL     1      -9.265  -8.516  17.944  0.00  0.00    +0.000 A 
ATOM      7  C   UNL     1      -9.178  -8.436  19.338  0.00  0.00    +0.000 A 
ATOM      8  C   UNL     1      -8.625  -7.308  19.943  0.00  0.00    +0.000 A 
ATOM      9  H   UNL     1      -7.721  -5.555  17.162  0.00  0.00    +0.000 HD
ATOM     10  H   UNL     1      -8.591  -7.249  21.029  0.00  0.00    +0.000 HD
BRANCH   5  11
ATOM     11  O   UNL     1      -8.719  -7.551  15.803  0.00  0.00    +0.000 OA
ATOM     12  H   UNL     1      -8.078  -8.207  15.486  0.00  0.00    +0.000 HD
ENDBRANCH   5  11
BRANCH   6  13
ATOM     13  C   UNL     1      -9.923  -9.663  17.273  0.00  0.00    +0.000 C 
ATOM     14  O   UNL     1     -11.117  -9.561  16.972  0.00  0.00    +0.000 OA
BRANCH  13  15
ATOM     15  C   UNL     1      -9.196 -10.868  16.761  0.00  0.00    +0.000 A 
ATOM     16  C   UNL     1      -8.790 -11.810  17.735  0.00  0.00    +0.000 A 
ATOM     17  C   UNL     1      -8.170 -13.008  17.388  0.00  0.00    +0.000 A 
ATOM     18  C   UNL     1      -7.928 -13.300  16.053  0.00  0.00    +0.000 A 
ATOM     19  C   UNL     1      -8.303 -12.385  15.068  0.00  0.00    +0.000 A 
ATOM     20  C   UNL     1      -8.943 -11.171  15.409  0.00  0.00    +0.000 A 
ATOM     21  H   UNL     1      -7.865 -13.703  18.166  0.00  0.00    +0.000 HD
ATOM     22  H   UNL     1      -7.430 -14.227  15.781  0.00  0.00    +0.000 HD
ATOM     23  H   UNL     1      -8.061 -12.620  14.032  0.00  0.00    +0.000 HD
BRANCH  16  24
ATOM     24  O   UNL     1      -9.000 -11.641  19.081  0.00  0.00    +0.000 OA
ATOM     25  H   UNL     1      -9.967 -11.726  19.255  0.00  0.00    +0.000 HD
ENDBRANCH  16  24
BRANCH  20  26
ATOM     26  C   UNL     1      -9.248 -10.236  14.304  0.00  0.00    +0.000 C 
ATOM     27  O   UNL     1     -10.329 -10.179  13.756  0.00  0.00    +0.000 OA
BRANCH  26  28
ATOM     28  O   UNL     1      -8.203  -9.445  13.953  0.00  0.00    +0.000 OA
ATOM     29  H   UNL     1      -7.851  -8.860  14.652  0.00  0.00    +0.000 HD
ENDBRANCH  26  28
ENDBRANCH  20  26
ENDBRANCH  13  15
ENDBRANCH   6  13
BRANCH   7  30
ATOM     30  O   UNL     1      -9.621  -9.404  20.202  0.00  0.00    +0.000 OA
ATOM     31  H   UNL     1      -9.109  -9.373  21.029  0.00  0.00    +0.000 HD
ENDBRANCH   7  30
ENDBRANCH   1   3
BRANCH   1  32
ATOM     32  O   UNL     1      -8.489  -4.340  20.486  0.00  0.00    +0.000 OA
BRANCH  32  37
ATOM     33  C   UNL     1      -9.686  -2.166  20.516  0.00  0.00    +0.000 C 
ATOM     34  C   UNL     1     -11.024  -2.541  19.885  0.00  0.00    +0.000 C 
ATOM     35  N   UNL     1     -10.719  -2.759  18.462  0.00  0.00    +0.000 NA
ATOM     36  C   UNL     1      -9.379  -3.372  18.444  0.00  0.00    +0.000 C 
ATOM     37  C   UNL     1      -8.692  -3.084  19.797  0.00  0.00    +0.000 C 
ATOM     38  H   UNL     1      -9.461  -1.126  20.238  0.00  0.00    +0.000 HD
ATOM     39  H   UNL     1     -11.773  -1.751  20.000  0.00  0.00    +0.000 HD
ATOM     40  H   UNL     1     -11.435  -3.457  20.325  0.00  0.00    +0.000 HD
ATOM     41  H   UNL     1     -10.666  -1.847  18.004  0.00  0.00    +0.000 HD
ATOM     42  H   UNL     1      -8.797  -2.959  17.614  0.00  0.00    +0.000 HD
ATOM     43  H   UNL     1      -9.491  -4.448  18.266  0.00  0.00    +0.000 HD
ATOM     44  H   UNL     1      -7.740  -2.551  19.680  0.00  0.00    +0.000 HD
BRANCH  33  47
ATOM     45  O   UNL     1      -7.562  -1.327  22.129  0.00  0.00    +0.000 OA
ATOM     46  C   UNL     1      -8.572  -1.774  22.669  0.00  0.00    +0.000 C 
ATOM     47  N   UNL     1      -9.665  -2.238  21.967  0.00  0.00    +0.000 N 
ATOM     48  H   UNL     1     -10.543  -2.401  22.444  0.00  0.00    +0.000 HD
BRANCH  46  49
ATOM     49  C   UNL     1      -8.685  -1.770  24.148  0.00  0.00    +0.000 A 
ATOM     50  C   UNL     1      -8.583  -2.990  24.831  0.00  0.00    +0.000 A 
ATOM     51  C   UNL     1      -8.636  -3.021  26.226  0.00  0.00    +0.000 A 
ATOM     52  C   UNL     1      -8.817  -1.831  26.924  0.00  0.00    +0.000 A 
ATOM     53  C   UNL     1      -8.970  -0.620  26.252  0.00  0.00    +0.000 A 
ATOM     54  C   UNL     1      -8.902  -0.584  24.858  0.00  0.00    +0.000 A 
ATOM     55  H   UNL     1      -8.452  -3.916  24.275  0.00  0.00    +0.000 HD
ATOM     56  H   UNL     1      -8.535  -3.970  26.743  0.00  0.00    +0.000 HD
ATOM     57  H   UNL     1      -9.139   0.294  26.817  0.00  0.00    +0.000 HD
ATOM     58  H   UNL     1      -9.043   0.362  24.341  0.00  0.00    +0.000 HD
BRANCH  52  59
ATOM     59  O   UNL     1      -8.845  -1.807  28.287  0.00  0.00    +0.000 OA
ATOM     60  H   UNL     1      -9.645  -2.266  28.591  0.00  0.00    +0.000 HD
ENDBRANCH  52  59
ENDBRANCH  46  49
ENDBRANCH  33  47
ENDBRANCH  32  37
ENDBRANCH   1  32
TORSDOF 13
ENDMDL
MODEL 6
REMARK VINA RESULT:    -9.831      2.586      5.814
REMARK INTER + INTRA:         -18.302
REMARK INTER:                 -16.700
REMARK INTRA:                  -1.602
REMARK UNBOUND:                -2.436
REMARK  Name = 
REMARK  13 active torsions:
REMARK  status: ('A' for Active; 'I' for Inactive)
REMARK    1  A    between atoms: C_2  and  C_32
REMARK    2  A    between atoms: N_3  and  C_4
REMARK    3  A    between atoms: C_8  and  O_9
REMARK    4  A    between atoms: O_9  and  C_10
REMARK    5  A    between atoms: C_10  and  C_12
REMARK    6  A    between atoms: C_14  and  O_15
REMARK    7  A    between atoms: C_16  and  C_17
REMARK    8  A    between atoms: C_17  and  C_19
REMARK    9  A    between atoms: C_20  and  O_21
REMARK   10  A    between atoms: C_25  and  C_26
REMARK   11  A    between atoms: C_26  and  O_28
REMARK   12  A    between atoms: C_29  and  O_30
REMARK   13  A    between atoms: C_35  and  O_36
REMARK                            x       y       z     vdW  Elec       q    Type
REMARK                         _______ _______ _______ _____ _____    ______ ____
ROOT
ATOM      1  C   UNL     1      -7.579  -5.058  19.682  0.00  0.00    +0.000 C 
ATOM      2  O   UNL     1      -6.400  -4.753  19.569  0.00  0.00    +0.000 OA
ENDROOT
BRANCH   1   3
ATOM      3  C   UNL     1      -8.174  -6.197  18.944  0.00  0.00    +0.000 A 
ATOM      4  C   UNL     1      -8.090  -6.327  17.555  0.00  0.00    +0.000 A 
ATOM      5  C   UNL     1      -8.691  -7.427  16.935  0.00  0.00    +0.000 A 
ATOM      6  C   UNL     1      -9.385  -8.401  17.682  0.00  0.00    +0.000 A 
ATOM      7  C   UNL     1      -9.398  -8.291  19.078  0.00  0.00    +0.000 A 
ATOM      8  C   UNL     1      -8.819  -7.186  19.700  0.00  0.00    +0.000 A 
ATOM      9  H   UNL     1      -7.592  -5.567  16.963  0.00  0.00    +0.000 HD
ATOM     10  H   UNL     1      -8.864  -7.103  20.784  0.00  0.00    +0.000 HD
BRANCH   5  11
ATOM     11  O   UNL     1      -8.614  -7.527  15.571  0.00  0.00    +0.000 OA
ATOM     12  H   UNL     1      -9.113  -8.300  15.261  0.00  0.00    +0.000 HD
ENDBRANCH   5  11
BRANCH   6  13
ATOM     13  C   UNL     1     -10.064  -9.519  16.986  0.00  0.00    +0.000 C 
ATOM     14  O   UNL     1     -11.283  -9.440  16.801  0.00  0.00    +0.000 OA
BRANCH  13  15
ATOM     15  C   UNL     1      -9.349 -10.654  16.321  0.00  0.00    +0.000 A 
ATOM     16  C   UNL     1      -9.352 -10.648  14.906  0.00  0.00    +0.000 A 
ATOM     17  C   UNL     1      -8.664 -11.605  14.164  0.00  0.00    +0.000 A 
ATOM     18  C   UNL     1      -7.955 -12.606  14.815  0.00  0.00    +0.000 A 
ATOM     19  C   UNL     1      -7.943 -12.649  16.209  0.00  0.00    +0.000 A 
ATOM     20  C   UNL     1      -8.631 -11.676  16.971  0.00  0.00    +0.000 A 
ATOM     21  H   UNL     1      -8.696 -11.572  13.078  0.00  0.00    +0.000 HD
ATOM     22  H   UNL     1      -7.430 -13.362  14.237  0.00  0.00    +0.000 HD
ATOM     23  H   UNL     1      -7.417 -13.471  16.692  0.00  0.00    +0.000 HD
BRANCH  16  24
ATOM     24  O   UNL     1      -9.996  -9.694  14.158  0.00  0.00    +0.000 OA
ATOM     25  H   UNL     1     -10.964  -9.770  14.330  0.00  0.00    +0.000 HD
ENDBRANCH  16  24
BRANCH  20  26
ATOM     26  C   UNL     1      -8.614 -11.837  18.442  0.00  0.00    +0.000 C 
ATOM     27  O   UNL     1      -8.074 -11.053  19.194  0.00  0.00    +0.000 OA
BRANCH  26  28
ATOM     28  O   UNL     1      -9.258 -12.949  18.878  0.00  0.00    +0.000 OA
ATOM     29  H   UNL     1     -10.135 -13.120  18.484  0.00  0.00    +0.000 HD
ENDBRANCH  26  28
ENDBRANCH  20  26
ENDBRANCH  13  15
ENDBRANCH   6  13
BRANCH   7  30
ATOM     30  O   UNL     1      -9.968  -9.207  19.923  0.00  0.00    +0.000 OA
ATOM     31  H   UNL     1      -9.513  -9.196  20.783  0.00  0.00    +0.000 HD
ENDBRANCH   7  30
ENDBRANCH   1   3
BRANCH   1  32
ATOM     32  O   UNL     1      -8.517  -4.332  20.355  0.00  0.00    +0.000 OA
BRANCH  32  37
ATOM     33  C   UNL     1      -9.074  -2.002  21.007  0.00  0.00    +0.000 C 
ATOM     34  C   UNL     1     -10.571  -1.949  20.712  0.00  0.00    +0.000 C 
ATOM     35  N   UNL     1     -10.662  -1.939  19.243  0.00  0.00    +0.000 NA
ATOM     36  C   UNL     1      -9.565  -2.808  18.782  0.00  0.00    +0.000 C 
ATOM     37  C   UNL     1      -8.540  -2.950  19.928  0.00  0.00    +0.000 C 
ATOM     38  H   UNL     1      -8.657  -1.001  20.826  0.00  0.00    +0.000 HD
ATOM     39  H   UNL     1     -11.044  -1.056  21.132  0.00  0.00    +0.000 HD
ATOM     40  H   UNL     1     -11.093  -2.825  21.114  0.00  0.00    +0.000 HD
ATOM     41  H   UNL     1     -10.481  -0.986  18.919  0.00  0.00    +0.000 HD
ATOM     42  H   UNL     1      -9.100  -2.372  17.892  0.00  0.00    +0.000 HD
ATOM     43  H   UNL     1      -9.988  -3.777  18.492  0.00  0.00    +0.000 HD
ATOM     44  H   UNL     1      -7.535  -2.621  19.635  0.00  0.00    +0.000 HD
BRANCH  33  47
ATOM     45  O   UNL     1      -9.518  -0.385  23.244  0.00  0.00    +0.000 OA
ATOM     46  C   UNL     1      -9.028  -1.500  23.410  0.00  0.00    +0.000 C 
ATOM     47  N   UNL     1      -8.744  -2.366  22.375  0.00  0.00    +0.000 N 
ATOM     48  H   UNL     1      -8.539  -3.339  22.568  0.00  0.00    +0.000 HD
BRANCH  46  49
ATOM     49  C   UNL     1      -8.774  -2.001  24.783  0.00  0.00    +0.000 A 
ATOM     50  C   UNL     1      -8.247  -3.291  24.939  0.00  0.00    +0.000 A 
ATOM     51  C   UNL     1      -7.949  -3.778  26.213  0.00  0.00    +0.000 A 
ATOM     52  C   UNL     1      -8.207  -2.979  27.322  0.00  0.00    +0.000 A 
ATOM     53  C   UNL     1      -8.779  -1.716  27.181  0.00  0.00    +0.000 A 
ATOM     54  C   UNL     1      -9.063  -1.220  25.908  0.00  0.00    +0.000 A 
ATOM     55  H   UNL     1      -8.058  -3.911  24.065  0.00  0.00    +0.000 HD
ATOM     56  H   UNL     1      -7.522  -4.771  26.318  0.00  0.00    +0.000 HD
ATOM     57  H   UNL     1      -8.999  -1.121  28.064  0.00  0.00    +0.000 HD
ATOM     58  H   UNL     1      -9.527  -0.242  25.807  0.00  0.00    +0.000 HD
BRANCH  52  59
ATOM     59  O   UNL     1      -7.907  -3.400  28.584  0.00  0.00    +0.000 OA
ATOM     60  H   UNL     1      -8.734  -3.565  29.065  0.00  0.00    +0.000 HD
ENDBRANCH  52  59
ENDBRANCH  46  49
ENDBRANCH  33  47
ENDBRANCH  32  37
ENDBRANCH   1  32
TORSDOF 13
ENDMDL
MODEL 7
REMARK VINA RESULT:    -9.480      2.145      4.716
REMARK INTER + INTRA:         -17.735
REMARK INTER:                 -15.734
REMARK INTRA:                  -2.001
REMARK UNBOUND:                -2.436
REMARK  Name = 
REMARK  13 active torsions:
REMARK  status: ('A' for Active; 'I' for Inactive)
REMARK    1  A    between atoms: C_2  and  C_32
REMARK    2  A    between atoms: N_3  and  C_4
REMARK    3  A    between atoms: C_8  and  O_9
REMARK    4  A    between atoms: O_9  and  C_10
REMARK    5  A    between atoms: C_10  and  C_12
REMARK    6  A    between atoms: C_14  and  O_15
REMARK    7  A    between atoms: C_16  and  C_17
REMARK    8  A    between atoms: C_17  and  C_19
REMARK    9  A    between atoms: C_20  and  O_21
REMARK   10  A    between atoms: C_25  and  C_26
REMARK   11  A    between atoms: C_26  and  O_28
REMARK   12  A    between atoms: C_29  and  O_30
REMARK   13  A    between atoms: C_35  and  O_36
REMARK                            x       y       z     vdW  Elec       q    Type
REMARK                         _______ _______ _______ _____ _____    ______ ____
ROOT
ATOM      1  C   UNL     1      -8.397  -4.709  19.258  0.00  0.00    +0.000 C 
ATOM      2  O   UNL     1      -9.169  -3.980  19.865  0.00  0.00    +0.000 OA
ENDROOT
BRANCH   1   3
ATOM      3  C   UNL     1      -8.834  -5.987  18.648  0.00  0.00    +0.000 A 
ATOM      4  C   UNL     1      -9.188  -6.101  17.301  0.00  0.00    +0.000 A 
ATOM      5  C   UNL     1      -9.603  -7.343  16.808  0.00  0.00    +0.000 A 
ATOM      6  C   UNL     1      -9.677  -8.476  17.643  0.00  0.00    +0.000 A 
ATOM      7  C   UNL     1      -9.250  -8.358  18.971  0.00  0.00    +0.000 A 
ATOM      8  C   UNL     1      -8.856  -7.120  19.474  0.00  0.00    +0.000 A 
ATOM      9  H   UNL     1      -9.173  -5.230  16.655  0.00  0.00    +0.000 HD
ATOM     10  H   UNL     1      -8.555  -7.041  20.517  0.00  0.00    +0.000 HD
BRANCH   5  11
ATOM     11  O   UNL     1      -9.965  -7.430  15.489  0.00  0.00    +0.000 OA
ATOM     12  H   UNL     1     -10.654  -6.777  15.285  0.00  0.00    +0.000 HD
ENDBRANCH   5  11
BRANCH   6  13
ATOM     13  C   UNL     1     -10.181  -9.760  17.101  0.00  0.00    +0.000 C 
ATOM     14  O   UNL     1     -11.399  -9.888  16.936  0.00  0.00    +0.000 OA
BRANCH  13  15
ATOM     15  C   UNL     1      -9.306 -10.847  16.561  0.00  0.00    +0.000 A 
ATOM     16  C   UNL     1      -8.903 -11.840  17.485  0.00  0.00    +0.000 A 
ATOM     17  C   UNL     1      -8.148 -12.944  17.098  0.00  0.00    +0.000 A 
ATOM     18  C   UNL     1      -7.764 -13.089  15.772  0.00  0.00    +0.000 A 
ATOM     19  C   UNL     1      -8.133 -12.121  14.837  0.00  0.00    +0.000 A 
ATOM     20  C   UNL     1      -8.908 -11.001  15.218  0.00  0.00    +0.000 A 
ATOM     21  H   UNL     1      -7.850 -13.682  17.839  0.00  0.00    +0.000 HD
ATOM     22  H   UNL     1      -7.162 -13.943  15.471  0.00  0.00    +0.000 HD
ATOM     23  H   UNL     1      -7.780 -12.237  13.813  0.00  0.00    +0.000 HD
BRANCH  16  24
ATOM     24  O   UNL     1      -9.245 -11.815  18.814  0.00  0.00    +0.000 OA
ATOM     25  H   UNL     1      -8.563 -11.292  19.298  0.00  0.00    +0.000 HD
ENDBRANCH  16  24
BRANCH  20  26
ATOM     26  C   UNL     1      -9.199  -9.996  14.173  0.00  0.00    +0.000 C 
ATOM     27  O   UNL     1     -10.199 -10.015  13.486  0.00  0.00    +0.000 OA
BRANCH  26  28
ATOM     28  O   UNL     1      -8.239  -9.044  14.047  0.00  0.00    +0.000 OA
ATOM     29  H   UNL     1      -7.347  -9.288  14.361  0.00  0.00    +0.000 HD
ENDBRANCH  26  28
ENDBRANCH  20  26
ENDBRANCH  13  15
ENDBRANCH   6  13
BRANCH   7  30
ATOM     30  O   UNL     1      -9.198  -9.397  19.865  0.00  0.00    +0.000 OA
ATOM     31  H   UNL     1      -9.591 -10.196  19.471  0.00  0.00    +0.000 HD
ENDBRANCH   7  30
ENDBRANCH   1   3
BRANCH   1  32
ATOM     32  O   UNL     1      -7.045  -4.540  19.191  0.00  0.00    +0.000 OA
BRANCH  32  37
ATOM     33  C   UNL     1      -5.988  -4.164  21.404  0.00  0.00    +0.000 C 
ATOM     34  C   UNL     1      -4.582  -3.723  21.004  0.00  0.00    +0.000 C 
ATOM     35  N   UNL     1      -3.935  -4.947  20.504  0.00  0.00    +0.000 NA
ATOM     36  C   UNL     1      -5.002  -5.693  19.814  0.00  0.00    +0.000 C 
ATOM     37  C   UNL     1      -6.366  -5.163  20.306  0.00  0.00    +0.000 C 
ATOM     38  H   UNL     1      -5.913  -4.709  22.357  0.00  0.00    +0.000 HD
ATOM     39  H   UNL     1      -4.021  -3.310  21.849  0.00  0.00    +0.000 HD
ATOM     40  H   UNL     1      -4.607  -2.963  20.215  0.00  0.00    +0.000 HD
ATOM     41  H   UNL     1      -3.623  -5.494  21.309  0.00  0.00    +0.000 HD
ATOM     42  H   UNL     1      -4.898  -6.763  20.025  0.00  0.00    +0.000 HD
ATOM     43  H   UNL     1      -4.878  -5.557  18.733  0.00  0.00    +0.000 HD
ATOM     44  H   UNL     1      -6.990  -5.951  20.745  0.00  0.00    +0.000 HD
BRANCH  33  47
ATOM     45  O   UNL     1      -7.565  -3.806  23.685  0.00  0.00    +0.000 OA
ATOM     46  C   UNL     1      -7.639  -2.977  22.781  0.00  0.00    +0.000 C 
ATOM     47  N   UNL     1      -6.926  -3.072  21.604  0.00  0.00    +0.000 N 
ATOM     48  H   UNL     1      -6.859  -2.274  20.984  0.00  0.00    +0.000 HD
BRANCH  46  49
ATOM     49  C   UNL     1      -8.478  -1.765  22.952  0.00  0.00    +0.000 A 
ATOM     50  C   UNL     1      -7.940  -0.670  23.640  0.00  0.00    +0.000 A 
ATOM     51  C   UNL     1      -8.681   0.505  23.780  0.00  0.00    +0.000 A 
ATOM     52  C   UNL     1      -9.966   0.563  23.250  0.00  0.00    +0.000 A 
ATOM     53  C   UNL     1     -10.529  -0.538  22.608  0.00  0.00    +0.000 A 
ATOM     54  C   UNL     1      -9.785  -1.709  22.454  0.00  0.00    +0.000 A 
ATOM     55  H   UNL     1      -6.937  -0.729  24.059  0.00  0.00    +0.000 HD
ATOM     56  H   UNL     1      -8.244   1.353  24.297  0.00  0.00    +0.000 HD
ATOM     57  H   UNL     1     -11.546  -0.480  22.228  0.00  0.00    +0.000 HD
ATOM     58  H   UNL     1     -10.239  -2.570  21.971  0.00  0.00    +0.000 HD
BRANCH  52  59
ATOM     59  O   UNL     1     -10.717   1.698  23.335  0.00  0.00    +0.000 OA
ATOM     60  H   UNL     1     -10.415   2.217  24.098  0.00  0.00    +0.000 HD
ENDBRANCH  52  59
ENDBRANCH  46  49
ENDBRANCH  33  47
ENDBRANCH  32  37
ENDBRANCH   1  32
TORSDOF 13
ENDMDL
MODEL 8
REMARK VINA RESULT:    -9.377      2.248      5.114
REMARK INTER + INTRA:         -17.569
REMARK INTER:                 -15.512
REMARK INTRA:                  -2.057
REMARK UNBOUND:                -2.436
REMARK  Name = 
REMARK  13 active torsions:
REMARK  status: ('A' for Active; 'I' for Inactive)
REMARK    1  A    between atoms: C_2  and  C_32
REMARK    2  A    between atoms: N_3  and  C_4
REMARK    3  A    between atoms: C_8  and  O_9
REMARK    4  A    between atoms: O_9  and  C_10
REMARK    5  A    between atoms: C_10  and  C_12
REMARK    6  A    between atoms: C_14  and  O_15
REMARK    7  A    between atoms: C_16  and  C_17
REMARK    8  A    between atoms: C_17  and  C_19
REMARK    9  A    between atoms: C_20  and  O_21
REMARK   10  A    between atoms: C_25  and  C_26
REMARK   11  A    between atoms: C_26  and  O_28
REMARK   12  A    between atoms: C_29  and  O_30
REMARK   13  A    between atoms: C_35  and  O_36
REMARK                            x       y       z     vdW  Elec       q    Type
REMARK                         _______ _______ _______ _____ _____    ______ ____
ROOT
ATOM      1  C   UNL     1      -8.306  -4.767  19.188  0.00  0.00    +0.000 C 
ATOM      2  O   UNL     1      -9.065  -4.027  19.798  0.00  0.00    +0.000 OA
ENDROOT
BRANCH   1   3
ATOM      3  C   UNL     1      -8.770  -6.027  18.560  0.00  0.00    +0.000 A 
ATOM      4  C   UNL     1      -8.777  -6.226  17.177  0.00  0.00    +0.000 A 
ATOM      5  C   UNL     1      -9.243  -7.442  16.666  0.00  0.00    +0.000 A 
ATOM      6  C   UNL     1      -9.711  -8.464  17.516  0.00  0.00    +0.000 A 
ATOM      7  C   UNL     1      -9.630  -8.273  18.900  0.00  0.00    +0.000 A 
ATOM      8  C   UNL     1      -9.186  -7.057  19.416  0.00  0.00    +0.000 A 
ATOM      9  H   UNL     1      -8.456  -5.436  16.508  0.00  0.00    +0.000 HD
ATOM     10  H   UNL     1      -9.156  -6.916  20.495  0.00  0.00    +0.000 HD
BRANCH   5  11
ATOM     11  O   UNL     1      -9.262  -7.611  15.306  0.00  0.00    +0.000 OA
ATOM     12  H   UNL     1      -8.621  -8.291  15.042  0.00  0.00    +0.000 HD
ENDBRANCH   5  11
BRANCH   6  13
ATOM     13  C   UNL     1     -10.258  -9.714  16.936  0.00  0.00    +0.000 C 
ATOM     14  O   UNL     1     -11.484  -9.820  16.822  0.00  0.00    +0.000 OA
BRANCH  13  15
ATOM     15  C   UNL     1      -9.423 -10.782  16.302  0.00  0.00    +0.000 A 
ATOM     16  C   UNL     1      -9.388 -10.788  14.888  0.00  0.00    +0.000 A 
ATOM     17  C   UNL     1      -8.593 -11.683  14.174  0.00  0.00    +0.000 A 
ATOM     18  C   UNL     1      -7.812 -12.607  14.854  0.00  0.00    +0.000 A 
ATOM     19  C   UNL     1      -7.834 -12.638  16.248  0.00  0.00    +0.000 A 
ATOM     20  C   UNL     1      -8.630 -11.727  16.982  0.00  0.00    +0.000 A 
ATOM     21  H   UNL     1      -8.600 -11.662  13.087  0.00  0.00    +0.000 HD
ATOM     22  H   UNL     1      -7.204 -13.316  14.298  0.00  0.00    +0.000 HD
ATOM     23  H   UNL     1      -7.247 -13.403  16.753  0.00  0.00    +0.000 HD
BRANCH  16  24
ATOM     24  O   UNL     1     -10.097  -9.905  14.113  0.00  0.00    +0.000 OA
ATOM     25  H   UNL     1     -10.931  -9.679  14.588  0.00  0.00    +0.000 HD
ENDBRANCH  16  24
BRANCH  20  26
ATOM     26  C   UNL     1      -8.638 -11.874  18.454  0.00  0.00    +0.000 C 
ATOM     27  O   UNL     1      -8.122 -11.076  19.208  0.00  0.00    +0.000 OA
BRANCH  26  28
ATOM     28  O   UNL     1      -9.275 -12.991  18.889  0.00  0.00    +0.000 OA
ATOM     29  H   UNL     1      -9.169 -13.790  18.337  0.00  0.00    +0.000 HD
ENDBRANCH  26  28
ENDBRANCH  20  26
ENDBRANCH  13  15
ENDBRANCH   6  13
BRANCH   7  30
ATOM     30  O   UNL     1      -9.978  -9.213  19.835  0.00  0.00    +0.000 OA
ATOM     31  H   UNL     1     -10.924  -9.135  20.052  0.00  0.00    +0.000 HD
ENDBRANCH   7  30
ENDBRANCH   1   3
BRANCH   1  32
ATOM     32  O   UNL     1      -6.951  -4.629  19.131  0.00  0.00    +0.000 OA
BRANCH  32  37
ATOM     33  C   UNL     1      -5.880  -4.310  21.347  0.00  0.00    +0.000 C 
ATOM     34  C   UNL     1      -4.459  -3.917  20.949  0.00  0.00    +0.000 C 
ATOM     35  N   UNL     1      -3.856  -5.158  20.438  0.00  0.00    +0.000 NA
ATOM     36  C   UNL     1      -4.949  -5.860  19.742  0.00  0.00    +0.000 C 
ATOM     37  C   UNL     1      -6.293  -5.285  20.240  0.00  0.00    +0.000 C 
ATOM     38  H   UNL     1      -5.824  -4.866  22.295  0.00  0.00    +0.000 HD
ATOM     39  H   UNL     1      -3.883  -3.531  21.797  0.00  0.00    +0.000 HD
ATOM     40  H   UNL     1      -4.457  -3.149  20.167  0.00  0.00    +0.000 HD
ATOM     41  H   UNL     1      -3.563  -5.723  21.238  0.00  0.00    +0.000 HD
ATOM     42  H   UNL     1      -4.884  -6.934  19.944  0.00  0.00    +0.000 HD
ATOM     43  H   UNL     1      -4.821  -5.719  18.662  0.00  0.00    +0.000 HD
ATOM     44  H   UNL     1      -6.945  -6.055  20.673  0.00  0.00    +0.000 HD
BRANCH  33  47
ATOM     45  O   UNL     1      -7.326  -3.835  23.692  0.00  0.00    +0.000 OA
ATOM     46  C   UNL     1      -7.426  -3.034  22.764  0.00  0.00    +0.000 C 
ATOM     47  N   UNL     1      -6.778  -3.187  21.557  0.00  0.00    +0.000 N 
ATOM     48  H   UNL     1      -6.723  -2.412  20.908  0.00  0.00    +0.000 HD
BRANCH  46  49
ATOM     49  C   UNL     1      -8.224  -1.796  22.937  0.00  0.00    +0.000 A 
ATOM     50  C   UNL     1      -8.805  -1.209  21.804  0.00  0.00    +0.000 A 
ATOM     51  C   UNL     1      -9.603  -0.071  21.934  0.00  0.00    +0.000 A 
ATOM     52  C   UNL     1      -9.791   0.485  23.195  0.00  0.00    +0.000 A 
ATOM     53  C   UNL     1      -9.177  -0.061  24.320  0.00  0.00    +0.000 A 
ATOM     54  C   UNL     1      -8.391  -1.208  24.196  0.00  0.00    +0.000 A 
ATOM     55  H   UNL     1      -8.643  -1.647  20.822  0.00  0.00    +0.000 HD
ATOM     56  H   UNL     1     -10.063   0.361  21.051  0.00  0.00    +0.000 HD
ATOM     57  H   UNL     1      -9.315   0.408  25.292  0.00  0.00    +0.000 HD
ATOM     58  H   UNL     1      -7.899  -1.615  25.076  0.00  0.00    +0.000 HD
BRANCH  52  59
ATOM     59  O   UNL     1     -10.585   1.579  23.375  0.00  0.00    +0.000 OA
ATOM     60  H   UNL     1     -10.029   2.331  23.634  0.00  0.00    +0.000 HD
ENDBRANCH  52  59
ENDBRANCH  46  49
ENDBRANCH  33  47
ENDBRANCH  32  37
ENDBRANCH   1  32
TORSDOF 13
ENDMDL
MODEL 9
REMARK VINA RESULT:    -9.172      2.010      3.655
REMARK INTER + INTRA:         -17.238
REMARK INTER:                 -15.391
REMARK INTRA:                  -1.847
REMARK UNBOUND:                -2.436
REMARK  Name = 
REMARK  13 active torsions:
REMARK  status: ('A' for Active; 'I' for Inactive)
REMARK    1  A    between atoms: C_2  and  C_32
REMARK    2  A    between atoms: N_3  and  C_4
REMARK    3  A    between atoms: C_8  and  O_9
REMARK    4  A    between atoms: O_9  and  C_10
REMARK    5  A    between atoms: C_10  and  C_12
REMARK    6  A    between atoms: C_14  and  O_15
REMARK    7  A    between atoms: C_16  and  C_17
REMARK    8  A    between atoms: C_17  and  C_19
REMARK    9  A    between atoms: C_20  and  O_21
REMARK   10  A    between atoms: C_25  and  C_26
REMARK   11  A    between atoms: C_26  and  O_28
REMARK   12  A    between atoms: C_29  and  O_30
REMARK   13  A    between atoms: C_35  and  O_36
REMARK                            x       y       z     vdW  Elec       q    Type
REMARK                         _______ _______ _______ _____ _____    ______ ____
ROOT
ATOM      1  C   UNL     1     -11.048  -3.705  18.839  0.00  0.00    +0.000 C 
ATOM      2  O   UNL     1     -12.220  -3.588  19.169  0.00  0.00    +0.000 OA
ENDROOT
BRANCH   1   3
ATOM      3  C   UNL     1     -10.525  -4.942  18.212  0.00  0.00    +0.000 A 
ATOM      4  C   UNL     1      -9.177  -5.117  17.889  0.00  0.00    +0.000 A 
ATOM      5  C   UNL     1      -8.769  -6.312  17.287  0.00  0.00    +0.000 A 
ATOM      6  C   UNL     1      -9.692  -7.337  16.993  0.00  0.00    +0.000 A 
ATOM      7  C   UNL     1     -11.024  -7.172  17.388  0.00  0.00    +0.000 A 
ATOM      8  C   UNL     1     -11.441  -5.976  17.970  0.00  0.00    +0.000 A 
ATOM      9  H   UNL     1      -8.462  -4.323  18.074  0.00  0.00    +0.000 HD
ATOM     10  H   UNL     1     -12.487  -5.855  18.245  0.00  0.00    +0.000 HD
BRANCH   5  11
ATOM     11  O   UNL     1      -7.447  -6.456  16.959  0.00  0.00    +0.000 OA
ATOM     12  H   UNL     1      -7.157  -7.369  17.120  0.00  0.00    +0.000 HD
ENDBRANCH   5  11
BRANCH   6  13
ATOM     13  C   UNL     1      -9.234  -8.563  16.296  0.00  0.00    +0.000 C 
ATOM     14  O   UNL     1      -8.835  -8.460  15.132  0.00  0.00    +0.000 OA
BRANCH  13  15
ATOM     15  C   UNL     1      -9.043  -9.888  16.965  0.00  0.00    +0.000 A 
ATOM     16  C   UNL     1      -9.113 -11.025  16.125  0.00  0.00    +0.000 A 
ATOM     17  C   UNL     1      -8.882 -12.312  16.606  0.00  0.00    +0.000 A 
ATOM     18  C   UNL     1      -8.580 -12.505  17.947  0.00  0.00    +0.000 A 
ATOM     19  C   UNL     1      -8.516 -11.406  18.805  0.00  0.00    +0.000 A 
ATOM     20  C   UNL     1      -8.739 -10.095  18.324  0.00  0.00    +0.000 A 
ATOM     21  H   UNL     1      -8.954 -13.161  15.931  0.00  0.00    +0.000 HD
ATOM     22  H   UNL     1      -8.414 -13.510  18.326  0.00  0.00    +0.000 HD
ATOM     23  H   UNL     1      -8.321 -11.592  19.860  0.00  0.00    +0.000 HD
BRANCH  16  24
ATOM     24  O   UNL     1      -9.379 -10.953  14.780  0.00  0.00    +0.000 OA
ATOM     25  H   UNL     1      -9.265 -10.017  14.494  0.00  0.00    +0.000 HD
ENDBRANCH  16  24
BRANCH  20  26
ATOM     26  C   UNL     1      -8.712  -9.000  19.319  0.00  0.00    +0.000 C 
ATOM     27  O   UNL     1      -7.772  -8.246  19.457  0.00  0.00    +0.000 OA
BRANCH  26  28
ATOM     28  O   UNL     1      -9.840  -8.915  20.069  0.00  0.00    +0.000 OA
ATOM     29  H   UNL     1     -10.170  -8.013  20.249  0.00  0.00    +0.000 HD
ENDBRANCH  26  28
ENDBRANCH  20  26
ENDBRANCH  13  15
ENDBRANCH   6  13
BRANCH   7  30
ATOM     30  O   UNL     1     -12.003  -8.120  17.233  0.00  0.00    +0.000 OA
ATOM     31  H   UNL     1     -12.674  -7.807  16.602  0.00  0.00    +0.000 HD
ENDBRANCH   7  30
ENDBRANCH   1   3
BRANCH   1  32
ATOM     32  O   UNL     1     -10.057  -2.814  19.128  0.00  0.00    +0.000 OA
BRANCH  32  37
ATOM     33  C   UNL     1     -10.270  -0.692  17.858  0.00  0.00    +0.000 C 
ATOM     34  C   UNL     1      -8.915  -0.039  18.119  0.00  0.00    +0.000 C 
ATOM     35  N   UNL     1      -8.969   0.383  19.528  0.00  0.00    +0.000 NA
ATOM     36  C   UNL     1      -9.742  -0.666  20.216  0.00  0.00    +0.000 C 
ATOM     37  C   UNL     1     -10.546  -1.453  19.159  0.00  0.00    +0.000 C 
ATOM     38  H   UNL     1     -11.018   0.108  17.759  0.00  0.00    +0.000 HD
ATOM     39  H   UNL     1      -8.738   0.823  17.467  0.00  0.00    +0.000 HD
ATOM     40  H   UNL     1      -8.091  -0.746  17.970  0.00  0.00    +0.000 HD
ATOM     41  H   UNL     1      -9.493   1.259  19.578  0.00  0.00    +0.000 HD
ATOM     42  H   UNL     1     -10.407  -0.208  20.955  0.00  0.00    +0.000 HD
ATOM     43  H   UNL     1      -9.042  -1.313  20.759  0.00  0.00    +0.000 HD
ATOM     44  H   UNL     1     -11.626  -1.436  19.355  0.00  0.00    +0.000 HD
BRANCH  33  47
ATOM     45  O   UNL     1     -12.600  -1.236  16.411  0.00  0.00    +0.000 OA
ATOM     46  C   UNL     1     -11.530  -1.678  15.995  0.00  0.00    +0.000 C 
ATOM     47  N   UNL     1     -10.328  -1.490  16.645  0.00  0.00    +0.000 N 
ATOM     48  H   UNL     1      -9.457  -1.688  16.168  0.00  0.00    +0.000 HD
BRANCH  46  49
ATOM     49  C   UNL     1     -11.479  -2.398  14.699  0.00  0.00    +0.000 A 
ATOM     50  C   UNL     1     -10.791  -3.617  14.637  0.00  0.00    +0.000 A 
ATOM     51  C   UNL     1     -10.762  -4.348  13.448  0.00  0.00    +0.000 A 
ATOM     52  C   UNL     1     -11.403  -3.838  12.323  0.00  0.00    +0.000 A 
ATOM     53  C   UNL     1     -12.046  -2.603  12.361  0.00  0.00    +0.000 A 
ATOM     54  C   UNL     1     -12.090  -1.877  13.553  0.00  0.00    +0.000 A 
ATOM     55  H   UNL     1     -10.286  -4.002  15.520  0.00  0.00    +0.000 HD
ATOM     56  H   UNL     1     -10.243  -5.300  13.419  0.00  0.00    +0.000 HD
ATOM     57  H   UNL     1     -12.515  -2.210  11.462  0.00  0.00    +0.000 HD
ATOM     58  H   UNL     1     -12.576  -0.905  13.568  0.00  0.00    +0.000 HD
BRANCH  52  59
ATOM     59  O   UNL     1     -11.427  -4.528  11.148  0.00  0.00    +0.000 OA
ATOM     60  H   UNL     1     -11.962  -5.330  11.266  0.00  0.00    +0.000 HD
ENDBRANCH  52  59
ENDBRANCH  46  49
ENDBRANCH  33  47
ENDBRANCH  32  37
ENDBRANCH   1  32
TORSDOF 13
ENDMDL
