
 OpenBabel01112423023D

 37 39  0  0  0  0  0  0  0  0999 V2000
    1.0130   -0.3585   -0.1418 O   0  0  0  0  0  0  0  0  0  0  0  0
    2.4264   -0.1247    0.0566 S   0  0  0  0  0  0  0  0  0  0  0  0
    2.8843    0.7152    1.1459 O   0  0  0  0  0  0  0  0  0  0  0  0
    3.2166   -1.7181    0.2018 C   0  0  0  0  0  0  0  0  0  0  0  0
    4.0389   -1.9260    1.3230 C   0  0  0  0  0  0  0  0  0  0  0  0
    4.6726   -3.1496    1.5046 C   0  0  0  0  0  0  0  0  0  0  0  0
    4.4834   -4.1681    0.5759 C   0  0  0  0  0  0  0  0  0  0  0  0
    3.6524   -3.9791   -0.5429 C   0  0  0  0  0  0  0  0  0  0  0  0
    3.4509   -5.0050   -1.4714 C   0  0  0  0  0  0  0  0  0  0  0  0
    2.6639   -4.9145   -2.5649 N   0  0  0  0  0  0  0  0  0  0  0  0
    2.0331   -3.7414   -2.7478 C   0  0  0  0  0  0  0  0  0  0  0  0
    2.1642   -2.6545   -1.8967 C   0  0  0  0  0  0  0  0  0  0  0  0
    2.9918   -2.7467   -0.7540 C   0  0  0  0  0  0  0  0  0  0  0  0
    3.0866    0.5417   -1.4012 N   0  0  0  0  0  0  0  0  0  0  0  0
    4.5492    0.8473   -1.2955 C   0  0  0  0  0  0  0  0  0  0  0  0
    5.2660    0.6792   -2.6291 C   0  0  0  0  0  0  0  0  0  0  0  0
    4.8770    1.6256   -3.7636 C   0  0  0  0  0  0  0  0  0  0  0  0
    3.9979    2.7377   -3.4115 N   0  0  0  0  0  0  0  0  0  0  0  0
    2.6172    2.2717   -3.2084 C   0  0  0  0  0  0  0  0  0  0  0  0
    2.3091    1.7711   -1.7909 C   0  0  0  0  0  0  0  0  0  0  0  0
    4.1866   -1.1403    2.0618 H   0  0  0  0  0  0  0  0  0  0  0  0
    5.3078   -3.3112    2.3733 H   0  0  0  0  0  0  0  0  0  0  0  0
    4.9851   -5.1221    0.7354 H   0  0  0  0  0  0  0  0  0  0  0  0
    3.9366   -5.9709   -1.3531 H   0  0  0  0  0  0  0  0  0  0  0  0
    1.3929   -3.6887   -3.6239 H   0  0  0  0  0  0  0  0  0  0  0  0
    1.6066   -1.7546   -2.1354 H   0  0  0  0  0  0  0  0  0  0  0  0
    5.0249    0.1445   -0.6028 H   0  0  0  0  0  0  0  0  0  0  0  0
    4.7121    1.8476   -0.8784 H   0  0  0  0  0  0  0  0  0  0  0  0
    5.1482   -0.3541   -2.9791 H   0  0  0  0  0  0  0  0  0  0  0  0
    6.3389    0.8132   -2.4364 H   0  0  0  0  0  0  0  0  0  0  0  0
    4.4542    1.0532   -4.5991 H   0  0  0  0  0  0  0  0  0  0  0  0
    5.8030    2.0583   -4.1660 H   0  0  0  0  0  0  0  0  0  0  0  0
    3.9946    3.3930   -4.1953 H   0  0  0  0  0  0  0  0  0  0  0  0
    2.3392    1.5170   -3.9546 H   0  0  0  0  0  0  0  0  0  0  0  0
    1.9594    3.1307   -3.3918 H   0  0  0  0  0  0  0  0  0  0  0  0
    1.2380    1.5367   -1.7725 H   0  0  0  0  0  0  0  0  0  0  0  0
    2.4863    2.5710   -1.0623 H   0  0  0  0  0  0  0  0  0  0  0  0
  1  2  2  0  0  0  0
  2  3  2  0  0  0  0
  2  4  1  0  0  0  0
  2 14  1  0  0  0  0
  4  5  1  0  0  0  0
  4 13  2  0  0  0  0
  5  6  2  0  0  0  0
  5 21  1  0  0  0  0
  6  7  1  0  0  0  0
  6 22  1  0  0  0  0
  7  8  2  0  0  0  0
  7 23  1  0  0  0  0
  8  9  1  0  0  0  0
  8 13  1  0  0  0  0
  9 10  2  0  0  0  0
  9 24  1  0  0  0  0
 10 11  1  0  0  0  0
 11 12  2  0  0  0  0
 11 25  1  0  0  0  0
 12 13  1  0  0  0  0
 12 26  1  0  0  0  0
 14 15  1  0  0  0  0
 14 20  1  0  0  0  0
 15 16  1  0  0  0  0
 15 27  1  0  0  0  0
 15 28  1  0  0  0  0
 16 17  1  0  0  0  0
 16 29  1  0  0  0  0
 16 30  1  0  0  0  0
 17 18  1  0  0  0  0
 17 31  1  0  0  0  0
 17 32  1  0  0  0  0
 18 19  1  0  0  0  0
 18 33  1  0  0  0  0
 19 20  1  0  0  0  0
 19 34  1  0  0  0  0
 19 35  1  0  0  0  0
 20 36  1  0  0  0  0
 20 37  1  0  0  0  0
M  END
$$$$
