REMARK  Name = 
REMARK  10 active torsions:
REMARK  status: ('A' for Active; 'I' for Inactive)
REMARK    1  A    between atoms: C_1  and  O_2
REMARK    2  A    between atoms: O_2  and  C_3
REMARK    3  A    between atoms: C_3  and  C_5
REMARK    4  A    between atoms: C_9  and  N_10
REMARK    5  A    between atoms: C_11  and  C_13
REMARK    6  A    between atoms: C_13  and  C_14
REMARK    7  A    between atoms: C_14  and  N_15
REMARK    8  A    between atoms: N_15  and  C_16
REMARK    9  A    between atoms: N_15  and  C_17
REMARK   10  A    between atoms: N_20  and  C_21
REMARK                            x       y       z     vdW  Elec       q    Type
REMARK                         _______ _______ _______ _____ _____    ______ ____
ROOT
ATOM      1  C   UNL     1       0.270   0.450  -0.709  0.00  0.00    +0.000 C 
ATOM      2  C   UNL     1      -0.187   1.769  -1.418  0.00  0.00    +0.000 C 
ATOM      3  C   UNL     1      -1.583   1.749  -2.050  0.00  0.00    +0.000 C 
ATOM      4  N   UNL     1      -1.756   0.521  -2.799  0.00  0.00    +0.000 N 
ATOM      5  C   UNL     1      -1.618  -0.705  -2.041  0.00  0.00    +0.000 C 
ATOM      6  C   UNL     1      -0.199  -0.790  -1.500  0.00  0.00    +0.000 C 
ATOM      7  H   UNL     1       0.525   2.009  -2.220  0.00  0.00    +0.000 HD
ATOM      8  H   UNL     1      -0.141   2.613  -0.716  0.00  0.00    +0.000 HD
ATOM      9  H   UNL     1      -1.641   2.637  -2.686  0.00  0.00    +0.000 HD
ATOM     10  H   UNL     1      -2.372   1.840  -1.297  0.00  0.00    +0.000 HD
ATOM     11  H   UNL     1      -1.825  -1.607  -2.629  0.00  0.00    +0.000 HD
ATOM     12  H   UNL     1      -2.341  -0.711  -1.216  0.00  0.00    +0.000 HD
ATOM     13  H   UNL     1       0.474  -0.947  -2.352  0.00  0.00    +0.000 HD
ATOM     14  H   UNL     1      -0.173  -1.684  -0.873  0.00  0.00    +0.000 HD
ENDROOT
BRANCH   4  15
ATOM     15  C   UNL     1      -2.152   0.464  -4.117  0.00  0.00    +0.000 A 
ATOM     16  N   UNL     1      -1.764  -0.621  -4.856  0.00  0.00    +0.000 NA
ATOM     17  C   UNL     1      -2.076  -0.685  -6.165  0.00  0.00    +0.000 A 
ATOM     18  N   UNL     1      -2.755   0.208  -6.897  0.00  0.00    +0.000 NA
ATOM     19  C   UNL     1      -3.156   1.242  -6.142  0.00  0.00    +0.000 A 
ATOM     20  N   UNL     1      -3.882   2.297  -6.618  0.00  0.00    +0.000 N 
ATOM     21  C   UNL     1      -4.165   3.164  -5.596  0.00  0.00    +0.000 A 
ATOM     22  C   UNL     1      -3.607   2.645  -4.446  0.00  0.00    +0.000 A 
ATOM     23  C   UNL     1      -2.918   1.442  -4.790  0.00  0.00    +0.000 A 
ATOM     24  H   UNL     1      -1.729  -1.569  -6.691  0.00  0.00    +0.000 HD
ATOM     25  H   UNL     1      -4.167   2.392  -7.581  0.00  0.00    +0.000 HD
ATOM     26  H   UNL     1      -4.744   4.062  -5.767  0.00  0.00    +0.000 HD
ATOM     27  H   UNL     1      -3.691   3.086  -3.463  0.00  0.00    +0.000 HD
ENDBRANCH   4  15
BRANCH   1  29
ATOM     28  N   UNL     1       0.382  -0.263   1.653  0.00  0.00    +0.000 N 
ATOM     29  C   UNL     1      -0.353   0.437   0.713  0.00  0.00    +0.000 C 
ATOM     30  O   UNL     1      -1.437   0.975   0.924  0.00  0.00    +0.000 OA
ATOM     31  H   UNL     1       1.282  -0.621   1.326  0.00  0.00    +0.000 HD
BRANCH  28  36
ATOM     32  C   UNL     1       1.036  -1.079   5.200  0.00  0.00    +0.000 A 
ATOM     33  C   UNL     1      -0.111  -0.575   5.824  0.00  0.00    +0.000 A 
ATOM     34  C   UNL     1      -1.114   0.022   5.064  0.00  0.00    +0.000 A 
ATOM     35  C   UNL     1      -0.981   0.125   3.678  0.00  0.00    +0.000 A 
ATOM     36  C   UNL     1       0.157  -0.368   3.039  0.00  0.00    +0.000 A 
ATOM     37  C   UNL     1       1.160  -0.980   3.805  0.00  0.00    +0.000 A 
ATOM     38  H   UNL     1      -0.237  -0.633   6.903  0.00  0.00    +0.000 HD
ATOM     39  H   UNL     1      -2.003   0.418   5.549  0.00  0.00    +0.000 HD
ATOM     40  H   UNL     1      -1.783   0.603   3.125  0.00  0.00    +0.000 HD
ATOM     41  H   UNL     1       2.058  -1.366   3.324  0.00  0.00    +0.000 HD
BRANCH  32  42
ATOM     42  C   UNL     1       2.143  -1.706   5.977  0.00  0.00    +0.000 C 
ATOM     43  O   UNL     1       3.154  -2.165   5.471  0.00  0.00    +0.000 OA
BRANCH  42  44
ATOM     44  O   UNL     1       1.859  -1.672   7.303  0.00  0.00    +0.000 OA
BRANCH  44  45
ATOM     45  C   UNL     1       2.869  -2.224   8.148  0.00  0.00    +0.000 C 
ATOM     46  H   UNL     1       2.482  -2.226   9.171  0.00  0.00    +0.000 HD
ATOM     47  H   UNL     1       3.768  -1.600   8.119  0.00  0.00    +0.000 HD
ATOM     48  H   UNL     1       3.098  -3.255   7.863  0.00  0.00    +0.000 HD
ENDBRANCH  44  45
ENDBRANCH  42  44
ENDBRANCH  32  42
ENDBRANCH  28  36
ENDBRANCH   1  29
BRANCH   1  49
ATOM     49  C   UNL     1       1.842   0.515  -0.634  0.00  0.00    +0.000 C 
ATOM     50  H   UNL     1       2.081   1.449  -0.103  0.00  0.00    +0.000 HD
ATOM     51  H   UNL     1       2.244   0.632  -1.650  0.00  0.00    +0.000 HD
BRANCH  49  52
ATOM     52  N   UNL     1       2.595  -0.572   0.060  0.00  0.00    +0.000 NA
BRANCH  52  53
ATOM     53  C   UNL     1       2.507  -1.882  -0.598  0.00  0.00    +0.000 C 
ATOM     54  H   UNL     1       1.585  -2.390  -0.312  0.00  0.00    +0.000 HD
ATOM     55  H   UNL     1       3.297  -2.558  -0.252  0.00  0.00    +0.000 HD
ATOM     56  H   UNL     1       2.576  -1.814  -1.688  0.00  0.00    +0.000 HD
ENDBRANCH  52  53
BRANCH  52  57
ATOM     57  C   UNL     1       4.018  -0.197   0.132  0.00  0.00    +0.000 C 
ATOM     58  H   UNL     1       4.148   0.738   0.688  0.00  0.00    +0.000 HD
ATOM     59  H   UNL     1       4.461  -0.081  -0.864  0.00  0.00    +0.000 HD
ATOM     60  H   UNL     1       4.588  -0.961   0.675  0.00  0.00    +0.000 HD
ENDBRANCH  52  57
ENDBRANCH  49  52
ENDBRANCH   1  49
TORSDOF 10
