REMARK  Name = 
REMARK  10 active torsions:
REMARK  status: ('A' for Active; 'I' for Inactive)
REMARK    1  A    between atoms: S_2  and  N_4
REMARK    2  A    between atoms: S_2  and  C_19
REMARK    3  A    between atoms: N_4  and  C_5
REMARK    4  A    between atoms: C_5  and  C_6
REMARK    5  A    between atoms: C_6  and  N_7
REMARK    6  A    between atoms: N_7  and  C_8
REMARK    7  A    between atoms: C_8  and  C_9
REMARK    8  A    between atoms: C_9  and  O_10
REMARK    9  A    between atoms: O_10  and  C_11
REMARK   10  A    between atoms: C_11  and  C_12
REMARK                            x       y       z     vdW  Elec       q    Type
REMARK                         _______ _______ _______ _____ _____    ______ ____
ROOT
ATOM      1  C   UNL     1       0.118   2.702   1.142  0.00  0.00    +0.000 C 
ATOM      2  H   UNL     1       1.214   2.760   1.149  0.00  0.00    +0.000 HD
ATOM      3  H   UNL     1      -0.226   3.583   1.699  0.00  0.00    +0.000 HD
ENDROOT
BRANCH   1   4
ATOM      4  C   UNL     1      -0.314   1.411   1.859  0.00  0.00    +0.000 C 
ATOM      5  H   UNL     1      -1.404   1.352   1.888  0.00  0.00    +0.000 HD
ATOM      6  H   UNL     1       0.080   0.547   1.315  0.00  0.00    +0.000 HD
BRANCH   4   7
ATOM      7  N   UNL     1       0.167   1.396   3.245  0.00  0.00    +0.000 NA
ATOM      8  H   UNL     1       1.132   1.674   3.406  0.00  0.00    +0.000 HD
BRANCH   7  10
ATOM      9  O   UNL     1       0.200   0.328   5.535  0.00  0.00    +0.000 OA
ATOM     10  S   UNL     1      -0.346   0.114   4.215  0.00  0.00    +0.000 S 
ATOM     11  O   UNL     1      -1.769  -0.048   4.004  0.00  0.00    +0.000 OA
BRANCH  10  12
ATOM     12  C   UNL     1       0.494  -1.289   3.496  0.00  0.00    +0.000 A 
ATOM     13  C   UNL     1      -0.304  -2.284   2.905  0.00  0.00    +0.000 A 
ATOM     14  C   UNL     1       0.290  -3.408   2.342  0.00  0.00    +0.000 A 
ATOM     15  C   UNL     1       1.675  -3.537   2.357  0.00  0.00    +0.000 A 
ATOM     16  C   UNL     1       2.487  -2.545   2.936  0.00  0.00    +0.000 A 
ATOM     17  C   UNL     1       3.880  -2.670   2.941  0.00  0.00    +0.000 A 
ATOM     18  N   UNL     1       4.737  -1.770   3.469  0.00  0.00    +0.000 NA
ATOM     19  C   UNL     1       4.183  -0.695   4.052  0.00  0.00    +0.000 A 
ATOM     20  C   UNL     1       2.815  -0.473   4.114  0.00  0.00    +0.000 A 
ATOM     21  C   UNL     1       1.914  -1.399   3.534  0.00  0.00    +0.000 A 
ATOM     22  H   UNL     1      -1.389  -2.197   2.885  0.00  0.00    +0.000 HD
ATOM     23  H   UNL     1      -0.325  -4.186   1.894  0.00  0.00    +0.000 HD
ATOM     24  H   UNL     1       2.124  -4.426   1.916  0.00  0.00    +0.000 HD
ATOM     25  H   UNL     1       4.367  -3.536   2.499  0.00  0.00    +0.000 HD
ATOM     26  H   UNL     1       4.882   0.013   4.490  0.00  0.00    +0.000 HD
ATOM     27  H   UNL     1       2.481   0.416   4.637  0.00  0.00    +0.000 HD
ENDBRANCH  10  12
ENDBRANCH   7  10
ENDBRANCH   4   7
ENDBRANCH   1   4
BRANCH   1  28
ATOM     28  N   UNL     1      -0.324   2.795  -0.253  0.00  0.00    +0.000 NA
ATOM     29  H   UNL     1       0.026   1.999  -0.794  0.00  0.00    +0.000 HD
BRANCH  28  30
ATOM     30  C   UNL     1      -1.790   2.802  -0.374  0.00  0.00    +0.000 C 
ATOM     31  H   UNL     1      -2.204   3.682   0.129  0.00  0.00    +0.000 HD
ATOM     32  H   UNL     1      -2.215   1.903   0.082  0.00  0.00    +0.000 HD
BRANCH  30  33
ATOM     33  C   UNL     1      -2.221   2.796  -1.842  0.00  0.00    +0.000 C 
ATOM     34  H   UNL     1      -1.823   3.674  -2.364  0.00  0.00    +0.000 HD
ATOM     35  H   UNL     1      -3.316   2.814  -1.890  0.00  0.00    +0.000 HD
BRANCH  33  36
ATOM     36  O   UNL     1      -1.744   1.596  -2.465  0.00  0.00    +0.000 OA
BRANCH  36  37
ATOM     37  C   UNL     1      -2.147   1.547  -3.831  0.00  0.00    +0.000 C 
ATOM     38  H   UNL     1      -1.779   2.432  -4.365  0.00  0.00    +0.000 HD
ATOM     39  H   UNL     1      -3.242   1.544  -3.883  0.00  0.00    +0.000 HD
BRANCH  37  40
ATOM     40  C   UNL     1      -1.582   0.313  -4.484  0.00  0.00    +0.000 A 
ATOM     41  C   UNL     1      -2.433  -0.652  -5.042  0.00  0.00    +0.000 A 
ATOM     42  C   UNL     1      -1.906  -1.765  -5.702  0.00  0.00    +0.000 A 
ATOM     43  C   UNL     1      -0.525  -1.919  -5.804  0.00  0.00    +0.000 A 
ATOM     44 CL   UNL     1       0.122  -3.279  -6.637  0.00  0.00    +0.000 Cl
ATOM     45  C   UNL     1       0.333  -0.978  -5.242  0.00  0.00    +0.000 A 
ATOM     46  C   UNL     1      -0.194   0.134  -4.581  0.00  0.00    +0.000 A 
ATOM     47  H   UNL     1      -3.513  -0.541  -4.974  0.00  0.00    +0.000 HD
ATOM     48  H   UNL     1      -2.577  -2.500  -6.138  0.00  0.00    +0.000 HD
ATOM     49  H   UNL     1       1.410  -1.099  -5.319  0.00  0.00    +0.000 HD
ATOM     50  H   UNL     1       0.480   0.869  -4.145  0.00  0.00    +0.000 HD
ENDBRANCH  37  40
ENDBRANCH  36  37
ENDBRANCH  33  36
ENDBRANCH  30  33
ENDBRANCH  28  30
ENDBRANCH   1  28
TORSDOF 10
