
 OpenBabel01112422333D

 65 71  0  0  0  0  0  0  0  0999 V2000
   -8.0839   -1.0505    8.0918 C   0  0  0  0  0  0  0  0  0  0  0  0
   -7.3302    0.0290    7.4644 N   0  0  0  0  0  0  0  0  0  0  0  0
   -5.8813   -0.2213    7.5072 C   0  0  0  0  0  0  0  0  0  0  0  0
   -5.0962    0.9399    6.8537 C   0  0  0  0  0  0  0  0  0  0  0  0
   -5.4639    1.2742    5.4602 N   0  0  0  0  0  0  0  0  0  0  0  0
   -5.0043    0.3453    4.4141 C   0  0  0  0  0  0  0  0  0  0  0  0
   -3.5680   -0.2013    4.5400 C   0  0  0  0  0  0  0  0  0  0  0  0
   -3.2546   -1.3992    3.6229 C   0  0  0  0  0  0  0  0  0  0  0  0
   -3.8283   -2.7531    4.0143 C   0  0  0  0  0  0  0  0  0  0  0  0
   -5.0399   -2.9003    4.7089 C   0  0  0  0  0  0  0  0  0  0  0  0
   -5.6495   -4.1191    4.9700 C   0  0  0  0  0  0  0  0  0  0  0  0
   -5.0480   -5.2940    4.5669 C   0  0  0  0  0  0  0  0  0  0  0  0
   -3.8073   -5.2462    3.9193 C   0  0  0  0  0  0  0  0  0  0  0  0
   -3.2282   -3.9822    3.6731 C   0  0  0  0  0  0  0  0  0  0  0  0
   -2.0106   -4.2161    3.0519 N   0  0  0  0  0  0  0  0  0  0  0  0
   -1.7518   -5.5633    2.9125 C   0  0  0  0  0  0  0  0  0  0  0  0
   -0.6414   -6.2933    2.4534 C   0  0  0  0  0  0  0  0  0  0  0  0
    0.4648   -5.5182    2.1123 C   0  0  0  0  0  0  0  0  0  0  0  0
    1.6459   -6.1450    1.7963 C   0  0  0  0  0  0  0  0  0  0  0  0
    1.6517   -7.5290    1.6069 C   0  0  0  0  0  0  0  0  0  0  0  0
    2.7137   -8.3789    1.2419 C   0  0  0  0  0  0  0  0  0  0  0  0
    2.0721   -9.3321    0.5095 C   0  0  0  0  0  0  0  0  0  0  0  0
    0.8955   -9.5317    1.2150 N   0  0  0  0  0  0  0  0  0  0  0  0
    0.5423  -10.9138    1.4168 C   0  0  0  0  0  0  0  0  0  0  0  0
    0.4815   -8.3241    1.7749 C   0  0  0  0  0  0  0  0  0  0  0  0
   -0.6775   -7.7350    2.3940 C   0  0  0  0  0  0  0  0  0  0  0  0
   -1.8565   -8.3077    2.9357 C   0  0  0  0  0  0  0  0  0  0  0  0
   -2.9834   -7.5594    3.4368 C   0  0  0  0  0  0  0  0  0  0  0  0
   -2.8746   -6.1477    3.4036 C   0  0  0  0  0  0  0  0  0  0  0  0
   -3.9948   -8.4450    3.9349 C   0  0  0  0  0  0  0  0  0  0  0  0
   -5.0408   -8.3224    4.5468 O   0  0  0  0  0  0  0  0  0  0  0  0
   -3.4813   -9.6675    3.6300 N   0  0  0  0  0  0  0  0  0  0  0  0
   -2.1672   -9.6836    3.2419 C   0  0  0  0  0  0  0  0  0  0  0  0
   -1.5164  -10.7181    3.3234 O   0  0  0  0  0  0  0  0  0  0  0  0
   -6.9451    1.4109    5.3981 C   0  0  0  0  0  0  0  0  0  0  0  0
   -7.7539    0.2645    6.0742 C   0  0  0  0  0  0  0  0  0  0  0  0
   -7.7800   -1.1714    9.1381 H   0  0  0  0  0  0  0  0  0  0  0  0
   -7.9506   -2.0110    7.5818 H   0  0  0  0  0  0  0  0  0  0  0  0
   -9.1533   -0.8115    8.1059 H   0  0  0  0  0  0  0  0  0  0  0  0
   -5.6312   -1.1686    7.0210 H   0  0  0  0  0  0  0  0  0  0  0  0
   -5.5563   -0.3109    8.5509 H   0  0  0  0  0  0  0  0  0  0  0  0
   -4.0208    0.7700    6.9605 H   0  0  0  0  0  0  0  0  0  0  0  0
   -5.2776    1.8395    7.4580 H   0  0  0  0  0  0  0  0  0  0  0  0
   -5.0702    0.8682    3.4505 H   0  0  0  0  0  0  0  0  0  0  0  0
   -5.7300   -0.4510    4.2994 H   0  0  0  0  0  0  0  0  0  0  0  0
   -3.3194   -0.5081    5.5586 H   0  0  0  0  0  0  0  0  0  0  0  0
   -2.8853    0.6201    4.2811 H   0  0  0  0  0  0  0  0  0  0  0  0
   -2.1601   -1.4927    3.6023 H   0  0  0  0  0  0  0  0  0  0  0  0
   -3.5620   -1.1696    2.5951 H   0  0  0  0  0  0  0  0  0  0  0  0
   -5.5836   -2.0584    5.0953 H   0  0  0  0  0  0  0  0  0  0  0  0
   -6.6070   -4.1418    5.4804 H   0  0  0  0  0  0  0  0  0  0  0  0
   -5.5751   -6.2216    4.7962 H   0  0  0  0  0  0  0  0  0  0  0  0
   -1.3745   -3.4845    2.7590 H   0  0  0  0  0  0  0  0  0  0  0  0
    0.4587   -4.4348    2.1277 H   0  0  0  0  0  0  0  0  0  0  0  0
    2.5386   -5.5632    1.5829 H   0  0  0  0  0  0  0  0  0  0  0  0
    3.7731   -8.1752    1.2422 H   0  0  0  0  0  0  0  0  0  0  0  0
    2.4370  -10.0513   -0.2120 H   0  0  0  0  0  0  0  0  0  0  0  0
   -0.5183  -11.0640    1.5035 H   0  0  0  0  0  0  0  0  0  0  0  0
    1.1281  -11.2568    2.2775 H   0  0  0  0  0  0  0  0  0  0  0  0
    0.8709  -11.4882    0.5406 H   0  0  0  0  0  0  0  0  0  0  0  0
   -3.9264  -10.4910    3.9981 H   0  0  0  0  0  0  0  0  0  0  0  0
   -7.2711    1.5136    4.3551 H   0  0  0  0  0  0  0  0  0  0  0  0
   -7.2138    2.3557    5.8868 H   0  0  0  0  0  0  0  0  0  0  0  0
   -7.6594   -0.6569    5.4847 H   0  0  0  0  0  0  0  0  0  0  0  0
   -8.8144    0.5431    6.0597 H   0  0  0  0  0  0  0  0  0  0  0  0
  1  2  1  0  0  0  0
  1 37  1  0  0  0  0
  1 38  1  0  0  0  0
  1 39  1  0  0  0  0
  2  3  1  0  0  0  0
  2 36  1  0  0  0  0
  3  4  1  0  0  0  0
  3 40  1  0  0  0  0
  3 41  1  0  0  0  0
  4  5  1  0  0  0  0
  4 42  1  0  0  0  0
  4 43  1  0  0  0  0
  5  6  1  0  0  0  0
  5 35  1  0  0  0  0
  6  7  1  0  0  0  0
  6 44  1  0  0  0  0
  6 45  1  0  0  0  0
  7  8  1  0  0  0  0
  7 46  1  0  0  0  0
  7 47  1  0  0  0  0
  8  9  1  0  0  0  0
  8 48  1  0  0  0  0
  8 49  1  0  0  0  0
  9 10  1  0  0  0  0
  9 14  2  0  0  0  0
 10 11  2  0  0  0  0
 10 50  1  0  0  0  0
 11 12  1  0  0  0  0
 11 51  1  0  0  0  0
 12 13  2  0  0  0  0
 12 52  1  0  0  0  0
 13 14  1  0  0  0  0
 13 29  1  0  0  0  0
 14 15  1  0  0  0  0
 15 16  1  0  0  0  0
 15 53  1  0  0  0  0
 16 17  1  0  0  0  0
 16 29  2  0  0  0  0
 17 18  1  0  0  0  0
 17 26  2  0  0  0  0
 18 19  2  0  0  0  0
 18 54  1  0  0  0  0
 19 20  1  0  0  0  0
 19 55  1  0  0  0  0
 20 21  1  0  0  0  0
 20 25  2  0  0  0  0
 21 22  2  0  0  0  0
 21 56  1  0  0  0  0
 22 23  1  0  0  0  0
 22 57  1  0  0  0  0
 23 24  1  0  0  0  0
 23 25  1  0  0  0  0
 24 58  1  0  0  0  0
 24 59  1  0  0  0  0
 24 60  1  0  0  0  0
 25 26  1  0  0  0  0
 26 27  1  0  0  0  0
 27 28  2  0  0  0  0
 27 33  1  0  0  0  0
 28 29  1  0  0  0  0
 28 30  1  0  0  0  0
 30 31  2  0  0  0  0
 30 32  1  0  0  0  0
 32 33  1  0  0  0  0
 32 61  1  0  0  0  0
 33 34  2  0  0  0  0
 35 36  1  0  0  0  0
 35 62  1  0  0  0  0
 35 63  1  0  0  0  0
 36 64  1  0  0  0  0
 36 65  1  0  0  0  0
M  END
$$$$
