REMARK  Name = 
REMARK  3 active torsions:
REMARK  status: ('A' for Active; 'I' for Inactive)
REMARK    1  A    between atoms: C_1  and  C_2
REMARK    2  A    between atoms: N_7  and  C_8
REMARK    3  A    between atoms: N_20  and  C_21
REMARK                            x       y       z     vdW  Elec       q    Type
REMARK                         _______ _______ _______ _____ _____    ______ ____
ROOT
ATOM      1  C   UNL     1      -1.167   2.005  -0.352  0.00  0.00    +0.000 A 
ATOM      2  C   UNL     1      -0.547   3.146  -0.858  0.00  0.00    +0.000 A 
ATOM      3  C   UNL     1       0.781   3.358  -0.534  0.00  0.00    +0.000 A 
ATOM      4  C   UNL     1       1.493   4.575  -0.536  0.00  0.00    +0.000 A 
ATOM      5  C   UNL     1       2.388   4.387   0.473  0.00  0.00    +0.000 A 
ATOM      6  N   UNL     1       2.713   3.040   0.387  0.00  0.00    +0.000 N 
ATOM      7  C   UNL     1       1.579   2.318  -0.005  0.00  0.00    +0.000 A 
ATOM      8  C   UNL     1       1.047   0.963  -0.026  0.00  0.00    +0.000 A 
ATOM      9  C   UNL     1       1.770  -0.249   0.063  0.00  0.00    +0.000 A 
ATOM     10  C   UNL     1       1.210  -1.564   0.132  0.00  0.00    +0.000 A 
ATOM     11  C   UNL     1      -0.202  -1.661   0.118  0.00  0.00    +0.000 A 
ATOM     12  C   UNL     1      -0.888  -2.889   0.089  0.00  0.00    +0.000 A 
ATOM     13  C   UNL     1      -0.634  -4.284   0.085  0.00  0.00    +0.000 A 
ATOM     14  C   UNL     1      -1.681  -5.219   0.039  0.00  0.00    +0.000 A 
ATOM     15  C   UNL     1      -2.997  -4.801   0.010  0.00  0.00    +0.000 A 
ATOM     16  C   UNL     1      -3.283  -3.441   0.010  0.00  0.00    +0.000 A 
ATOM     17  C   UNL     1      -2.229  -2.496   0.032  0.00  0.00    +0.000 A 
ATOM     18  N   UNL     1      -2.272  -1.105  -0.015  0.00  0.00    +0.000 N 
ATOM     19  C   UNL     1      -0.984  -0.528   0.014  0.00  0.00    +0.000 A 
ATOM     20  C   UNL     1      -0.413   0.820  -0.111  0.00  0.00    +0.000 A 
ATOM     21  C   UNL     1       2.270  -2.537   0.166  0.00  0.00    +0.000 C 
ATOM     22  O   UNL     1       2.352  -3.760   0.098  0.00  0.00    +0.000 OA
ATOM     23  N   UNL     1       3.382  -1.775   0.243  0.00  0.00    +0.000 N 
ATOM     24  C   UNL     1       3.197  -0.458  -0.077  0.00  0.00    +0.000 C 
ATOM     25  O   UNL     1       4.118   0.216  -0.507  0.00  0.00    +0.000 OA
ATOM     26  H   UNL     1      -1.130   4.009  -1.171  0.00  0.00    +0.000 HD
ATOM     27  H   UNL     1       1.182   5.522  -0.950  0.00  0.00    +0.000 HD
ATOM     28  H   UNL     1       2.977   5.090   1.049  0.00  0.00    +0.000 HD
ATOM     29  H   UNL     1       0.369  -4.687   0.104  0.00  0.00    +0.000 HD
ATOM     30  H   UNL     1      -1.456  -6.283   0.023  0.00  0.00    +0.000 HD
ATOM     31  H   UNL     1      -3.806  -5.526  -0.019  0.00  0.00    +0.000 HD
ATOM     32  H   UNL     1      -4.330  -3.144  -0.019  0.00  0.00    +0.000 HD
ATOM     33  H   UNL     1       4.283  -2.196   0.097  0.00  0.00    +0.000 HD
ENDROOT
BRANCH   1  34
ATOM     34  C   UNL     1      -2.595   2.288   0.007  0.00  0.00    +0.000 C 
ATOM     35  H   UNL     1      -2.748   3.361   0.190  0.00  0.00    +0.000 HD
ATOM     36  H   UNL     1      -2.835   1.842   0.971  0.00  0.00    +0.000 HD
ATOM     37  H   UNL     1      -3.278   2.034  -0.801  0.00  0.00    +0.000 HD
ENDBRANCH   1  34
BRANCH   6  38
ATOM     38  C   UNL     1       4.124   2.758   0.492  0.00  0.00    +0.000 C 
ATOM     39  H   UNL     1       4.332   1.811   0.966  0.00  0.00    +0.000 HD
ATOM     40  H   UNL     1       4.590   3.534   1.117  0.00  0.00    +0.000 HD
ATOM     41  H   UNL     1       4.536   2.870  -0.517  0.00  0.00    +0.000 HD
ENDBRANCH   6  38
BRANCH  18  42
ATOM     42  C   UNL     1      -3.549  -0.442  -0.102  0.00  0.00    +0.000 C 
ATOM     43  H   UNL     1      -4.378  -1.146  -0.153  0.00  0.00    +0.000 HD
ATOM     44  H   UNL     1      -3.578   0.119  -1.033  0.00  0.00    +0.000 HD
ATOM     45  H   UNL     1      -3.712   0.126   0.811  0.00  0.00    +0.000 HD
ENDBRANCH  18  42
TORSDOF 3
