
 OpenBabel01112422413D

 34 36  0  0  0  0  0  0  0  0999 V2000
    1.0614    0.3219    0.0287 C   0  0  0  0  0  0  0  0  0  0  0  0
    2.5609    0.0583    0.0809 C   0  0  0  0  0  0  0  0  0  0  0  0
    3.0650   -0.4288   -1.2062 N   0  0  0  0  0  0  0  0  0  0  0  0
    3.5090    0.5280   -2.1195 C   0  0  0  0  0  0  0  0  0  0  0  0
    3.5694    1.7355   -1.8622 O   0  0  0  0  0  0  0  0  0  0  0  0
    3.9201    0.0928   -3.4742 C   0  0  0  0  0  0  0  0  0  0  0  0
    4.3860    1.0441   -4.4019 C   0  0  0  0  0  0  0  0  0  0  0  0
    4.5068    2.3865   -4.1320 O   0  0  0  0  0  0  0  0  0  0  0  0
    4.7532    0.6512   -5.6824 C   0  0  0  0  0  0  0  0  0  0  0  0
    5.2004    1.5653   -6.5888 O   0  0  0  0  0  0  0  0  0  0  0  0
    4.6644   -0.6753   -6.0618 C   0  0  0  0  0  0  0  0  0  0  0  0
    4.2057   -1.6229   -5.1412 C   0  0  0  0  0  0  0  0  0  0  0  0
    3.8240   -1.2687   -3.8262 C   0  0  0  0  0  0  0  0  0  0  0  0
    3.3346   -2.2552   -2.8341 C   0  0  0  0  0  0  0  0  0  0  0  0
    3.2029   -3.6349   -3.1321 C   0  0  0  0  0  0  0  0  0  0  0  0
    2.7325   -4.5363   -2.1806 C   0  0  0  0  0  0  0  0  0  0  0  0
    2.5908   -5.8697   -2.4441 O   0  0  0  0  0  0  0  0  0  0  0  0
    2.3881   -4.0925   -0.9194 C   0  0  0  0  0  0  0  0  0  0  0  0
    1.9208   -4.9586    0.0255 O   0  0  0  0  0  0  0  0  0  0  0  0
    2.5058   -2.7534   -0.5929 C   0  0  0  0  0  0  0  0  0  0  0  0
    2.9692   -1.8179   -1.5375 C   0  0  0  0  0  0  0  0  0  0  0  0
    0.7009    0.6731    1.0002 H   0  0  0  0  0  0  0  0  0  0  0  0
    0.4984   -0.5789   -0.2371 H   0  0  0  0  0  0  0  0  0  0  0  0
    0.8280    1.0864   -0.7205 H   0  0  0  0  0  0  0  0  0  0  0  0
    2.8214   -0.6324    0.8873 H   0  0  0  0  0  0  0  0  0  0  0  0
    3.0709    0.9926    0.3420 H   0  0  0  0  0  0  0  0  0  0  0  0
    4.2003    2.5289   -3.2060 H   0  0  0  0  0  0  0  0  0  0  0  0
    5.1774    2.4200   -6.1121 H   0  0  0  0  0  0  0  0  0  0  0  0
    4.9486   -0.9723   -7.0665 H   0  0  0  0  0  0  0  0  0  0  0  0
    4.1549   -2.6479   -5.4936 H   0  0  0  0  0  0  0  0  0  0  0  0
    3.4593   -4.0199   -4.1119 H   0  0  0  0  0  0  0  0  0  0  0  0
    2.8850   -6.0418   -3.3542 H   0  0  0  0  0  0  0  0  0  0  0  0
    1.9045   -5.8315   -0.4175 H   0  0  0  0  0  0  0  0  0  0  0  0
    2.2163   -2.4805    0.4143 H   0  0  0  0  0  0  0  0  0  0  0  0
  1  2  1  0  0  0  0
  1 22  1  0  0  0  0
  1 23  1  0  0  0  0
  1 24  1  0  0  0  0
  2  3  1  0  0  0  0
  2 25  1  0  0  0  0
  2 26  1  0  0  0  0
  3  4  1  0  0  0  0
  3 21  1  0  0  0  0
  4  5  2  0  0  0  0
  4  6  1  0  0  0  0
  6  7  1  0  0  0  0
  6 13  2  0  0  0  0
  7  8  1  0  0  0  0
  7  9  2  0  0  0  0
  8 27  1  0  0  0  0
  9 10  1  0  0  0  0
  9 11  1  0  0  0  0
 10 28  1  0  0  0  0
 11 12  2  0  0  0  0
 11 29  1  0  0  0  0
 12 13  1  0  0  0  0
 12 30  1  0  0  0  0
 13 14  1  0  0  0  0
 14 15  1  0  0  0  0
 14 21  2  0  0  0  0
 15 16  2  0  0  0  0
 15 31  1  0  0  0  0
 16 17  1  0  0  0  0
 16 18  1  0  0  0  0
 17 32  1  0  0  0  0
 18 19  1  0  0  0  0
 18 20  2  0  0  0  0
 19 33  1  0  0  0  0
 20 21  1  0  0  0  0
 20 34  1  0  0  0  0
M  END
$$$$
