
 OpenBabel01112422153D

 73 81  0  0  1  0  0  0  0  0999 V2000
    0.1947   -0.9417   -1.6408 C   0  0  0  0  0  0  0  0  0  0  0  0
    1.0906   -1.2440   -0.5829 O   0  0  0  0  0  0  0  0  0  0  0  0
    1.3284   -0.3039    0.5023 C   0  0  1  0  0  0  0  0  0  0  0  0
    1.7156    1.1296    0.1539 C   0  0  1  0  0  0  0  0  0  0  0  0
    2.8665    1.0398   -0.8388 N   0  0  0  0  0  0  0  0  0  0  0  0
    2.5790    0.8827   -2.2588 C   0  0  0  0  0  0  0  0  0  0  0  0
    4.0209    0.3271   -0.2954 C   0  0  0  0  0  0  0  0  0  0  0  0
    4.3344    0.4032    0.8938 O   0  0  0  0  0  0  0  0  0  0  0  0
    4.6541   -0.7797   -1.0988 C   0  0  0  0  0  0  0  0  0  0  0  0
    5.1358   -0.5791   -2.3914 C   0  0  0  0  0  0  0  0  0  0  0  0
    5.1424   -1.6491   -3.2907 C   0  0  0  0  0  0  0  0  0  0  0  0
    4.7704   -2.9267   -2.8683 C   0  0  0  0  0  0  0  0  0  0  0  0
    4.5239   -3.1655   -1.5183 C   0  0  0  0  0  0  0  0  0  0  0  0
    4.4875   -2.0929   -0.6242 C   0  0  0  0  0  0  0  0  0  0  0  0
    0.3942    2.0766   -0.0075 C   0  0  0  0  0  0  0  0  0  0  0  0
   -0.9480    1.9043    1.3533 C   0  0  2  0  0  0  0  0  0  0  0  0
    0.0881    1.0904    2.2330 O   0  0  0  0  0  0  0  0  0  0  0  0
    0.2945   -0.2166    1.5958 C   0  0  2  0  0  0  0  0  0  0  0  0
    0.6614   -1.1022    2.8174 C   0  0  0  0  0  0  0  0  0  0  0  0
   -1.0660   -0.4018    0.8462 N   0  0  0  0  0  0  0  0  0  0  0  0
   -1.5616    0.5704    0.0510 C   0  0  0  0  0  0  0  0  0  0  0  0
   -1.9340    2.3438   -0.3406 C   0  0  0  0  0  0  0  0  0  0  0  0
   -2.3594    3.5099    0.9635 C   0  0  0  0  0  0  0  0  0  0  0  0
   -2.4951    2.9345    2.6406 C   0  0  0  0  0  0  0  0  0  0  0  0
   -2.1812    1.2319    3.0893 C   0  0  0  0  0  0  0  0  0  0  0  0
   -1.7455   -0.0726    1.8313 C   0  0  0  0  0  0  0  0  0  0  0  0
   -2.3693   -1.8515    1.6401 C   0  0  0  0  0  0  0  0  0  0  0  0
   -2.7558   -2.3023    0.1218 C   0  0  0  0  0  0  0  0  0  0  0  0
   -3.5561   -1.4284   -0.8045 C   0  0  0  0  0  0  0  0  0  0  0  0
   -4.1519   -0.2908   -0.2019 C   0  0  0  0  0  0  0  0  0  0  0  0
   -4.4589    0.9847   -0.7350 C   0  0  0  0  0  0  0  0  0  0  0  0
   -4.9295    1.6291   -1.8709 C   0  0  0  0  0  0  0  0  0  0  0  0
   -5.7778    2.7032   -1.5435 C   0  0  0  0  0  0  0  0  0  0  0  0
   -6.3580    2.6764   -0.2671 C   0  0  0  0  0  0  0  0  0  0  0  0
   -5.5640    2.2839    0.8169 C   0  0  0  0  0  0  0  0  0  0  0  0
   -4.2513    1.9792    0.3988 C   0  0  0  0  0  0  0  0  0  0  0  0
   -2.9770    1.4897    1.1861 N   0  0  0  0  0  0  0  0  0  0  0  0
   -3.6474    0.2003    0.9997 C   0  0  0  0  0  0  0  0  0  0  0  0
   -2.6657   -0.5853    1.4270 C   0  0  0  0  0  0  0  0  0  0  0  0
   -3.2417   -1.7370   -2.1599 C   0  0  0  0  0  0  0  0  0  0  0  0
   -3.4160   -1.1428   -3.2169 O   0  0  0  0  0  0  0  0  0  0  0  0
   -2.4562   -2.8851   -2.0639 N   0  0  0  0  0  0  0  0  0  0  0  0
   -2.0634   -3.3227   -0.7093 C   0  0  0  0  0  0  0  0  0  0  0  0
   -0.8191   -1.1520   -1.3574 H   0  0  0  0  0  0  0  0  0  0  0  0
    0.3840   -1.6061   -2.4857 H   0  0  0  0  0  0  0  0  0  0  0  0
    0.2129    0.0861   -1.9839 H   0  0  0  0  0  0  0  0  0  0  0  0
    2.1987   -0.7735    0.9666 H   0  0  0  0  0  0  0  0  0  0  0  0
    2.1998    1.5592    1.0420 H   0  0  0  0  0  0  0  0  0  0  0  0
    3.3672    1.3795   -2.8288 H   0  0  0  0  0  0  0  0  0  0  0  0
    1.6418    1.3560   -2.5359 H   0  0  0  0  0  0  0  0  0  0  0  0
    2.5569   -0.1760   -2.5448 H   0  0  0  0  0  0  0  0  0  0  0  0
    5.3878    0.4188   -2.7345 H   0  0  0  0  0  0  0  0  0  0  0  0
    5.3691   -1.4724   -4.3391 H   0  0  0  0  0  0  0  0  0  0  0  0
    4.6673   -3.7330   -3.5911 H   0  0  0  0  0  0  0  0  0  0  0  0
    4.2902   -4.1715   -1.1763 H   0  0  0  0  0  0  0  0  0  0  0  0
    4.2364   -2.2776    0.4181 H   0  0  0  0  0  0  0  0  0  0  0  0
    0.7379    3.1178    0.0903 H   0  0  0  0  0  0  0  0  0  0  0  0
    0.0652    2.0069   -1.0493 H   0  0  0  0  0  0  0  0  0  0  0  0
   -0.7587    2.8961    1.8535 H   0  0  0  0  0  0  0  0  0  0  0  0
    1.7367   -1.0082    3.0396 H   0  0  0  0  0  0  0  0  0  0  0  0
    0.1856   -0.7386    3.7417 H   0  0  0  0  0  0  0  0  0  0  0  0
    0.4239   -2.1554    2.6828 H   0  0  0  0  0  0  0  0  0  0  0  0
   -2.1126    2.5597   -1.4293 H   0  0  0  0  0  0  0  0  0  0  0  0
   -2.6971    4.5085    0.6977 H   0  0  0  0  0  0  0  0  0  0  0  0
   -2.8296    3.6248    3.4104 H   0  0  0  0  0  0  0  0  0  0  0  0
   -2.3664    0.8666    4.0842 H   0  0  0  0  0  0  0  0  0  0  0  0
   -4.8254    1.2650   -2.8818 H   0  0  0  0  0  0  0  0  0  0  0  0
   -5.3228    3.6804   -1.7889 H   0  0  0  0  0  0  0  0  0  0  0  0
   -7.4324    2.4762   -0.2078 H   0  0  0  0  0  0  0  0  0  0  0  0
   -6.0140    1.7798    1.6754 H   0  0  0  0  0  0  0  0  0  0  0  0
   -1.9599   -3.1613   -2.9018 H   0  0  0  0  0  0  0  0  0  0  0  0
   -0.9739   -3.2700   -0.6339 H   0  0  0  0  0  0  0  0  0  0  0  0
   -2.4338   -4.3311   -0.5525 H   0  0  0  0  0  0  0  0  0  0  0  0
  1  2  1  0  0  0  0
  1 44  1  0  0  0  0
  1 45  1  0  0  0  0
  1 46  1  0  0  0  0
  3  4  1  0  0  0  0
  3 18  1  0  0  0  0
  3  2  1  0  0  0  0
  3 47  1  1  0  0  0
  4 15  1  0  0  0  0
  4  5  1  0  0  0  0
  4 48  1  1  0  0  0
  5  6  1  0  0  0  0
  5  7  1  0  0  0  0
  6 49  1  0  0  0  0
  6 50  1  0  0  0  0
  6 51  1  0  0  0  0
  7  8  2  0  0  0  0
  7  9  1  0  0  0  0
  9 10  1  0  0  0  0
  9 14  2  0  0  0  0
 10 11  2  0  0  0  0
 10 52  1  0  0  0  0
 11 12  1  0  0  0  0
 11 53  1  0  0  0  0
 12 13  2  0  0  0  0
 12 54  1  0  0  0  0
 13 14  1  0  0  0  0
 13 55  1  0  0  0  0
 14 56  1  0  0  0  0
 15 16  1  0  0  0  0
 15 57  1  0  0  0  0
 15 58  1  0  0  0  0
 16 17  1  0  0  0  0
 16 37  1  0  0  0  0
 16 59  1  1  0  0  0
 17 18  1  0  0  0  0
 18 20  1  0  0  0  0
 18 19  1  1  0  0  0
 19 60  1  0  0  0  0
 19 61  1  0  0  0  0
 19 62  1  0  0  0  0
 20 21  1  0  0  0  0
 20 39  1  0  0  0  0
 21 22  1  0  0  0  0
 21 26  2  0  0  0  0
 22 23  2  0  0  0  0
 22 63  1  0  0  0  0
 23 24  1  0  0  0  0
 23 64  1  0  0  0  0
 24 25  2  0  0  0  0
 24 65  1  0  0  0  0
 25 26  1  0  0  0  0
 25 66  1  0  0  0  0
 26 27  1  0  0  0  0
 27 28  1  0  0  0  0
 27 39  2  0  0  0  0
 28 29  2  0  0  0  0
 28 43  1  0  0  0  0
 29 30  1  0  0  0  0
 29 40  1  0  0  0  0
 30 31  1  0  0  0  0
 30 38  2  0  0  0  0
 31 32  1  0  0  0  0
 31 36  2  0  0  0  0
 32 33  2  0  0  0  0
 32 67  1  0  0  0  0
 33 34  1  0  0  0  0
 33 68  1  0  0  0  0
 34 35  2  0  0  0  0
 34 69  1  0  0  0  0
 35 36  1  0  0  0  0
 35 70  1  0  0  0  0
 36 37  1  0  0  0  0
 37 38  1  0  0  0  0
 38 39  1  0  0  0  0
 40 42  1  0  0  0  0
 40 41  2  0  0  0  0
 42 43  1  0  0  0  0
 42 71  1  0  0  0  0
 43 72  1  0  0  0  0
 43 73  1  0  0  0  0
M  END
$$$$
