
 OpenBabel01112422373D

 42 45  0  0  0  0  0  0  0  0999 V2000
    0.9555    0.0518   -0.1901 O   0  0  0  0  0  0  0  0  0  0  0  0
    2.3225   -0.0027   -0.1484 C   0  0  0  0  0  0  0  0  0  0  0  0
    2.9681   -1.2400   -0.1668 C   0  0  0  0  0  0  0  0  0  0  0  0
    4.3777   -1.2858   -0.0965 C   0  0  0  0  0  0  0  0  0  0  0  0
    5.3153   -2.3620   -0.0918 C   0  0  0  0  0  0  0  0  0  0  0  0
    5.1800   -3.7635   -0.2200 C   0  0  0  0  0  0  0  0  0  0  0  0
    6.3031   -4.5893   -0.1117 C   0  0  0  0  0  0  0  0  0  0  0  0
    7.5342   -4.0275    0.1869 C   0  0  0  0  0  0  0  0  0  0  0  0
    8.6505   -4.8062    0.3440 O   0  0  0  0  0  0  0  0  0  0  0  0
    7.6904   -2.6454    0.3331 C   0  0  0  0  0  0  0  0  0  0  0  0
    8.9144   -2.1465    0.7023 O   0  0  0  0  0  0  0  0  0  0  0  0
    6.5826   -1.8151    0.1244 C   0  0  0  0  0  0  0  0  0  0  0  0
    6.4444   -0.4396    0.0538 N   0  0  0  0  0  0  0  0  0  0  0  0
    7.5576    0.5015   -0.1041 C   0  0  0  0  0  0  0  0  0  0  0  0
    7.9769    1.2374    1.1486 C   0  0  0  0  0  0  0  0  0  0  0  0
    7.5271    0.8896    2.4267 C   0  0  0  0  0  0  0  0  0  0  0  0
    7.7743    1.7236    3.5179 C   0  0  0  0  0  0  0  0  0  0  0  0
    8.4905    2.9161    3.3569 C   0  0  0  0  0  0  0  0  0  0  0  0
    8.5592    3.9298    4.4699 C   0  0  0  0  0  0  0  0  0  0  0  0
    7.8064    3.5973    5.5556 F   0  0  0  0  0  0  0  0  0  0  0  0
    9.8202    4.1388    4.9336 F   0  0  0  0  0  0  0  0  0  0  0  0
    8.1009    5.1521    4.0700 F   0  0  0  0  0  0  0  0  0  0  0  0
    9.0772    3.1864    2.1130 C   0  0  0  0  0  0  0  0  0  0  0  0
    8.8219    2.3543    1.0200 C   0  0  0  0  0  0  0  0  0  0  0  0
    5.1007   -0.0933   -0.0119 C   0  0  0  0  0  0  0  0  0  0  0  0
    4.4599    1.1624   -0.0189 C   0  0  0  0  0  0  0  0  0  0  0  0
    3.0517    1.1756   -0.0851 C   0  0  0  0  0  0  0  0  0  0  0  0
    2.3861    2.3714   -0.0819 O   0  0  0  0  0  0  0  0  0  0  0  0
    0.6021   -0.8495   -0.1315 H   0  0  0  0  0  0  0  0  0  0  0  0
    2.4055   -2.1659   -0.2194 H   0  0  0  0  0  0  0  0  0  0  0  0
    4.2029   -4.1973   -0.4142 H   0  0  0  0  0  0  0  0  0  0  0  0
    6.1825   -5.6600   -0.2386 H   0  0  0  0  0  0  0  0  0  0  0  0
    8.4321   -5.7049    0.0408 H   0  0  0  0  0  0  0  0  0  0  0  0
    9.4417   -2.9442    0.9117 H   0  0  0  0  0  0  0  0  0  0  0  0
    7.2097    1.2433   -0.8380 H   0  0  0  0  0  0  0  0  0  0  0  0
    8.4016   -0.0209   -0.5652 H   0  0  0  0  0  0  0  0  0  0  0  0
    6.9316   -0.0071    2.5861 H   0  0  0  0  0  0  0  0  0  0  0  0
    7.3531    1.4595    4.4869 H   0  0  0  0  0  0  0  0  0  0  0  0
    9.6888    4.0775    1.9776 H   0  0  0  0  0  0  0  0  0  0  0  0
    9.2481    2.6134    0.0515 H   0  0  0  0  0  0  0  0  0  0  0  0
    5.0283    2.0785    0.0422 H   0  0  0  0  0  0  0  0  0  0  0  0
    3.0280    3.0914   -0.0198 H   0  0  0  0  0  0  0  0  0  0  0  0
  1  2  1  0  0  0  0
  1 29  1  0  0  0  0
  2  3  1  0  0  0  0
  2 27  2  0  0  0  0
  3  4  2  0  0  0  0
  3 30  1  0  0  0  0
  4  5  1  0  0  0  0
  4 25  1  0  0  0  0
  5  6  1  0  0  0  0
  5 12  2  0  0  0  0
  6  7  2  0  0  0  0
  6 31  1  0  0  0  0
  7  8  1  0  0  0  0
  7 32  1  0  0  0  0
  8  9  1  0  0  0  0
  8 10  2  0  0  0  0
  9 33  1  0  0  0  0
 10 11  1  0  0  0  0
 10 12  1  0  0  0  0
 11 34  1  0  0  0  0
 12 13  1  0  0  0  0
 13 14  1  0  0  0  0
 13 25  1  0  0  0  0
 14 15  1  0  0  0  0
 14 35  1  0  0  0  0
 14 36  1  0  0  0  0
 15 16  1  0  0  0  0
 15 24  2  0  0  0  0
 16 17  2  0  0  0  0
 16 37  1  0  0  0  0
 17 18  1  0  0  0  0
 17 38  1  0  0  0  0
 18 19  1  0  0  0  0
 18 23  2  0  0  0  0
 19 20  1  0  0  0  0
 19 21  1  0  0  0  0
 19 22  1  0  0  0  0
 23 24  1  0  0  0  0
 23 39  1  0  0  0  0
 24 40  1  0  0  0  0
 25 26  2  0  0  0  0
 26 27  1  0  0  0  0
 26 41  1  0  0  0  0
 27 28  1  0  0  0  0
 28 42  1  0  0  0  0
M  END
$$$$
