REMARK  Name = 
REMARK  2 active torsions:
REMARK  status: ('A' for Active; 'I' for Inactive)
REMARK    1  A    between atoms: C_1  and  C_2
REMARK    2  A    between atoms: C_2  and  N_3
REMARK                            x       y       z     vdW  Elec       q    Type
REMARK                         _______ _______ _______ _____ _____    ______ ____
ROOT
ATOM      1  N   UNL     1      -3.672  -2.988  -0.558  0.00  0.00    +0.000 NA
ATOM      2  C   UNL     1      -3.301  -2.865  -1.998  0.00  0.00    +0.000 C 
ATOM      3  C   UNL     1      -1.881  -2.477  -2.573  0.00  0.00    +0.000 C 
ATOM      4  O   UNL     1      -1.480  -1.097  -2.437  0.00  0.00    +0.000 OA
ATOM      5  C   UNL     1      -0.287  -0.793  -3.220  0.00  0.00    +0.000 C 
ATOM      6  C   UNL     1       0.190   0.664  -3.010  0.00  0.00    +0.000 C 
ATOM      7  N   UNL     1       1.483   0.919  -2.379  0.00  0.00    +0.000 N 
ATOM      8  C   UNL     1       1.625   1.905  -1.432  0.00  0.00    +0.000 A 
ATOM      9  C   UNL     1       2.964   1.939  -1.029  0.00  0.00    +0.000 A 
ATOM     10  C   UNL     1       3.655   0.985  -1.788  0.00  0.00    +0.000 A 
ATOM     11  C   UNL     1       5.009   0.554  -1.794  0.00  0.00    +0.000 A 
ATOM     12  C   UNL     1       5.434  -0.382  -2.730  0.00  0.00    +0.000 A 
ATOM     13  C   UNL     1       4.536  -0.898  -3.651  0.00  0.00    +0.000 A 
ATOM     14  C   UNL     1       3.186  -0.527  -3.671  0.00  0.00    +0.000 A 
ATOM     15  C   UNL     1       2.743   0.395  -2.694  0.00  0.00    +0.000 A 
ATOM     16  C   UNL     1       3.469   2.774   0.004  0.00  0.00    +0.000 C 
ATOM     17  C   UNL     1       2.990   2.940   1.247  0.00  0.00    +0.000 C 
ATOM     18  C   UNL     1       3.861   3.902   1.949  0.00  0.00    +0.000 C 
ATOM     19  O   UNL     1       3.723   4.298   3.093  0.00  0.00    +0.000 OA
ATOM     20  N   UNL     1       4.840   4.253   1.092  0.00  0.00    +0.000 N 
ATOM     21  C   UNL     1       4.681   3.628  -0.089  0.00  0.00    +0.000 C 
ATOM     22  O   UNL     1       5.424   3.753  -1.058  0.00  0.00    +0.000 OA
ATOM     23  C   UNL     1       1.883   2.302   1.861  0.00  0.00    +0.000 A 
ATOM     24  C   UNL     1       1.775   0.943   2.024  0.00  0.00    +0.000 A 
ATOM     25  N   UNL     1       0.547   0.674   2.581  0.00  0.00    +0.000 N 
ATOM     26  C   UNL     1      -0.133   1.858   2.815  0.00  0.00    +0.000 A 
ATOM     27  C   UNL     1      -1.404   2.138   3.356  0.00  0.00    +0.000 A 
ATOM     28  C   UNL     1      -1.845   3.459   3.407  0.00  0.00    +0.000 A 
ATOM     29  C   UNL     1      -1.040   4.496   2.966  0.00  0.00    +0.000 A 
ATOM     30  C   UNL     1       0.230   4.230   2.452  0.00  0.00    +0.000 A 
ATOM     31  C   UNL     1       0.694   2.898   2.362  0.00  0.00    +0.000 A 
ATOM     32  C   UNL     1       0.097  -0.696   2.754  0.00  0.00    +0.000 C 
ATOM     33  C   UNL     1      -1.393  -0.920   2.601  0.00  0.00    +0.000 C 
ATOM     34  O   UNL     1      -1.625  -2.286   2.271  0.00  0.00    +0.000 OA
ATOM     35  C   UNL     1      -2.879  -2.442   1.618  0.00  0.00    +0.000 C 
ATOM     36  C   UNL     1      -2.688  -3.375   0.418  0.00  0.00    +0.000 C 
ATOM     37  H   UNL     1      -4.007  -2.145  -2.436  0.00  0.00    +0.000 HD
ATOM     38  H   UNL     1      -3.520  -3.835  -2.468  0.00  0.00    +0.000 HD
ATOM     39  H   UNL     1      -1.928  -2.690  -3.651  0.00  0.00    +0.000 HD
ATOM     40  H   UNL     1      -1.104  -3.123  -2.154  0.00  0.00    +0.000 HD
ATOM     41  H   UNL     1      -0.558  -0.894  -4.281  0.00  0.00    +0.000 HD
ATOM     42  H   UNL     1       0.497  -1.520  -2.994  0.00  0.00    +0.000 HD
ATOM     43  H   UNL     1      -0.555   1.182  -2.391  0.00  0.00    +0.000 HD
ATOM     44  H   UNL     1       0.235   1.195  -3.969  0.00  0.00    +0.000 HD
ATOM     45  H   UNL     1       0.792   2.474  -1.091  0.00  0.00    +0.000 HD
ATOM     46  H   UNL     1       5.717   0.991  -1.105  0.00  0.00    +0.000 HD
ATOM     47  H   UNL     1       6.480  -0.679  -2.731  0.00  0.00    +0.000 HD
ATOM     48  H   UNL     1       4.901  -1.601  -4.395  0.00  0.00    +0.000 HD
ATOM     49  H   UNL     1       2.504  -0.951  -4.407  0.00  0.00    +0.000 HD
ATOM     50  H   UNL     1       5.601   4.881   1.303  0.00  0.00    +0.000 HD
ATOM     51  H   UNL     1       2.444   0.136   1.750  0.00  0.00    +0.000 HD
ATOM     52  H   UNL     1      -2.064   1.361   3.720  0.00  0.00    +0.000 HD
ATOM     53  H   UNL     1      -2.839   3.679   3.800  0.00  0.00    +0.000 HD
ATOM     54  H   UNL     1      -1.392   5.523   3.023  0.00  0.00    +0.000 HD
ATOM     55  H   UNL     1       0.864   5.050   2.130  0.00  0.00    +0.000 HD
ATOM     56  H   UNL     1       0.459  -1.047   3.723  0.00  0.00    +0.000 HD
ATOM     57  H   UNL     1       0.611  -1.295   1.988  0.00  0.00    +0.000 HD
ATOM     58  H   UNL     1      -1.776  -0.265   1.808  0.00  0.00    +0.000 HD
ATOM     59  H   UNL     1      -1.920  -0.716   3.536  0.00  0.00    +0.000 HD
ATOM     60  H   UNL     1      -3.273  -1.472   1.273  0.00  0.00    +0.000 HD
ATOM     61  H   UNL     1      -3.610  -2.834   2.331  0.00  0.00    +0.000 HD
ATOM     62  H   UNL     1      -2.802  -4.420   0.725  0.00  0.00    +0.000 HD
ATOM     63  H   UNL     1      -1.666  -3.273   0.039  0.00  0.00    +0.000 HD
ENDROOT
BRANCH   1  64
ATOM     64  C   UNL     1      -5.019  -3.550  -0.361  0.00  0.00    +0.000 C 
ATOM     65  H   UNL     1      -5.086  -4.362  -1.085  0.00  0.00    +0.000 HD
ATOM     66  H   UNL     1      -5.649  -2.682  -0.548  0.00  0.00    +0.000 HD
BRANCH  64  67
ATOM     67  C   UNL     1      -5.752  -4.191   0.834  0.00  0.00    +0.000 C 
ATOM     68  H   UNL     1      -5.553  -5.265   0.930  0.00  0.00    +0.000 HD
ATOM     69  H   UNL     1      -6.831  -4.129   0.600  0.00  0.00    +0.000 HD
ATOM     70  H   UNL     1      -5.617  -3.692   1.793  0.00  0.00    +0.000 HD
ENDBRANCH  64  67
ENDBRANCH   1  64
TORSDOF 2
