MODEL 1
REMARK VINA RESULT:   -10.541      0.000      0.000
REMARK INTER + INTRA:         -11.317
REMARK INTER:                 -11.157
REMARK INTRA:                  -0.160
REMARK UNBOUND:                -0.160
REMARK  Name = 
REMARK  1 active torsions:
REMARK  status: ('A' for Active; 'I' for Inactive)
REMARK    1  A    between atoms: C_6  and  C_7
REMARK                            x       y       z     vdW  Elec       q    Type
REMARK                         _______ _______ _______ _____ _____    ______ ____
ROOT
ATOM      1  C   UNL     1      -9.255  -9.334  16.049  0.00  0.00    +0.000 A 
ATOM      2  C   UNL     1      -9.014  -9.108  14.702  0.00  0.00    +0.000 A 
ATOM      3  N   UNL     1      -8.610 -10.286  14.129  0.00  0.00    +0.000 N 
ATOM      4  C   UNL     1      -8.593 -11.289  15.071  0.00  0.00    +0.000 A 
ATOM      5  C   UNL     1      -8.250 -12.642  14.933  0.00  0.00    +0.000 A 
ATOM      6  C   UNL     1      -8.321 -13.447  16.073  0.00  0.00    +0.000 A 
ATOM      7  C   UNL     1      -8.721 -12.913  17.295  0.00  0.00    +0.000 A 
ATOM      8 BR   UNL     1      -8.820 -14.037  18.814  0.00  0.00    +0.000 Br
ATOM      9  C   UNL     1      -9.055 -11.560  17.421  0.00  0.00    +0.000 A 
ATOM     10  C   UNL     1      -8.988 -10.724  16.285  0.00  0.00    +0.000 A 
ATOM     11  H   UNL     1      -9.071  -8.210  14.103  0.00  0.00    +0.000 HD
ATOM     12  H   UNL     1      -8.366 -10.409  13.159  0.00  0.00    +0.000 HD
ATOM     13  H   UNL     1      -7.939 -13.055  13.979  0.00  0.00    +0.000 HD
ATOM     14  H   UNL     1      -8.066 -14.499  15.993  0.00  0.00    +0.000 HD
ATOM     15  H   UNL     1      -9.361 -11.149  18.377  0.00  0.00    +0.000 HD
ENDROOT
BRANCH   1  21
ATOM     16  N   UNL     1     -12.055  -5.671  16.996  0.00  0.00    +0.000 N 
ATOM     17  C   UNL     1     -11.037  -6.498  17.395  0.00  0.00    +0.000 A 
ATOM     18  N   UNL     1     -10.581  -6.346  18.642  0.00  0.00    +0.000 NA
ATOM     19  C   UNL     1      -9.640  -7.216  19.048  0.00  0.00    +0.000 A 
ATOM     20  C   UNL     1      -9.146  -8.220  18.256  0.00  0.00    +0.000 A 
ATOM     21  C   UNL     1      -9.667  -8.287  16.981  0.00  0.00    +0.000 A 
ATOM     22  N   UNL     1     -10.601  -7.421  16.532  0.00  0.00    +0.000 NA
ATOM     23  H   UNL     1     -12.172  -4.853  17.575  0.00  0.00    +0.000 HD
ATOM     24  H   UNL     1     -12.197  -5.626  16.000  0.00  0.00    +0.000 HD
ATOM     25  H   UNL     1      -9.295  -7.083  20.068  0.00  0.00    +0.000 HD
ATOM     26  H   UNL     1      -8.394  -8.906  18.623  0.00  0.00    +0.000 HD
ENDBRANCH   1  21
TORSDOF 1
ENDMDL
MODEL 2
REMARK VINA RESULT:   -10.062      1.940      2.848
REMARK INTER + INTRA:         -10.810
REMARK INTER:                 -10.529
REMARK INTRA:                  -0.280
REMARK UNBOUND:                -0.160
REMARK  Name = 
REMARK  1 active torsions:
REMARK  status: ('A' for Active; 'I' for Inactive)
REMARK    1  A    between atoms: C_6  and  C_7
REMARK                            x       y       z     vdW  Elec       q    Type
REMARK                         _______ _______ _______ _____ _____    ______ ____
ROOT
ATOM      1  C   UNL     1      -9.037  -9.174  18.006  0.00  0.00    +0.000 A 
ATOM      2  C   UNL     1      -8.826  -9.104  19.375  0.00  0.00    +0.000 A 
ATOM      3  N   UNL     1      -8.534 -10.363  19.834  0.00  0.00    +0.000 N 
ATOM      4  C   UNL     1      -8.535 -11.260  18.791  0.00  0.00    +0.000 A 
ATOM      5  C   UNL     1      -8.288 -12.640  18.796  0.00  0.00    +0.000 A 
ATOM      6  C   UNL     1      -8.358 -13.314  17.574  0.00  0.00    +0.000 A 
ATOM      7  C   UNL     1      -8.660 -12.628  16.401  0.00  0.00    +0.000 A 
ATOM      8 BR   UNL     1      -8.732 -13.572  14.762  0.00  0.00    +0.000 Br
ATOM      9  C   UNL     1      -8.910 -11.252  16.410  0.00  0.00    +0.000 A 
ATOM     10  C   UNL     1      -8.850 -10.546  17.632  0.00  0.00    +0.000 A 
ATOM     11  H   UNL     1      -8.880  -8.277  20.069  0.00  0.00    +0.000 HD
ATOM     12  H   UNL     1      -8.340 -10.602  20.793  0.00  0.00    +0.000 HD
ATOM     13  H   UNL     1      -8.052 -13.171  19.712  0.00  0.00    +0.000 HD
ATOM     14  H   UNL     1      -8.166 -14.382  17.548  0.00  0.00    +0.000 HD
ATOM     15  H   UNL     1      -9.150 -10.723  15.493  0.00  0.00    +0.000 HD
ENDROOT
BRANCH   1  21
ATOM     16  N   UNL     1     -12.158  -5.799  16.991  0.00  0.00    +0.000 N 
ATOM     17  C   UNL     1     -10.960  -6.406  16.714  0.00  0.00    +0.000 A 
ATOM     18  N   UNL     1     -10.184  -5.830  15.790  0.00  0.00    +0.000 NA
ATOM     19  C   UNL     1      -8.978  -6.387  15.586  0.00  0.00    +0.000 A 
ATOM     20  C   UNL     1      -8.530  -7.490  16.266  0.00  0.00    +0.000 A 
ATOM     21  C   UNL     1      -9.406  -8.022  17.187  0.00  0.00    +0.000 A 
ATOM     22  N   UNL     1     -10.632  -7.500  17.408  0.00  0.00    +0.000 NA
ATOM     23  H   UNL     1     -12.461  -5.145  16.286  0.00  0.00    +0.000 HD
ATOM     24  H   UNL     1     -12.821  -6.378  17.481  0.00  0.00    +0.000 HD
ATOM     25  H   UNL     1      -8.360  -5.894  14.843  0.00  0.00    +0.000 HD
ATOM     26  H   UNL     1      -7.548  -7.904  16.078  0.00  0.00    +0.000 HD
ENDBRANCH   1  21
TORSDOF 1
ENDMDL
MODEL 3
REMARK VINA RESULT:    -9.541      2.036      3.109
REMARK INTER + INTRA:         -10.258
REMARK INTER:                  -9.968
REMARK INTRA:                  -0.290
REMARK UNBOUND:                -0.160
REMARK  Name = 
REMARK  1 active torsions:
REMARK  status: ('A' for Active; 'I' for Inactive)
REMARK    1  A    between atoms: C_6  and  C_7
REMARK                            x       y       z     vdW  Elec       q    Type
REMARK                         _______ _______ _______ _____ _____    ______ ____
ROOT
ATOM      1  C   UNL     1      -9.286  -8.874  18.334  0.00  0.00    +0.000 A 
ATOM      2  C   UNL     1      -8.998  -8.852  19.690  0.00  0.00    +0.000 A 
ATOM      3  N   UNL     1      -8.549 -10.094  20.058  0.00  0.00    +0.000 N 
ATOM      4  C   UNL     1      -8.523 -10.931  18.967  0.00  0.00    +0.000 A 
ATOM      5  C   UNL     1      -8.136 -12.276  18.878  0.00  0.00    +0.000 A 
ATOM      6  C   UNL     1      -8.213 -12.890  17.625  0.00  0.00    +0.000 A 
ATOM      7  C   UNL     1      -8.659 -12.181  16.513  0.00  0.00    +0.000 A 
ATOM      8 BR   UNL     1      -8.736 -13.041  14.830  0.00  0.00    +0.000 Br
ATOM      9  C   UNL     1      -9.048 -10.841  16.616  0.00  0.00    +0.000 A 
ATOM     10  C   UNL     1      -8.983 -10.197  17.871  0.00  0.00    +0.000 A 
ATOM     11  H   UNL     1      -9.092  -8.072  20.432  0.00  0.00    +0.000 HD
ATOM     12  H   UNL     1      -8.270 -10.360  20.989  0.00  0.00    +0.000 HD
ATOM     13  H   UNL     1      -7.788 -12.826  19.747  0.00  0.00    +0.000 HD
ATOM     14  H   UNL     1      -7.915 -13.929  17.527  0.00  0.00    +0.000 HD
ATOM     15  H   UNL     1      -9.399 -10.294  15.747  0.00  0.00    +0.000 HD
ENDROOT
BRANCH   1  21
ATOM     16  N   UNL     1      -8.775  -5.693  14.901  0.00  0.00    +0.000 N 
ATOM     17  C   UNL     1      -9.528  -6.186  15.936  0.00  0.00    +0.000 A 
ATOM     18  N   UNL     1     -10.736  -5.644  16.124  0.00  0.00    +0.000 NA
ATOM     19  C   UNL     1     -11.495  -6.190  17.089  0.00  0.00    +0.000 A 
ATOM     20  C   UNL     1     -11.090  -7.246  17.863  0.00  0.00    +0.000 A 
ATOM     21  C   UNL     1      -9.824  -7.726  17.605  0.00  0.00    +0.000 A 
ATOM     22  N   UNL     1      -9.025  -7.194  16.656  0.00  0.00    +0.000 NA
ATOM     23  H   UNL     1      -9.082  -4.795  14.560  0.00  0.00    +0.000 HD
ATOM     24  H   UNL     1      -7.796  -5.925  14.942  0.00  0.00    +0.000 HD
ATOM     25  H   UNL     1     -12.477  -5.745  17.213  0.00  0.00    +0.000 HD
ATOM     26  H   UNL     1     -11.736  -7.663  18.625  0.00  0.00    +0.000 HD
ENDBRANCH   1  21
TORSDOF 1
ENDMDL
MODEL 4
REMARK VINA RESULT:    -9.479      2.161      3.228
REMARK INTER + INTRA:         -10.192
REMARK INTER:                  -9.967
REMARK INTRA:                  -0.226
REMARK UNBOUND:                -0.160
REMARK  Name = 
REMARK  1 active torsions:
REMARK  status: ('A' for Active; 'I' for Inactive)
REMARK    1  A    between atoms: C_6  and  C_7
REMARK                            x       y       z     vdW  Elec       q    Type
REMARK                         _______ _______ _______ _____ _____    ______ ____
ROOT
ATOM      1  C   UNL     1      -9.009  -8.516  19.163  0.00  0.00    +0.000 A 
ATOM      2  C   UNL     1      -8.764  -8.903  20.472  0.00  0.00    +0.000 A 
ATOM      3  N   UNL     1      -8.499 -10.249  20.483  0.00  0.00    +0.000 N 
ATOM      4  C   UNL     1      -8.552 -10.753  19.204  0.00  0.00    +0.000 A 
ATOM      5  C   UNL     1      -8.348 -12.064  18.749  0.00  0.00    +0.000 A 
ATOM      6  C   UNL     1      -8.467 -12.297  17.376  0.00  0.00    +0.000 A 
ATOM      7  C   UNL     1      -8.777 -11.258  16.504  0.00  0.00    +0.000 A 
ATOM      8 BR   UNL     1      -8.916 -11.609  14.649  0.00  0.00    +0.000 Br
ATOM      9  C   UNL     1      -8.984  -9.956  16.972  0.00  0.00    +0.000 A 
ATOM     10  C   UNL     1      -8.873  -9.693  18.355  0.00  0.00    +0.000 A 
ATOM     11  H   UNL     1      -8.776  -8.349  21.400  0.00  0.00    +0.000 HD
ATOM     12  H   UNL     1      -8.289 -10.794  21.304  0.00  0.00    +0.000 HD
ATOM     13  H   UNL     1      -8.106 -12.871  19.432  0.00  0.00    +0.000 HD
ATOM     14  H   UNL     1      -8.309 -13.302  16.996  0.00  0.00    +0.000 HD
ATOM     15  H   UNL     1      -9.230  -9.150  16.287  0.00  0.00    +0.000 HD
ENDROOT
BRANCH   1  21
ATOM     16  N   UNL     1     -12.009  -5.595  17.011  0.00  0.00    +0.000 N 
ATOM     17  C   UNL     1     -10.839  -5.766  17.706  0.00  0.00    +0.000 A 
ATOM     18  N   UNL     1     -10.176  -4.663  18.065  0.00  0.00    +0.000 NA
ATOM     19  C   UNL     1      -9.075  -4.841  18.816  0.00  0.00    +0.000 A 
ATOM     20  C   UNL     1      -8.621  -6.072  19.212  0.00  0.00    +0.000 A 
ATOM     21  C   UNL     1      -9.363  -7.151  18.780  0.00  0.00    +0.000 A 
ATOM     22  N   UNL     1     -10.464  -7.013  18.011  0.00  0.00    +0.000 NA
ATOM     23  H   UNL     1     -12.113  -4.680  16.600  0.00  0.00    +0.000 HD
ATOM     24  H   UNL     1     -12.342  -6.418  16.536  0.00  0.00    +0.000 HD
ATOM     25  H   UNL     1      -8.561  -3.931  19.108  0.00  0.00    +0.000 HD
ATOM     26  H   UNL     1      -7.734  -6.173  19.823  0.00  0.00    +0.000 HD
ENDBRANCH   1  21
TORSDOF 1
ENDMDL
MODEL 5
REMARK VINA RESULT:    -9.412      2.785      5.658
REMARK INTER + INTRA:         -10.122
REMARK INTER:                 -10.147
REMARK INTRA:                   0.025
REMARK UNBOUND:                -0.160
REMARK  Name = 
REMARK  1 active torsions:
REMARK  status: ('A' for Active; 'I' for Inactive)
REMARK    1  A    between atoms: C_6  and  C_7
REMARK                            x       y       z     vdW  Elec       q    Type
REMARK                         _______ _______ _______ _____ _____    ______ ____
ROOT
ATOM      1  C   UNL     1      -8.831 -10.978  15.509  0.00  0.00    +0.000 A 
ATOM      2  C   UNL     1      -8.898 -10.446  14.230  0.00  0.00    +0.000 A 
ATOM      3  N   UNL     1      -9.003  -9.083  14.332  0.00  0.00    +0.000 N 
ATOM      4  C   UNL     1      -8.993  -8.704  15.655  0.00  0.00    +0.000 A 
ATOM      5  C   UNL     1      -9.076  -7.424  16.221  0.00  0.00    +0.000 A 
ATOM      6  C   UNL     1      -9.043  -7.330  17.615  0.00  0.00    +0.000 A 
ATOM      7  C   UNL     1      -8.932  -8.473  18.401  0.00  0.00    +0.000 A 
ATOM      8 BR   UNL     1      -8.877  -8.306  20.285  0.00  0.00    +0.000 Br
ATOM      9  C   UNL     1      -8.857  -9.746  17.824  0.00  0.00    +0.000 A 
ATOM     10  C   UNL     1      -8.891  -9.869  16.417  0.00  0.00    +0.000 A 
ATOM     11  H   UNL     1      -8.904 -10.915  13.256  0.00  0.00    +0.000 HD
ATOM     12  H   UNL     1      -9.071  -8.444  13.556  0.00  0.00    +0.000 HD
ATOM     13  H   UNL     1      -9.162  -6.535  15.605  0.00  0.00    +0.000 HD
ATOM     14  H   UNL     1      -9.101  -6.350  18.079  0.00  0.00    +0.000 HD
ATOM     15  H   UNL     1      -8.775 -10.634  18.442  0.00  0.00    +0.000 HD
ENDROOT
BRANCH   1  21
ATOM     16  N   UNL     1      -8.729 -14.466  18.668  0.00  0.00    +0.000 N 
ATOM     17  C   UNL     1      -8.685 -14.077  17.353  0.00  0.00    +0.000 A 
ATOM     18  N   UNL     1      -8.679 -15.045  16.431  0.00  0.00    +0.000 NA
ATOM     19  C   UNL     1      -8.719 -14.650  15.147  0.00  0.00    +0.000 A 
ATOM     20  C   UNL     1      -8.763 -13.336  14.760  0.00  0.00    +0.000 A 
ATOM     21  C   UNL     1      -8.750 -12.411  15.783  0.00  0.00    +0.000 A 
ATOM     22  N   UNL     1      -8.693 -12.768  17.084  0.00  0.00    +0.000 NA
ATOM     23  H   UNL     1      -8.473 -15.430  18.820  0.00  0.00    +0.000 HD
ATOM     24  H   UNL     1      -8.472 -13.751  19.329  0.00  0.00    +0.000 HD
ATOM     25  H   UNL     1      -8.729 -15.452  14.416  0.00  0.00    +0.000 HD
ATOM     26  H   UNL     1      -8.803 -13.059  13.715  0.00  0.00    +0.000 HD
ENDBRANCH   1  21
TORSDOF 1
ENDMDL
MODEL 6
REMARK VINA RESULT:    -9.378      2.931      5.763
REMARK INTER + INTRA:         -10.086
REMARK INTER:                  -9.798
REMARK INTRA:                  -0.288
REMARK UNBOUND:                -0.160
REMARK  Name = 
REMARK  1 active torsions:
REMARK  status: ('A' for Active; 'I' for Inactive)
REMARK    1  A    between atoms: C_6  and  C_7
REMARK                            x       y       z     vdW  Elec       q    Type
REMARK                         _______ _______ _______ _____ _____    ______ ____
ROOT
ATOM      1  C   UNL     1      -9.907  -9.262  16.586  0.00  0.00    +0.000 A 
ATOM      2  C   UNL     1     -11.091  -8.960  15.932  0.00  0.00    +0.000 A 
ATOM      3  N   UNL     1     -11.404  -7.649  16.182  0.00  0.00    +0.000 N 
ATOM      4  C   UNL     1     -10.440  -7.076  16.979  0.00  0.00    +0.000 A 
ATOM      5  C   UNL     1     -10.350  -5.768  17.478  0.00  0.00    +0.000 A 
ATOM      6  C   UNL     1      -9.247  -5.455  18.276  0.00  0.00    +0.000 A 
ATOM      7  C   UNL     1      -8.279  -6.414  18.558  0.00  0.00    +0.000 A 
ATOM      8 BR   UNL     1      -6.791  -5.950  19.631  0.00  0.00    +0.000 Br
ATOM      9  C   UNL     1      -8.383  -7.718  18.060  0.00  0.00    +0.000 A 
ATOM     10  C   UNL     1      -9.490  -8.062  17.253  0.00  0.00    +0.000 A 
ATOM     11  H   UNL     1     -11.753  -9.565  15.328  0.00  0.00    +0.000 HD
ATOM     12  H   UNL     1     -12.216  -7.166  15.832  0.00  0.00    +0.000 HD
ATOM     13  H   UNL     1     -11.106  -5.023  17.255  0.00  0.00    +0.000 HD
ATOM     14  H   UNL     1      -9.150  -4.448  18.671  0.00  0.00    +0.000 HD
ATOM     15  H   UNL     1      -7.627  -8.463  18.286  0.00  0.00    +0.000 HD
ENDROOT
BRANCH   1  21
ATOM     16  N   UNL     1      -8.829 -13.222  18.891  0.00  0.00    +0.000 N 
ATOM     17  C   UNL     1      -8.771 -12.491  17.733  0.00  0.00    +0.000 A 
ATOM     18  N   UNL     1      -8.250 -13.092  16.658  0.00  0.00    +0.000 NA
ATOM     19  C   UNL     1      -8.274 -12.393  15.510  0.00  0.00    +0.000 A 
ATOM     20  C   UNL     1      -8.792 -11.128  15.404  0.00  0.00    +0.000 A 
ATOM     21  C   UNL     1      -9.291 -10.587  16.569  0.00  0.00    +0.000 A 
ATOM     22  N   UNL     1      -9.271 -11.251  17.745  0.00  0.00    +0.000 NA
ATOM     23  H   UNL     1      -8.229 -14.033  18.896  0.00  0.00    +0.000 HD
ATOM     24  H   UNL     1      -8.975 -12.680  19.727  0.00  0.00    +0.000 HD
ATOM     25  H   UNL     1      -7.861 -12.905  14.647  0.00  0.00    +0.000 HD
ATOM     26  H   UNL     1      -8.799 -10.602  14.458  0.00  0.00    +0.000 HD
ENDBRANCH   1  21
TORSDOF 1
ENDMDL
MODEL 7
REMARK VINA RESULT:    -9.235      2.868      3.958
REMARK INTER + INTRA:          -9.935
REMARK INTER:                  -9.786
REMARK INTRA:                  -0.149
REMARK UNBOUND:                -0.160
REMARK  Name = 
REMARK  1 active torsions:
REMARK  status: ('A' for Active; 'I' for Inactive)
REMARK    1  A    between atoms: C_6  and  C_7
REMARK                            x       y       z     vdW  Elec       q    Type
REMARK                         _______ _______ _______ _____ _____    ______ ____
ROOT
ATOM      1  C   UNL     1      -8.750  -8.446  19.189  0.00  0.00    +0.000 A 
ATOM      2  C   UNL     1      -8.524  -9.225  20.314  0.00  0.00    +0.000 A 
ATOM      3  N   UNL     1      -8.542 -10.544  19.938  0.00  0.00    +0.000 N 
ATOM      4  C   UNL     1      -8.762 -10.649  18.584  0.00  0.00    +0.000 A 
ATOM      5  C   UNL     1      -8.854 -11.792  17.777  0.00  0.00    +0.000 A 
ATOM      6  C   UNL     1      -9.088 -11.603  16.412  0.00  0.00    +0.000 A 
ATOM      7  C   UNL     1      -9.221 -10.321  15.886  0.00  0.00    +0.000 A 
ATOM      8 BR   UNL     1      -9.522 -10.103  14.030  0.00  0.00    +0.000 Br
ATOM      9  C   UNL     1      -9.132  -9.189  16.703  0.00  0.00    +0.000 A 
ATOM     10  C   UNL     1      -8.900  -9.351  18.086  0.00  0.00    +0.000 A 
ATOM     11  H   UNL     1      -8.375  -8.963  21.352  0.00  0.00    +0.000 HD
ATOM     12  H   UNL     1      -8.408 -11.328  20.557  0.00  0.00    +0.000 HD
ATOM     13  H   UNL     1      -8.750 -12.789  18.191  0.00  0.00    +0.000 HD
ATOM     14  H   UNL     1      -9.159 -12.470  15.764  0.00  0.00    +0.000 HD
ATOM     15  H   UNL     1      -9.241  -8.192  16.288  0.00  0.00    +0.000 HD
ENDROOT
BRANCH   1  21
ATOM     16  N   UNL     1      -7.003  -4.353  20.724  0.00  0.00    +0.000 N 
ATOM     17  C   UNL     1      -7.963  -5.019  20.006  0.00  0.00    +0.000 A 
ATOM     18  N   UNL     1      -8.831  -4.276  19.311  0.00  0.00    +0.000 NA
ATOM     19  C   UNL     1      -9.714  -4.941  18.548  0.00  0.00    +0.000 A 
ATOM     20  C   UNL     1      -9.759  -6.308  18.459  0.00  0.00    +0.000 A 
ATOM     21  C   UNL     1      -8.834  -6.988  19.223  0.00  0.00    +0.000 A 
ATOM     22  N   UNL     1      -7.942  -6.356  20.015  0.00  0.00    +0.000 NA
ATOM     23  H   UNL     1      -7.210  -3.379  20.883  0.00  0.00    +0.000 HD
ATOM     24  H   UNL     1      -6.542  -4.906  21.427  0.00  0.00    +0.000 HD
ATOM     25  H   UNL     1     -10.399  -4.318  17.981  0.00  0.00    +0.000 HD
ATOM     26  H   UNL     1     -10.481  -6.806  17.825  0.00  0.00    +0.000 HD
ENDBRANCH   1  21
TORSDOF 1
ENDMDL
MODEL 8
REMARK VINA RESULT:    -9.190      3.346      6.258
REMARK INTER + INTRA:          -9.886
REMARK INTER:                  -9.844
REMARK INTRA:                  -0.043
REMARK UNBOUND:                -0.160
REMARK  Name = 
REMARK  1 active torsions:
REMARK  status: ('A' for Active; 'I' for Inactive)
REMARK    1  A    between atoms: C_6  and  C_7
REMARK                            x       y       z     vdW  Elec       q    Type
REMARK                         _______ _______ _______ _____ _____    ______ ____
ROOT
ATOM      1  C   UNL     1      -8.661 -10.879  18.039  0.00  0.00    +0.000 A 
ATOM      2  C   UNL     1      -8.276 -11.218  19.327  0.00  0.00    +0.000 A 
ATOM      3  N   UNL     1      -8.387 -10.104  20.120  0.00  0.00    +0.000 N 
ATOM      4  C   UNL     1      -8.851  -9.040  19.380  0.00  0.00    +0.000 A 
ATOM      5  C   UNL     1      -9.115  -7.721  19.776  0.00  0.00    +0.000 A 
ATOM      6  C   UNL     1      -9.585  -6.836  18.802  0.00  0.00    +0.000 A 
ATOM      7  C   UNL     1      -9.781  -7.260  17.492  0.00  0.00    +0.000 A 
ATOM      8 BR   UNL     1     -10.432  -6.037  16.203  0.00  0.00    +0.000 Br
ATOM      9  C   UNL     1      -9.508  -8.578  17.108  0.00  0.00    +0.000 A 
ATOM     10  C   UNL     1      -9.029  -9.493  18.071  0.00  0.00    +0.000 A 
ATOM     11  H   UNL     1      -7.911 -12.144  19.748  0.00  0.00    +0.000 HD
ATOM     12  H   UNL     1      -8.169 -10.064  21.103  0.00  0.00    +0.000 HD
ATOM     13  H   UNL     1      -8.961  -7.394  20.799  0.00  0.00    +0.000 HD
ATOM     14  H   UNL     1      -9.802  -5.810  19.083  0.00  0.00    +0.000 HD
ATOM     15  H   UNL     1      -9.659  -8.903  16.083  0.00  0.00    +0.000 HD
ENDROOT
BRANCH   1  21
ATOM     16  N   UNL     1      -8.891 -15.325  16.507  0.00  0.00    +0.000 N 
ATOM     17  C   UNL     1      -8.733 -13.994  16.216  0.00  0.00    +0.000 A 
ATOM     18  N   UNL     1      -8.674 -13.656  14.924  0.00  0.00    +0.000 NA
ATOM     19  C   UNL     1      -8.601 -12.342  14.650  0.00  0.00    +0.000 A 
ATOM     20  C   UNL     1      -8.585 -11.368  15.614  0.00  0.00    +0.000 A 
ATOM     21  C   UNL     1      -8.634 -11.816  16.917  0.00  0.00    +0.000 A 
ATOM     22  N   UNL     1      -8.690 -13.127  17.233  0.00  0.00    +0.000 NA
ATOM     23  H   UNL     1      -8.670 -15.943  15.742  0.00  0.00    +0.000 HD
ATOM     24  H   UNL     1      -8.673 -15.578  17.457  0.00  0.00    +0.000 HD
ATOM     25  H   UNL     1      -8.570 -12.090  13.595  0.00  0.00    +0.000 HD
ATOM     26  H   UNL     1      -8.534 -10.320  15.352  0.00  0.00    +0.000 HD
ENDBRANCH   1  21
TORSDOF 1
ENDMDL
MODEL 9
REMARK VINA RESULT:    -9.062      2.637      3.796
REMARK INTER + INTRA:          -9.752
REMARK INTER:                  -9.457
REMARK INTRA:                  -0.294
REMARK UNBOUND:                -0.160
REMARK  Name = 
REMARK  1 active torsions:
REMARK  status: ('A' for Active; 'I' for Inactive)
REMARK    1  A    between atoms: C_6  and  C_7
REMARK                            x       y       z     vdW  Elec       q    Type
REMARK                         _______ _______ _______ _____ _____    ______ ____
ROOT
ATOM      1  C   UNL     1      -8.958  -6.882  17.564  0.00  0.00    +0.000 A 
ATOM      2  C   UNL     1      -9.669  -6.257  16.552  0.00  0.00    +0.000 A 
ATOM      3  N   UNL     1     -10.247  -7.222  15.768  0.00  0.00    +0.000 N 
ATOM      4  C   UNL     1      -9.942  -8.472  16.253  0.00  0.00    +0.000 A 
ATOM      5  C   UNL     1     -10.317  -9.736  15.774  0.00  0.00    +0.000 A 
ATOM      6  C   UNL     1      -9.855 -10.855  16.471  0.00  0.00    +0.000 A 
ATOM      7  C   UNL     1      -9.054 -10.708  17.600  0.00  0.00    +0.000 A 
ATOM      8 BR   UNL     1      -8.459 -12.246  18.527  0.00  0.00    +0.000 Br
ATOM      9  C   UNL     1      -8.682  -9.442  18.064  0.00  0.00    +0.000 A 
ATOM     10  C   UNL     1      -9.132  -8.293  17.376  0.00  0.00    +0.000 A 
ATOM     11  H   UNL     1      -9.798  -5.213  16.303  0.00  0.00    +0.000 HD
ATOM     12  H   UNL     1     -10.820  -7.048  14.957  0.00  0.00    +0.000 HD
ATOM     13  H   UNL     1     -10.942  -9.847  14.894  0.00  0.00    +0.000 HD
ATOM     14  H   UNL     1     -10.135 -11.845  16.125  0.00  0.00    +0.000 HD
ATOM     15  H   UNL     1      -8.053  -9.333  18.943  0.00  0.00    +0.000 HD
ENDROOT
BRANCH   1  21
ATOM     16  N   UNL     1      -4.774  -5.322  19.054  0.00  0.00    +0.000 N 
ATOM     17  C   UNL     1      -6.124  -5.433  19.267  0.00  0.00    +0.000 A 
ATOM     18  N   UNL     1      -6.630  -4.783  20.320  0.00  0.00    +0.000 NA
ATOM     19  C   UNL     1      -7.965  -4.833  20.471  0.00  0.00    +0.000 A 
ATOM     20  C   UNL     1      -8.798  -5.507  19.615  0.00  0.00    +0.000 A 
ATOM     21  C   UNL     1      -8.181  -6.159  18.569  0.00  0.00    +0.000 A 
ATOM     22  N   UNL     1      -6.843  -6.146  18.394  0.00  0.00    +0.000 NA
ATOM     23  H   UNL     1      -4.256  -4.996  19.855  0.00  0.00    +0.000 HD
ATOM     24  H   UNL     1      -4.386  -6.013  18.432  0.00  0.00    +0.000 HD
ATOM     25  H   UNL     1      -8.356  -4.286  21.322  0.00  0.00    +0.000 HD
ATOM     26  H   UNL     1      -9.870  -5.516  19.767  0.00  0.00    +0.000 HD
ENDBRANCH   1  21
TORSDOF 1
ENDMDL
