MODEL 1
REMARK VINA RESULT:    -8.464      0.000      0.000
REMARK INTER + INTRA:          -9.207
REMARK INTER:                  -9.207
REMARK INTRA:                   0.000
REMARK UNBOUND:                 0.000
REMARK  Name = 
REMARK  3 active torsions:
REMARK  status: ('A' for Active; 'I' for Inactive)
REMARK    1  A    between atoms: C_1  and  C_2
REMARK    2  A    between atoms: N_7  and  C_8
REMARK    3  A    between atoms: N_20  and  C_21
REMARK                            x       y       z     vdW  Elec       q    Type
REMARK                         _______ _______ _______ _____ _____    ______ ____
ROOT
ATOM      1  C   UNL     1      -9.183  -8.487  14.710  0.00  0.00    +0.000 A 
ATOM      2  C   UNL     1      -8.882  -7.174  14.351  0.00  0.00    +0.000 A 
ATOM      3  C   UNL     1      -9.214  -6.168  15.241  0.00  0.00    +0.000 A 
ATOM      4  C   UNL     1      -9.420  -4.800  14.969  0.00  0.00    +0.000 A 
ATOM      5  C   UNL     1     -10.360  -4.461  15.894  0.00  0.00    +0.000 A 
ATOM      6  N   UNL     1     -10.023  -5.218  17.008  0.00  0.00    +0.000 N 
ATOM      7  C   UNL     1      -9.528  -6.458  16.588  0.00  0.00    +0.000 A 
ATOM      8  C   UNL     1      -9.271  -7.804  17.081  0.00  0.00    +0.000 A 
ATOM      9  C   UNL     1      -9.123  -8.216  18.425  0.00  0.00    +0.000 A 
ATOM     10  C   UNL     1      -8.961  -9.562  18.884  0.00  0.00    +0.000 A 
ATOM     11  C   UNL     1      -8.957 -10.578  17.899  0.00  0.00    +0.000 A 
ATOM     12  C   UNL     1      -8.718 -11.933  18.193  0.00  0.00    +0.000 A 
ATOM     13  C   UNL     1      -8.455 -12.783  19.297  0.00  0.00    +0.000 A 
ATOM     14  C   UNL     1      -8.259 -14.163  19.129  0.00  0.00    +0.000 A 
ATOM     15  C   UNL     1      -8.332 -14.737  17.875  0.00  0.00    +0.000 A 
ATOM     16  C   UNL     1      -8.586 -13.934  16.769  0.00  0.00    +0.000 A 
ATOM     17  C   UNL     1      -8.760 -12.538  16.933  0.00  0.00    +0.000 A 
ATOM     18  N   UNL     1      -8.968 -11.544  15.981  0.00  0.00    +0.000 N 
ATOM     19  C   UNL     1      -9.077 -10.262  16.560  0.00  0.00    +0.000 A 
ATOM     20  C   UNL     1      -9.189  -8.877  16.081  0.00  0.00    +0.000 A 
ATOM     21  C   UNL     1      -8.797  -9.567  20.313  0.00  0.00    +0.000 C 
ATOM     22  O   UNL     1      -8.505 -10.398  21.169  0.00  0.00    +0.000 OA
ATOM     23  N   UNL     1      -8.990  -8.273  20.648  0.00  0.00    +0.000 N 
ATOM     24  C   UNL     1      -8.919  -7.395  19.602  0.00  0.00    +0.000 C 
ATOM     25  O   UNL     1      -8.602  -6.231  19.783  0.00  0.00    +0.000 OA
ATOM     26  H   UNL     1      -8.743  -6.896  13.309  0.00  0.00    +0.000 HD
ATOM     27  H   UNL     1      -9.192  -4.265  14.059  0.00  0.00    +0.000 HD
ATOM     28  H   UNL     1     -11.043  -3.622  15.947  0.00  0.00    +0.000 HD
ATOM     29  H   UNL     1      -8.380 -12.407  20.308  0.00  0.00    +0.000 HD
ATOM     30  H   UNL     1      -8.045 -14.789  19.993  0.00  0.00    +0.000 HD
ATOM     31  H   UNL     1      -8.187 -15.806  17.747  0.00  0.00    +0.000 HD
ATOM     32  H   UNL     1      -8.632 -14.415  15.794  0.00  0.00    +0.000 HD
ATOM     33  H   UNL     1      -8.752  -7.959  21.572  0.00  0.00    +0.000 HD
ENDROOT
BRANCH   1  34
ATOM     34  C   UNL     1      -9.616  -9.282  13.515  0.00  0.00    +0.000 C 
ATOM     35  H   UNL     1      -9.519  -8.689  12.594  0.00  0.00    +0.000 HD
ATOM     36  H   UNL     1     -10.685  -9.481  13.563  0.00  0.00    +0.000 HD
ATOM     37  H   UNL     1      -8.990 -10.158  13.359  0.00  0.00    +0.000 HD
ENDBRANCH   1  34
BRANCH   6  38
ATOM     38  C   UNL     1     -10.048  -4.490  18.254  0.00  0.00    +0.000 C 
ATOM     39  H   UNL     1     -10.423  -3.484  18.148  0.00  0.00    +0.000 HD
ATOM     40  H   UNL     1      -9.017  -4.406  18.630  0.00  0.00    +0.000 HD
ATOM     41  H   UNL     1     -10.598  -5.116  18.965  0.00  0.00    +0.000 HD
ENDBRANCH   6  38
BRANCH  18  42
ATOM     42  C   UNL     1      -9.029 -11.905  14.586  0.00  0.00    +0.000 C 
ATOM     43  H   UNL     1      -9.866 -11.435  14.073  0.00  0.00    +0.000 HD
ATOM     44  H   UNL     1      -9.203 -12.976  14.520  0.00  0.00    +0.000 HD
ATOM     45  H   UNL     1      -8.139 -11.528  14.088  0.00  0.00    +0.000 HD
ENDBRANCH  18  42
TORSDOF 3
ENDMDL
MODEL 2
REMARK VINA RESULT:    -8.340      4.667      8.253
REMARK INTER + INTRA:          -9.071
REMARK INTER:                  -9.071
REMARK INTRA:                   0.000
REMARK UNBOUND:                 0.000
REMARK  Name = 
REMARK  3 active torsions:
REMARK  status: ('A' for Active; 'I' for Inactive)
REMARK    1  A    between atoms: C_1  and  C_2
REMARK    2  A    between atoms: N_7  and  C_8
REMARK    3  A    between atoms: N_20  and  C_21
REMARK                            x       y       z     vdW  Elec       q    Type
REMARK                         _______ _______ _______ _____ _____    ______ ____
ROOT
ATOM      1  C   UNL     1      -7.534  -3.288  22.461  0.00  0.00    +0.000 A 
ATOM      2  C   UNL     1      -7.858  -2.743  23.702  0.00  0.00    +0.000 A 
ATOM      3  C   UNL     1      -8.576  -1.560  23.721  0.00  0.00    +0.000 A 
ATOM      4  C   UNL     1      -8.654  -0.607  24.757  0.00  0.00    +0.000 A 
ATOM      5  C   UNL     1      -8.812   0.556  24.067  0.00  0.00    +0.000 A 
ATOM      6  N   UNL     1      -9.595   0.198  22.978  0.00  0.00    +0.000 N 
ATOM      7  C   UNL     1      -9.247  -1.094  22.567  0.00  0.00    +0.000 A 
ATOM      8  C   UNL     1      -9.364  -1.994  21.428  0.00  0.00    +0.000 A 
ATOM      9  C   UNL     1     -10.293  -1.921  20.364  0.00  0.00    +0.000 A 
ATOM     10  C   UNL     1     -10.324  -2.767  19.211  0.00  0.00    +0.000 A 
ATOM     11  C   UNL     1      -9.326  -3.768  19.122  0.00  0.00    +0.000 A 
ATOM     12  C   UNL     1      -9.288  -4.727  18.094  0.00  0.00    +0.000 A 
ATOM     13  C   UNL     1      -9.991  -5.100  16.920  0.00  0.00    +0.000 A 
ATOM     14  C   UNL     1      -9.589  -6.200  16.144  0.00  0.00    +0.000 A 
ATOM     15  C   UNL     1      -8.481  -6.944  16.500  0.00  0.00    +0.000 A 
ATOM     16  C   UNL     1      -7.770  -6.609  17.646  0.00  0.00    +0.000 A 
ATOM     17  C   UNL     1      -8.187  -5.515  18.443  0.00  0.00    +0.000 A 
ATOM     18  N   UNL     1      -7.671  -5.033  19.643  0.00  0.00    +0.000 N 
ATOM     19  C   UNL     1      -8.392  -3.920  20.127  0.00  0.00    +0.000 A 
ATOM     20  C   UNL     1      -8.389  -3.089  21.339  0.00  0.00    +0.000 A 
ATOM     21  C   UNL     1     -11.444  -2.409  18.381  0.00  0.00    +0.000 C 
ATOM     22  O   UNL     1     -11.993  -2.872  17.385  0.00  0.00    +0.000 OA
ATOM     23  N   UNL     1     -11.940  -1.313  18.995  0.00  0.00    +0.000 N 
ATOM     24  C   UNL     1     -11.501  -1.126  20.277  0.00  0.00    +0.000 C 
ATOM     25  O   UNL     1     -12.176  -0.511  21.085  0.00  0.00    +0.000 OA
ATOM     26  H   UNL     1      -7.288  -2.997  24.592  0.00  0.00    +0.000 HD
ATOM     27  H   UNL     1      -8.312  -0.708  25.775  0.00  0.00    +0.000 HD
ATOM     28  H   UNL     1      -8.661   1.588  24.359  0.00  0.00    +0.000 HD
ATOM     29  H   UNL     1     -10.868  -4.568  16.579  0.00  0.00    +0.000 HD
ATOM     30  H   UNL     1     -10.155  -6.472  15.256  0.00  0.00    +0.000 HD
ATOM     31  H   UNL     1      -8.167  -7.791  15.895  0.00  0.00    +0.000 HD
ATOM     32  H   UNL     1      -6.905  -7.218  17.902  0.00  0.00    +0.000 HD
ATOM     33  H   UNL     1     -12.842  -0.960  18.726  0.00  0.00    +0.000 HD
ENDROOT
BRANCH   1  34
ATOM     34  C   UNL     1      -6.173  -3.918  22.494  0.00  0.00    +0.000 C 
ATOM     35  H   UNL     1      -6.098  -4.728  21.755  0.00  0.00    +0.000 HD
ATOM     36  H   UNL     1      -6.023  -4.438  23.439  0.00  0.00    +0.000 HD
ATOM     37  H   UNL     1      -5.389  -3.212  22.227  0.00  0.00    +0.000 HD
ENDBRANCH   1  34
BRANCH   6  38
ATOM     38  C   UNL     1     -10.680   1.107  22.698  0.00  0.00    +0.000 C 
ATOM     39  H   UNL     1     -11.007   1.657  23.567  0.00  0.00    +0.000 HD
ATOM     40  H   UNL     1     -11.544   0.523  22.349  0.00  0.00    +0.000 HD
ATOM     41  H   UNL     1     -10.352   1.727  21.856  0.00  0.00    +0.000 HD
ENDBRANCH   6  38
BRANCH  18  42
ATOM     42  C   UNL     1      -6.535  -5.692  20.237  0.00  0.00    +0.000 C 
ATOM     43  H   UNL     1      -5.653  -5.652  19.599  0.00  0.00    +0.000 HD
ATOM     44  H   UNL     1      -6.774  -6.747  20.347  0.00  0.00    +0.000 HD
ATOM     45  H   UNL     1      -6.256  -5.161  21.144  0.00  0.00    +0.000 HD
ENDBRANCH  18  42
TORSDOF 3
ENDMDL
MODEL 3
REMARK VINA RESULT:    -8.337      4.151      8.709
REMARK INTER + INTRA:          -9.068
REMARK INTER:                  -9.068
REMARK INTRA:                   0.000
REMARK UNBOUND:                 0.000
REMARK  Name = 
REMARK  3 active torsions:
REMARK  status: ('A' for Active; 'I' for Inactive)
REMARK    1  A    between atoms: C_1  and  C_2
REMARK    2  A    between atoms: N_7  and  C_8
REMARK    3  A    between atoms: N_20  and  C_21
REMARK                            x       y       z     vdW  Elec       q    Type
REMARK                         _______ _______ _______ _____ _____    ______ ____
ROOT
ATOM      1  C   UNL     1     -11.375  -2.724  18.066  0.00  0.00    +0.000 A 
ATOM      2  C   UNL     1     -11.861  -3.821  17.357  0.00  0.00    +0.000 A 
ATOM      3  C   UNL     1     -10.963  -4.814  17.007  0.00  0.00    +0.000 A 
ATOM      4  C   UNL     1     -11.076  -5.762  15.970  0.00  0.00    +0.000 A 
ATOM      5  C   UNL     1      -9.778  -5.945  15.603  0.00  0.00    +0.000 A 
ATOM      6  N   UNL     1      -9.075  -5.850  16.797  0.00  0.00    +0.000 N 
ATOM      7  C   UNL     1      -9.691  -4.897  17.617  0.00  0.00    +0.000 A 
ATOM      8  C   UNL     1      -9.431  -4.066  18.784  0.00  0.00    +0.000 A 
ATOM      9  C   UNL     1      -8.436  -4.252  19.771  0.00  0.00    +0.000 A 
ATOM     10  C   UNL     1      -8.147  -3.366  20.857  0.00  0.00    +0.000 A 
ATOM     11  C   UNL     1      -8.925  -2.187  20.948  0.00  0.00    +0.000 A 
ATOM     12  C   UNL     1      -8.814  -1.272  22.010  0.00  0.00    +0.000 A 
ATOM     13  C   UNL     1      -8.074  -1.064  23.202  0.00  0.00    +0.000 A 
ATOM     14  C   UNL     1      -8.308   0.050  24.024  0.00  0.00    +0.000 A 
ATOM     15  C   UNL     1      -9.262   0.989  23.683  0.00  0.00    +0.000 A 
ATOM     16  C   UNL     1     -10.007   0.816  22.523  0.00  0.00    +0.000 A 
ATOM     17  C   UNL     1      -9.791  -0.319  21.705  0.00  0.00    +0.000 A 
ATOM     18  N   UNL     1     -10.444  -0.723  20.543  0.00  0.00    +0.000 N 
ATOM     19  C   UNL     1      -9.931  -1.937  20.036  0.00  0.00    +0.000 A 
ATOM     20  C   UNL     1     -10.267  -2.869  18.951  0.00  0.00    +0.000 A 
ATOM     21  C   UNL     1      -7.099  -3.926  21.669  0.00  0.00    +0.000 C 
ATOM     22  O   UNL     1      -6.576  -3.660  22.748  0.00  0.00    +0.000 OA
ATOM     23  N   UNL     1      -6.733  -5.027  20.979  0.00  0.00    +0.000 N 
ATOM     24  C   UNL     1      -7.626  -5.426  20.022  0.00  0.00    +0.000 C 
ATOM     25  O   UNL     1      -7.686  -6.593  19.672  0.00  0.00    +0.000 OA
ATOM     26  H   UNL     1     -12.783  -3.755  16.785  0.00  0.00    +0.000 HD
ATOM     27  H   UNL     1     -11.949  -5.994  15.378  0.00  0.00    +0.000 HD
ATOM     28  H   UNL     1      -9.338  -6.356  14.702  0.00  0.00    +0.000 HD
ATOM     29  H   UNL     1      -7.313  -1.756  23.536  0.00  0.00    +0.000 HD
ATOM     30  H   UNL     1      -7.735   0.177  24.940  0.00  0.00    +0.000 HD
ATOM     31  H   UNL     1      -9.436   1.854  24.317  0.00  0.00    +0.000 HD
ATOM     32  H   UNL     1     -10.755   1.570  22.285  0.00  0.00    +0.000 HD
ATOM     33  H   UNL     1      -6.138  -5.710  21.414  0.00  0.00    +0.000 HD
ENDROOT
BRANCH   1  34
ATOM     34  C   UNL     1     -12.065  -1.464  17.638  0.00  0.00    +0.000 C 
ATOM     35  H   UNL     1     -11.404  -0.594  17.760  0.00  0.00    +0.000 HD
ATOM     36  H   UNL     1     -12.888  -1.238  18.314  0.00  0.00    +0.000 HD
ATOM     37  H   UNL     1     -12.327  -1.479  16.582  0.00  0.00    +0.000 HD
ENDBRANCH   1  34
BRANCH   6  38
ATOM     38  C   UNL     1      -8.071  -6.870  16.982  0.00  0.00    +0.000 C 
ATOM     39  H   UNL     1      -7.269  -6.809  16.263  0.00  0.00    +0.000 HD
ATOM     40  H   UNL     1      -8.544  -7.854  16.846  0.00  0.00    +0.000 HD
ATOM     41  H   UNL     1      -7.759  -6.807  18.030  0.00  0.00    +0.000 HD
ENDBRANCH   6  38
BRANCH  18  42
ATOM     42  C   UNL     1     -11.521   0.081  20.024  0.00  0.00    +0.000 C 
ATOM     43  H   UNL     1     -12.332  -0.523  19.621  0.00  0.00    +0.000 HD
ATOM     44  H   UNL     1     -11.139   0.661  19.187  0.00  0.00    +0.000 HD
ATOM     45  H   UNL     1     -11.963   0.645  20.842  0.00  0.00    +0.000 HD
ENDBRANCH  18  42
TORSDOF 3
ENDMDL
MODEL 4
REMARK VINA RESULT:    -8.039      2.205      4.266
REMARK INTER + INTRA:          -8.744
REMARK INTER:                  -8.744
REMARK INTRA:                   0.000
REMARK UNBOUND:                 0.000
REMARK  Name = 
REMARK  3 active torsions:
REMARK  status: ('A' for Active; 'I' for Inactive)
REMARK    1  A    between atoms: C_1  and  C_2
REMARK    2  A    between atoms: N_7  and  C_8
REMARK    3  A    between atoms: N_20  and  C_21
REMARK                            x       y       z     vdW  Elec       q    Type
REMARK                         _______ _______ _______ _____ _____    ______ ____
ROOT
ATOM      1  C   UNL     1      -8.546  -9.579  20.005  0.00  0.00    +0.000 A 
ATOM      2  C   UNL     1      -8.992  -8.420  20.637  0.00  0.00    +0.000 A 
ATOM      3  C   UNL     1      -8.866  -7.223  19.956  0.00  0.00    +0.000 A 
ATOM      4  C   UNL     1      -8.824  -5.918  20.490  0.00  0.00    +0.000 A 
ATOM      5  C   UNL     1      -8.010  -5.273  19.610  0.00  0.00    +0.000 A 
ATOM      6  N   UNL     1      -8.326  -5.839  18.382  0.00  0.00    +0.000 N 
ATOM      7  C   UNL     1      -8.618  -7.197  18.565  0.00  0.00    +0.000 A 
ATOM      8  C   UNL     1      -8.730  -8.443  17.821  0.00  0.00    +0.000 A 
ATOM      9  C   UNL     1      -8.923  -8.604  16.430  0.00  0.00    +0.000 A 
ATOM     10  C   UNL     1      -8.938  -9.844  15.716  0.00  0.00    +0.000 A 
ATOM     11  C   UNL     1      -8.732 -11.022  16.473  0.00  0.00    +0.000 A 
ATOM     12  C   UNL     1      -8.810 -12.314  15.921  0.00  0.00    +0.000 A 
ATOM     13  C   UNL     1      -9.040 -12.961  14.681  0.00  0.00    +0.000 A 
ATOM     14  C   UNL     1      -9.036 -14.362  14.575  0.00  0.00    +0.000 A 
ATOM     15  C   UNL     1      -8.792 -15.151  15.681  0.00  0.00    +0.000 A 
ATOM     16  C   UNL     1      -8.565 -14.550  16.914  0.00  0.00    +0.000 A 
ATOM     17  C   UNL     1      -8.592 -13.139  17.029  0.00  0.00    +0.000 A 
ATOM     18  N   UNL     1      -8.447 -12.330  18.152  0.00  0.00    +0.000 N 
ATOM     19  C   UNL     1      -8.554 -10.957  17.841  0.00  0.00    +0.000 A 
ATOM     20  C   UNL     1      -8.592  -9.691  18.585  0.00  0.00    +0.000 A 
ATOM     21  C   UNL     1      -9.208  -9.594  14.324  0.00  0.00    +0.000 C 
ATOM     22  O   UNL     1      -9.450 -10.277  13.333  0.00  0.00    +0.000 OA
ATOM     23  N   UNL     1      -9.215  -8.246  14.251  0.00  0.00    +0.000 N 
ATOM     24  C   UNL     1      -9.323  -7.608  15.456  0.00  0.00    +0.000 C 
ATOM     25  O   UNL     1      -9.806  -6.490  15.530  0.00  0.00    +0.000 OA
ATOM     26  H   UNL     1      -9.087  -8.373  21.720  0.00  0.00    +0.000 HD
ATOM     27  H   UNL     1      -9.052  -5.610  21.499  0.00  0.00    +0.000 HD
ATOM     28  H   UNL     1      -7.451  -4.349  19.695  0.00  0.00    +0.000 HD
ATOM     29  H   UNL     1      -9.240 -12.411  13.772  0.00  0.00    +0.000 HD
ATOM     30  H   UNL     1      -9.230 -14.832  13.613  0.00  0.00    +0.000 HD
ATOM     31  H   UNL     1      -8.784 -16.234  15.596  0.00  0.00    +0.000 HD
ATOM     32  H   UNL     1      -8.382 -15.200  17.768  0.00  0.00    +0.000 HD
ATOM     33  H   UNL     1      -9.562  -7.796  13.422  0.00  0.00    +0.000 HD
ENDROOT
BRANCH   1  34
ATOM     34  C   UNL     1      -7.922 -10.520  20.993  0.00  0.00    +0.000 C 
ATOM     35  H   UNL     1      -7.234 -11.215  20.491  0.00  0.00    +0.000 HD
ATOM     36  H   UNL     1      -8.679 -11.185  21.407  0.00  0.00    +0.000 HD
ATOM     37  H   UNL     1      -7.316  -9.997  21.729  0.00  0.00    +0.000 HD
ENDBRANCH   1  34
BRANCH   6  38
ATOM     38  C   UNL     1      -8.493  -4.888  17.311  0.00  0.00    +0.000 C 
ATOM     39  H   UNL     1      -9.486  -4.465  17.271  0.00  0.00    +0.000 HD
ATOM     40  H   UNL     1      -8.332  -5.407  16.354  0.00  0.00    +0.000 HD
ATOM     41  H   UNL     1      -7.684  -4.157  17.419  0.00  0.00    +0.000 HD
ENDBRANCH   6  38
BRANCH  18  42
ATOM     42  C   UNL     1      -8.233 -12.942  19.440  0.00  0.00    +0.000 C 
ATOM     43  H   UNL     1      -8.626 -13.957  19.485  0.00  0.00    +0.000 HD
ATOM     44  H   UNL     1      -8.790 -12.375  20.182  0.00  0.00    +0.000 HD
ATOM     45  H   UNL     1      -7.163 -13.041  19.608  0.00  0.00    +0.000 HD
ENDBRANCH  18  42
TORSDOF 3
ENDMDL
MODEL 5
REMARK VINA RESULT:    -7.822      5.085     10.367
REMARK INTER + INTRA:          -8.508
REMARK INTER:                  -8.508
REMARK INTRA:                   0.000
REMARK UNBOUND:                 0.000
REMARK  Name = 
REMARK  3 active torsions:
REMARK  status: ('A' for Active; 'I' for Inactive)
REMARK    1  A    between atoms: C_1  and  C_2
REMARK    2  A    between atoms: N_7  and  C_8
REMARK    3  A    between atoms: N_20  and  C_21
REMARK                            x       y       z     vdW  Elec       q    Type
REMARK                         _______ _______ _______ _____ _____    ______ ____
ROOT
ATOM      1  C   UNL     1      -7.663  -3.475  21.749  0.00  0.00    +0.000 A 
ATOM      2  C   UNL     1      -6.889  -4.390  21.038  0.00  0.00    +0.000 A 
ATOM      3  C   UNL     1      -7.471  -5.023  19.954  0.00  0.00    +0.000 A 
ATOM      4  C   UNL     1      -7.098  -6.246  19.358  0.00  0.00    +0.000 A 
ATOM      5  C   UNL     1      -8.293  -6.730  18.921  0.00  0.00    +0.000 A 
ATOM      6  N   UNL     1      -8.989  -5.596  18.522  0.00  0.00    +0.000 N 
ATOM      7  C   UNL     1      -8.664  -4.534  19.376  0.00  0.00    +0.000 A 
ATOM      8  C   UNL     1      -9.144  -3.224  19.790  0.00  0.00    +0.000 A 
ATOM      9  C   UNL     1     -10.041  -2.376  19.101  0.00  0.00    +0.000 A 
ATOM     10  C   UNL     1     -10.565  -1.133  19.578  0.00  0.00    +0.000 A 
ATOM     11  C   UNL     1     -10.152  -0.715  20.866  0.00  0.00    +0.000 A 
ATOM     12  C   UNL     1     -10.513   0.525  21.425  0.00  0.00    +0.000 A 
ATOM     13  C   UNL     1     -11.276   1.681  21.121  0.00  0.00    +0.000 A 
ATOM     14  C   UNL     1     -11.364   2.756  22.020  0.00  0.00    +0.000 A 
ATOM     15  C   UNL     1     -10.717   2.710  23.239  0.00  0.00    +0.000 A 
ATOM     16  C   UNL     1      -9.958   1.594  23.568  0.00  0.00    +0.000 A 
ATOM     17  C   UNL     1      -9.847   0.518  22.654  0.00  0.00    +0.000 A 
ATOM     18  N   UNL     1      -9.112  -0.661  22.744  0.00  0.00    +0.000 N 
ATOM     19  C   UNL     1      -9.262  -1.474  21.600  0.00  0.00    +0.000 A 
ATOM     20  C   UNL     1      -8.680  -2.724  21.092  0.00  0.00    +0.000 A 
ATOM     21  C   UNL     1     -11.408  -0.547  18.569  0.00  0.00    +0.000 C 
ATOM     22  O   UNL     1     -11.979   0.528  18.407  0.00  0.00    +0.000 OA
ATOM     23  N   UNL     1     -11.450  -1.501  17.614  0.00  0.00    +0.000 N 
ATOM     24  C   UNL     1     -10.484  -2.464  17.724  0.00  0.00    +0.000 C 
ATOM     25  O   UNL     1     -10.098  -3.076  16.743  0.00  0.00    +0.000 OA
ATOM     26  H   UNL     1      -6.026  -4.869  21.494  0.00  0.00    +0.000 HD
ATOM     27  H   UNL     1      -6.198  -6.817  19.529  0.00  0.00    +0.000 HD
ATOM     28  H   UNL     1      -8.602  -7.728  18.639  0.00  0.00    +0.000 HD
ATOM     29  H   UNL     1     -11.808   1.790  20.187  0.00  0.00    +0.000 HD
ATOM     30  H   UNL     1     -11.946   3.637  21.754  0.00  0.00    +0.000 HD
ATOM     31  H   UNL     1     -10.792   3.541  23.935  0.00  0.00    +0.000 HD
ATOM     32  H   UNL     1      -9.455   1.591  24.534  0.00  0.00    +0.000 HD
ATOM     33  H   UNL     1     -11.825  -1.280  16.708  0.00  0.00    +0.000 HD
ENDROOT
BRANCH   1  34
ATOM     34  C   UNL     1      -7.360  -3.547  23.216  0.00  0.00    +0.000 C 
ATOM     35  H   UNL     1      -8.105  -2.985  23.798  0.00  0.00    +0.000 HD
ATOM     36  H   UNL     1      -6.434  -3.017  23.435  0.00  0.00    +0.000 HD
ATOM     37  H   UNL     1      -7.409  -4.566  23.594  0.00  0.00    +0.000 HD
ENDBRANCH   1  34
BRANCH   6  38
ATOM     38  C   UNL     1      -9.661  -5.723  17.252  0.00  0.00    +0.000 C 
ATOM     39  H   UNL     1      -9.240  -5.092  16.485  0.00  0.00    +0.000 HD
ATOM     40  H   UNL     1     -10.709  -5.412  17.379  0.00  0.00    +0.000 HD
ATOM     41  H   UNL     1      -9.672  -6.793  17.016  0.00  0.00    +0.000 HD
ENDBRANCH   6  38
BRANCH  18  42
ATOM     42  C   UNL     1      -8.309  -0.904  23.916  0.00  0.00    +0.000 C 
ATOM     43  H   UNL     1      -7.251  -0.718  23.739  0.00  0.00    +0.000 HD
ATOM     44  H   UNL     1      -8.387  -1.959  24.169  0.00  0.00    +0.000 HD
ATOM     45  H   UNL     1      -8.598  -0.197  24.691  0.00  0.00    +0.000 HD
ENDBRANCH  18  42
TORSDOF 3
ENDMDL
MODEL 6
REMARK VINA RESULT:    -7.805      6.603     10.264
REMARK INTER + INTRA:          -8.489
REMARK INTER:                  -8.489
REMARK INTRA:                   0.000
REMARK UNBOUND:                 0.000
REMARK  Name = 
REMARK  3 active torsions:
REMARK  status: ('A' for Active; 'I' for Inactive)
REMARK    1  A    between atoms: C_1  and  C_2
REMARK    2  A    between atoms: N_7  and  C_8
REMARK    3  A    between atoms: N_20  and  C_21
REMARK                            x       y       z     vdW  Elec       q    Type
REMARK                         _______ _______ _______ _____ _____    ______ ____
ROOT
ATOM      1  C   UNL     1     -10.500   0.530  22.596  0.00  0.00    +0.000 A 
ATOM      2  C   UNL     1      -9.741   0.758  23.742  0.00  0.00    +0.000 A 
ATOM      3  C   UNL     1      -9.224  -0.340  24.405  0.00  0.00    +0.000 A 
ATOM      4  C   UNL     1      -8.819  -0.432  25.752  0.00  0.00    +0.000 A 
ATOM      5  C   UNL     1      -9.106  -1.728  26.052  0.00  0.00    +0.000 A 
ATOM      6  N   UNL     1      -8.829  -2.414  24.878  0.00  0.00    +0.000 N 
ATOM      7  C   UNL     1      -9.170  -1.609  23.784  0.00  0.00    +0.000 A 
ATOM      8  C   UNL     1      -9.449  -1.691  22.357  0.00  0.00    +0.000 A 
ATOM      9  C   UNL     1      -9.081  -2.723  21.464  0.00  0.00    +0.000 A 
ATOM     10  C   UNL     1      -9.450  -2.818  20.085  0.00  0.00    +0.000 A 
ATOM     11  C   UNL     1     -10.268  -1.786  19.567  0.00  0.00    +0.000 A 
ATOM     12  C   UNL     1     -10.632  -1.701  18.211  0.00  0.00    +0.000 A 
ATOM     13  C   UNL     1     -10.462  -2.396  16.987  0.00  0.00    +0.000 A 
ATOM     14  C   UNL     1     -11.029  -1.925  15.792  0.00  0.00    +0.000 A 
ATOM     15  C   UNL     1     -11.785  -0.769  15.779  0.00  0.00    +0.000 A 
ATOM     16  C   UNL     1     -11.970  -0.060  16.960  0.00  0.00    +0.000 A 
ATOM     17  C   UNL     1     -11.380  -0.520  18.162  0.00  0.00    +0.000 A 
ATOM     18  N   UNL     1     -11.384   0.044  19.435  0.00  0.00    +0.000 N 
ATOM     19  C   UNL     1     -10.657  -0.730  20.366  0.00  0.00    +0.000 A 
ATOM     20  C   UNL     1     -10.237  -0.599  21.768  0.00  0.00    +0.000 A 
ATOM     21  C   UNL     1      -8.842  -3.986  19.504  0.00  0.00    +0.000 C 
ATOM     22  O   UNL     1      -8.723  -4.455  18.375  0.00  0.00    +0.000 OA
ATOM     23  N   UNL     1      -8.259  -4.587  20.564  0.00  0.00    +0.000 N 
ATOM     24  C   UNL     1      -8.126  -3.793  21.670  0.00  0.00    +0.000 C 
ATOM     25  O   UNL     1      -7.245  -4.002  22.487  0.00  0.00    +0.000 OA
ATOM     26  H   UNL     1      -9.841   1.682  24.306  0.00  0.00    +0.000 HD
ATOM     27  H   UNL     1      -8.679   0.374  26.456  0.00  0.00    +0.000 HD
ATOM     28  H   UNL     1      -9.234  -2.233  27.002  0.00  0.00    +0.000 HD
ATOM     29  H   UNL     1      -9.883  -3.306  16.917  0.00  0.00    +0.000 HD
ATOM     30  H   UNL     1     -10.871  -2.471  14.865  0.00  0.00    +0.000 HD
ATOM     31  H   UNL     1     -12.229  -0.409  14.855  0.00  0.00    +0.000 HD
ATOM     32  H   UNL     1     -12.566   0.850  16.916  0.00  0.00    +0.000 HD
ATOM     33  H   UNL     1      -7.606  -5.336  20.413  0.00  0.00    +0.000 HD
ENDROOT
BRANCH   1  34
ATOM     34  C   UNL     1     -11.634   1.507  22.503  0.00  0.00    +0.000 C 
ATOM     35  H   UNL     1     -11.258   2.534  22.388  0.00  0.00    +0.000 HD
ATOM     36  H   UNL     1     -12.170   1.551  23.450  0.00  0.00    +0.000 HD
ATOM     37  H   UNL     1     -12.257   1.329  21.629  0.00  0.00    +0.000 HD
ENDBRANCH   1  34
BRANCH   6  38
ATOM     38  C   UNL     1      -8.080  -3.634  25.061  0.00  0.00    +0.000 C 
ATOM     39  H   UNL     1      -7.499  -3.908  24.193  0.00  0.00    +0.000 HD
ATOM     40  H   UNL     1      -8.789  -4.456  25.239  0.00  0.00    +0.000 HD
ATOM     41  H   UNL     1      -7.502  -3.505  25.982  0.00  0.00    +0.000 HD
ENDBRANCH   6  38
BRANCH  18  42
ATOM     42  C   UNL     1     -12.073   1.292  19.651  0.00  0.00    +0.000 C 
ATOM     43  H   UNL     1     -11.415   2.152  19.539  0.00  0.00    +0.000 HD
ATOM     44  H   UNL     1     -12.420   1.314  20.681  0.00  0.00    +0.000 HD
ATOM     45  H   UNL     1     -12.833   1.410  18.882  0.00  0.00    +0.000 HD
ENDBRANCH  18  42
TORSDOF 3
ENDMDL
MODEL 7
REMARK VINA RESULT:    -7.797      4.060      8.403
REMARK INTER + INTRA:          -8.481
REMARK INTER:                  -8.481
REMARK INTRA:                   0.000
REMARK UNBOUND:                 0.000
REMARK  Name = 
REMARK  3 active torsions:
REMARK  status: ('A' for Active; 'I' for Inactive)
REMARK    1  A    between atoms: C_1  and  C_2
REMARK    2  A    between atoms: N_7  and  C_8
REMARK    3  A    between atoms: N_20  and  C_21
REMARK                            x       y       z     vdW  Elec       q    Type
REMARK                         _______ _______ _______ _____ _____    ______ ____
ROOT
ATOM      1  C   UNL     1      -6.973  -5.582  19.230  0.00  0.00    +0.000 A 
ATOM      2  C   UNL     1      -6.812  -6.233  18.008  0.00  0.00    +0.000 A 
ATOM      3  C   UNL     1      -7.951  -6.551  17.290  0.00  0.00    +0.000 A 
ATOM      4  C   UNL     1      -8.105  -7.542  16.299  0.00  0.00    +0.000 A 
ATOM      5  C   UNL     1      -9.403  -7.920  16.468  0.00  0.00    +0.000 A 
ATOM      6  N   UNL     1     -10.053  -6.743  16.813  0.00  0.00    +0.000 N 
ATOM      7  C   UNL     1      -9.197  -5.957  17.595  0.00  0.00    +0.000 A 
ATOM      8  C   UNL     1      -9.216  -4.833  18.520  0.00  0.00    +0.000 A 
ATOM      9  C   UNL     1     -10.226  -3.854  18.667  0.00  0.00    +0.000 A 
ATOM     10  C   UNL     1     -10.258  -2.815  19.650  0.00  0.00    +0.000 A 
ATOM     11  C   UNL     1      -9.181  -2.766  20.568  0.00  0.00    +0.000 A 
ATOM     12  C   UNL     1      -9.034  -1.748  21.528  0.00  0.00    +0.000 A 
ATOM     13  C   UNL     1      -9.688  -0.579  21.991  0.00  0.00    +0.000 A 
ATOM     14  C   UNL     1      -9.155   0.195  23.034  0.00  0.00    +0.000 A 
ATOM     15  C   UNL     1      -7.976  -0.174  23.652  0.00  0.00    +0.000 A 
ATOM     16  C   UNL     1      -7.306  -1.313  23.222  0.00  0.00    +0.000 A 
ATOM     17  C   UNL     1      -7.829  -2.082  22.154  0.00  0.00    +0.000 A 
ATOM     18  N   UNL     1      -7.313  -3.214  21.528  0.00  0.00    +0.000 N 
ATOM     19  C   UNL     1      -8.143  -3.673  20.483  0.00  0.00    +0.000 A 
ATOM     20  C   UNL     1      -8.079  -4.709  19.443  0.00  0.00    +0.000 A 
ATOM     21  C   UNL     1     -11.422  -1.994  19.445  0.00  0.00    +0.000 C 
ATOM     22  O   UNL     1     -11.852  -0.937  19.897  0.00  0.00    +0.000 OA
ATOM     23  N   UNL     1     -12.080  -2.639  18.457  0.00  0.00    +0.000 N 
ATOM     24  C   UNL     1     -11.332  -3.562  17.779  0.00  0.00    +0.000 C 
ATOM     25  O   UNL     1     -11.600  -3.858  16.627  0.00  0.00    +0.000 OA
ATOM     26  H   UNL     1      -5.907  -6.794  17.786  0.00  0.00    +0.000 HD
ATOM     27  H   UNL     1      -7.331  -8.109  15.805  0.00  0.00    +0.000 HD
ATOM     28  H   UNL     1      -9.938  -8.807  16.154  0.00  0.00    +0.000 HD
ATOM     29  H   UNL     1     -10.613  -0.226  21.556  0.00  0.00    +0.000 HD
ATOM     30  H   UNL     1      -9.671   1.095  23.360  0.00  0.00    +0.000 HD
ATOM     31  H   UNL     1      -7.567   0.422  24.463  0.00  0.00    +0.000 HD
ATOM     32  H   UNL     1      -6.376  -1.574  23.725  0.00  0.00    +0.000 HD
ATOM     33  H   UNL     1     -12.843  -2.182  17.989  0.00  0.00    +0.000 HD
ENDROOT
BRANCH   1  34
ATOM     34  C   UNL     1      -5.958  -6.057  20.226  0.00  0.00    +0.000 C 
ATOM     35  H   UNL     1      -6.215  -7.058  20.601  0.00  0.00    +0.000 HD
ATOM     36  H   UNL     1      -5.999  -5.444  21.125  0.00  0.00    +0.000 HD
ATOM     37  H   UNL     1      -4.969  -6.161  19.784  0.00  0.00    +0.000 HD
ENDBRANCH   1  34
BRANCH   6  38
ATOM     38  C   UNL     1     -11.302  -6.526  16.124  0.00  0.00    +0.000 C 
ATOM     39  H   UNL     1     -12.060  -6.084  16.752  0.00  0.00    +0.000 HD
ATOM     40  H   UNL     1     -11.692  -7.500  15.793  0.00  0.00    +0.000 HD
ATOM     41  H   UNL     1     -11.060  -5.956  15.220  0.00  0.00    +0.000 HD
ENDBRANCH   6  38
BRANCH  18  42
ATOM     42  C   UNL     1      -6.053  -3.753  21.974  0.00  0.00    +0.000 C 
ATOM     43  H   UNL     1      -5.830  -3.484  23.005  0.00  0.00    +0.000 HD
ATOM     44  H   UNL     1      -5.262  -3.311  21.374  0.00  0.00    +0.000 HD
ATOM     45  H   UNL     1      -6.115  -4.839  21.970  0.00  0.00    +0.000 HD
ENDBRANCH  18  42
TORSDOF 3
ENDMDL
MODEL 8
REMARK VINA RESULT:    -7.757      3.331      6.410
REMARK INTER + INTRA:          -8.438
REMARK INTER:                  -8.438
REMARK INTRA:                   0.000
REMARK UNBOUND:                 0.000
REMARK  Name = 
REMARK  3 active torsions:
REMARK  status: ('A' for Active; 'I' for Inactive)
REMARK    1  A    between atoms: C_1  and  C_2
REMARK    2  A    between atoms: N_7  and  C_8
REMARK    3  A    between atoms: N_20  and  C_21
REMARK                            x       y       z     vdW  Elec       q    Type
REMARK                         _______ _______ _______ _____ _____    ______ ____
ROOT
ATOM      1  C   UNL     1      -8.633  -3.679  20.373  0.00  0.00    +0.000 A 
ATOM      2  C   UNL     1      -9.010  -2.522  21.052  0.00  0.00    +0.000 A 
ATOM      3  C   UNL     1      -9.419  -1.435  20.300  0.00  0.00    +0.000 A 
ATOM      4  C   UNL     1      -9.430  -0.075  20.672  0.00  0.00    +0.000 A 
ATOM      5  C   UNL     1      -9.195   0.550  19.485  0.00  0.00    +0.000 A 
ATOM      6  N   UNL     1      -9.860  -0.236  18.554  0.00  0.00    +0.000 N 
ATOM      7  C   UNL     1      -9.769  -1.579  18.938  0.00  0.00    +0.000 A 
ATOM      8  C   UNL     1      -9.917  -2.925  18.404  0.00  0.00    +0.000 A 
ATOM      9  C   UNL     1     -10.622  -3.320  17.243  0.00  0.00    +0.000 A 
ATOM     10  C   UNL     1     -10.673  -4.640  16.693  0.00  0.00    +0.000 A 
ATOM     11  C   UNL     1      -9.941  -5.645  17.370  0.00  0.00    +0.000 A 
ATOM     12  C   UNL     1      -9.971  -7.001  16.997  0.00  0.00    +0.000 A 
ATOM     13  C   UNL     1     -10.549  -7.855  16.023  0.00  0.00    +0.000 A 
ATOM     14  C   UNL     1     -10.303  -9.238  16.024  0.00  0.00    +0.000 A 
ATOM     15  C   UNL     1      -9.475  -9.805  16.972  0.00  0.00    +0.000 A 
ATOM     16  C   UNL     1      -8.894  -8.999  17.943  0.00  0.00    +0.000 A 
ATOM     17  C   UNL     1      -9.159  -7.608  17.960  0.00  0.00    +0.000 A 
ATOM     18  N   UNL     1      -8.738  -6.627  18.853  0.00  0.00    +0.000 N 
ATOM     19  C   UNL     1      -9.240  -5.350  18.522  0.00  0.00    +0.000 A 
ATOM     20  C   UNL     1      -9.229  -4.008  19.120  0.00  0.00    +0.000 A 
ATOM     21  C   UNL     1     -11.530  -4.647  15.537  0.00  0.00    +0.000 C 
ATOM     22  O   UNL     1     -12.010  -5.500  14.795  0.00  0.00    +0.000 OA
ATOM     23  N   UNL     1     -11.841  -3.343  15.379  0.00  0.00    +0.000 N 
ATOM     24  C   UNL     1     -11.577  -2.556  16.467  0.00  0.00    +0.000 C 
ATOM     25  O   UNL     1     -12.205  -1.528  16.662  0.00  0.00    +0.000 OA
ATOM     26  H   UNL     1      -8.664  -2.328  22.065  0.00  0.00    +0.000 HD
ATOM     27  H   UNL     1      -9.286   0.342  21.657  0.00  0.00    +0.000 HD
ATOM     28  H   UNL     1      -8.851   1.552  19.258  0.00  0.00    +0.000 HD
ATOM     29  H   UNL     1     -11.209  -7.485  15.251  0.00  0.00    +0.000 HD
ATOM     30  H   UNL     1     -10.771  -9.871  15.273  0.00  0.00    +0.000 HD
ATOM     31  H   UNL     1      -9.281 -10.875  16.967  0.00  0.00    +0.000 HD
ATOM     32  H   UNL     1      -8.251  -9.477  18.680  0.00  0.00    +0.000 HD
ATOM     33  H   UNL     1     -12.579  -3.081  14.749  0.00  0.00    +0.000 HD
ENDROOT
BRANCH   1  34
ATOM     34  C   UNL     1      -7.485  -4.353  21.062  0.00  0.00    +0.000 C 
ATOM     35  H   UNL     1      -6.593  -3.710  21.056  0.00  0.00    +0.000 HD
ATOM     36  H   UNL     1      -7.161  -5.221  20.490  0.00  0.00    +0.000 HD
ATOM     37  H   UNL     1      -7.694  -4.545  22.112  0.00  0.00    +0.000 HD
ENDBRANCH   1  34
BRANCH   6  38
ATOM     38  C   UNL     1     -10.639   0.507  17.593  0.00  0.00    +0.000 C 
ATOM     39  H   UNL     1     -10.377   0.281  16.570  0.00  0.00    +0.000 HD
ATOM     40  H   UNL     1     -10.445   1.579  17.739  0.00  0.00    +0.000 HD
ATOM     41  H   UNL     1     -11.690   0.334  17.849  0.00  0.00    +0.000 HD
ENDBRANCH   6  38
BRANCH  18  42
ATOM     42  C   UNL     1      -7.899  -6.999  19.965  0.00  0.00    +0.000 C 
ATOM     43  H   UNL     1      -7.804  -8.078  20.068  0.00  0.00    +0.000 HD
ATOM     44  H   UNL     1      -8.375  -6.654  20.880  0.00  0.00    +0.000 HD
ATOM     45  H   UNL     1      -6.890  -6.639  19.779  0.00  0.00    +0.000 HD
ENDBRANCH  18  42
TORSDOF 3
ENDMDL
MODEL 9
REMARK VINA RESULT:    -7.692      3.449      9.012
REMARK INTER + INTRA:          -8.366
REMARK INTER:                  -8.366
REMARK INTRA:                   0.000
REMARK UNBOUND:                 0.000
REMARK  Name = 
REMARK  3 active torsions:
REMARK  status: ('A' for Active; 'I' for Inactive)
REMARK    1  A    between atoms: C_1  and  C_2
REMARK    2  A    between atoms: N_7  and  C_8
REMARK    3  A    between atoms: N_20  and  C_21
REMARK                            x       y       z     vdW  Elec       q    Type
REMARK                         _______ _______ _______ _____ _____    ______ ____
ROOT
ATOM      1  C   UNL     1      -8.440  -4.070  20.052  0.00  0.00    +0.000 A 
ATOM      2  C   UNL     1      -7.636  -5.201  20.177  0.00  0.00    +0.000 A 
ATOM      3  C   UNL     1      -8.090  -6.382  19.617  0.00  0.00    +0.000 A 
ATOM      4  C   UNL     1      -7.721  -7.701  19.951  0.00  0.00    +0.000 A 
ATOM      5  C   UNL     1      -8.868  -8.393  19.702  0.00  0.00    +0.000 A 
ATOM      6  N   UNL     1      -9.408  -7.758  18.592  0.00  0.00    +0.000 N 
ATOM      7  C   UNL     1      -9.141  -6.386  18.672  0.00  0.00    +0.000 A 
ATOM      8  C   UNL     1      -9.581  -5.110  18.125  0.00  0.00    +0.000 A 
ATOM      9  C   UNL     1     -10.297  -4.886  16.927  0.00  0.00    +0.000 A 
ATOM     10  C   UNL     1     -10.794  -3.628  16.462  0.00  0.00    +0.000 A 
ATOM     11  C   UNL     1     -10.554  -2.500  17.284  0.00  0.00    +0.000 A 
ATOM     12  C   UNL     1     -10.904  -1.190  16.912  0.00  0.00    +0.000 A 
ATOM     13  C   UNL     1     -11.524  -0.482  15.852  0.00  0.00    +0.000 A 
ATOM     14  C   UNL     1     -11.670   0.914  15.889  0.00  0.00    +0.000 A 
ATOM     15  C   UNL     1     -11.222   1.640  16.976  0.00  0.00    +0.000 A 
ATOM     16  C   UNL     1     -10.607   0.979  18.032  0.00  0.00    +0.000 A 
ATOM     17  C   UNL     1     -10.437  -0.425  17.987  0.00  0.00    +0.000 A 
ATOM     18  N   UNL     1      -9.813  -1.282  18.890  0.00  0.00    +0.000 N 
ATOM     19  C   UNL     1      -9.846  -2.627  18.462  0.00  0.00    +0.000 A 
ATOM     20  C   UNL     1      -9.287  -3.908  18.917  0.00  0.00    +0.000 A 
ATOM     21  C   UNL     1     -11.427  -3.804  15.182  0.00  0.00    +0.000 C 
ATOM     22  O   UNL     1     -11.887  -3.069  14.312  0.00  0.00    +0.000 OA
ATOM     23  N   UNL     1     -11.393  -5.142  15.005  0.00  0.00    +0.000 N 
ATOM     24  C   UNL     1     -10.529  -5.806  15.832  0.00  0.00    +0.000 C 
ATOM     25  O   UNL     1     -10.043  -6.874  15.500  0.00  0.00    +0.000 OA
ATOM     26  H   UNL     1      -6.891  -5.275  20.966  0.00  0.00    +0.000 HD
ATOM     27  H   UNL     1      -6.903  -8.020  20.579  0.00  0.00    +0.000 HD
ATOM     28  H   UNL     1      -9.203  -9.368  20.033  0.00  0.00    +0.000 HD
ATOM     29  H   UNL     1     -11.898  -0.980  14.968  0.00  0.00    +0.000 HD
ATOM     30  H   UNL     1     -12.138   1.432  15.055  0.00  0.00    +0.000 HD
ATOM     31  H   UNL     1     -11.342   2.719  17.006  0.00  0.00    +0.000 HD
ATOM     32  H   UNL     1     -10.260   1.580  18.871  0.00  0.00    +0.000 HD
ATOM     33  H   UNL     1     -11.607  -5.529  14.102  0.00  0.00    +0.000 HD
ENDROOT
BRANCH   1  34
ATOM     34  C   UNL     1      -8.372  -3.227  21.290  0.00  0.00    +0.000 C 
ATOM     35  H   UNL     1      -7.352  -2.853  21.454  0.00  0.00    +0.000 HD
ATOM     36  H   UNL     1      -8.549  -3.840  22.172  0.00  0.00    +0.000 HD
ATOM     37  H   UNL     1      -8.995  -2.338  21.214  0.00  0.00    +0.000 HD
ENDBRANCH   1  34
BRANCH   6  38
ATOM     38  C   UNL     1      -9.886  -8.653  17.566  0.00  0.00    +0.000 C 
ATOM     39  H   UNL     1     -10.960  -8.754  17.560  0.00  0.00    +0.000 HD
ATOM     40  H   UNL     1      -9.475  -9.655  17.757  0.00  0.00    +0.000 HD
ATOM     41  H   UNL     1      -9.449  -8.303  16.625  0.00  0.00    +0.000 HD
ENDBRANCH   6  38
BRANCH  18  42
ATOM     42  C   UNL     1      -9.220  -0.736  20.085  0.00  0.00    +0.000 C 
ATOM     43  H   UNL     1      -8.804  -1.508  20.730  0.00  0.00    +0.000 HD
ATOM     44  H   UNL     1     -10.004  -0.254  20.664  0.00  0.00    +0.000 HD
ATOM     45  H   UNL     1      -8.374  -0.113  19.803  0.00  0.00    +0.000 HD
ENDBRANCH  18  42
TORSDOF 3
ENDMDL
