MODEL 1
REMARK VINA RESULT:    -9.643      0.000      0.000
REMARK INTER + INTRA:         -14.239
REMARK INTER:                 -13.307
REMARK INTRA:                  -0.932
REMARK UNBOUND:                -0.932
REMARK  Name = 
REMARK  8 active torsions:
REMARK  status: ('A' for Active; 'I' for Inactive)
REMARK    1  A    between atoms: C_1  and  O_2
REMARK    2  A    between atoms: O_2  and  C_3
REMARK    3  A    between atoms: N_17  and  C_18
REMARK    4  A    between atoms: N_21  and  C_22
REMARK    5  A    between atoms: C_22  and  C_23
REMARK    6  A    between atoms: C_23  and  C_24
REMARK    7  A    between atoms: C_24  and  N_25
REMARK    8  A    between atoms: C_28  and  O_29
REMARK                            x       y       z     vdW  Elec       q    Type
REMARK                         _______ _______ _______ _____ _____    ______ ____
ROOT
ATOM      1  C   UNL     1      -7.869  -3.298  22.308  0.00  0.00    +0.000 A 
ATOM      2  C   UNL     1      -8.372  -2.058  21.972  0.00  0.00    +0.000 A 
ATOM      3  C   UNL     1      -9.027  -1.885  20.740  0.00  0.00    +0.000 A 
ATOM      4  C   UNL     1      -9.178  -2.970  19.841  0.00  0.00    +0.000 A 
ATOM      5  C   UNL     1      -9.817  -3.215  18.636  0.00  0.00    +0.000 A 
ATOM      6  C   UNL     1     -10.422  -2.192  17.876  0.00  0.00    +0.000 A 
ATOM      7  C   UNL     1     -11.192  -2.610  16.785  0.00  0.00    +0.000 A 
ATOM      8  C   UNL     1     -10.998  -3.837  16.144  0.00  0.00    +0.000 A 
ATOM      9  C   UNL     1     -10.140  -4.787  16.793  0.00  0.00    +0.000 A 
ATOM     10  C   UNL     1      -9.567  -5.816  16.020  0.00  0.00    +0.000 A 
ATOM     11  C   UNL     1      -9.448  -5.647  14.636  0.00  0.00    +0.000 A 
ATOM     12  C   UNL     1      -9.984  -4.467  14.119  0.00  0.00    +0.000 A 
ATOM     13  C   UNL     1      -9.397  -3.261  13.568  0.00  0.00    +0.000 A 
ATOM     14  C   UNL     1     -10.420  -2.332  13.452  0.00  0.00    +0.000 A 
ATOM     15  N   UNL     1     -11.558  -3.093  13.700  0.00  0.00    +0.000 N 
ATOM     16  C   UNL     1     -11.138  -3.947  14.737  0.00  0.00    +0.000 A 
ATOM     17  C   UNL     1      -9.677  -4.490  18.114  0.00  0.00    +0.000 A 
ATOM     18  N   UNL     1      -8.852  -5.102  19.080  0.00  0.00    +0.000 N 
ATOM     19  C   UNL     1      -8.621  -4.218  20.162  0.00  0.00    +0.000 A 
ATOM     20  C   UNL     1      -7.974  -4.366  21.410  0.00  0.00    +0.000 A 
ATOM     21  C   UNL     1     -11.821  -1.444  16.252  0.00  0.00    +0.000 C 
ATOM     22  O   UNL     1     -12.822  -1.260  15.566  0.00  0.00    +0.000 OA
ATOM     23  N   UNL     1     -11.056  -0.409  16.757  0.00  0.00    +0.000 N 
ATOM     24  C   UNL     1     -10.239  -0.782  17.776  0.00  0.00    +0.000 C 
ATOM     25  O   UNL     1      -9.458   0.007  18.306  0.00  0.00    +0.000 OA
ATOM     26  H   UNL     1      -8.298  -1.203  22.626  0.00  0.00    +0.000 HD
ATOM     27  H   UNL     1      -9.439  -0.908  20.511  0.00  0.00    +0.000 HD
ATOM     28  H   UNL     1      -8.971  -6.609  16.443  0.00  0.00    +0.000 HD
ATOM     29  H   UNL     1      -8.730  -6.235  14.076  0.00  0.00    +0.000 HD
ATOM     30  H   UNL     1      -8.345  -3.063  13.427  0.00  0.00    +0.000 HD
ATOM     31  H   UNL     1     -10.492  -1.303  13.126  0.00  0.00    +0.000 HD
ATOM     32  H   UNL     1      -7.564  -5.302  21.755  0.00  0.00    +0.000 HD
ATOM     33  H   UNL     1     -10.744   0.297  16.131  0.00  0.00    +0.000 HD
ENDROOT
BRANCH  15  34
ATOM     34  C   UNL     1     -12.277  -3.604  12.522  0.00  0.00    +0.000 C 
ATOM     35  H   UNL     1     -11.572  -4.155  11.897  0.00  0.00    +0.000 HD
ATOM     36  H   UNL     1     -12.739  -2.776  11.982  0.00  0.00    +0.000 HD
ATOM     37  H   UNL     1     -13.061  -4.292  12.872  0.00  0.00    +0.000 HD
ENDBRANCH  15  34
BRANCH  18  38
ATOM     38  C   UNL     1      -8.296  -6.454  18.918  0.00  0.00    +0.000 C 
ATOM     39  H   UNL     1      -7.418  -6.508  19.570  0.00  0.00    +0.000 HD
ATOM     40  H   UNL     1      -7.989  -6.535  17.871  0.00  0.00    +0.000 HD
BRANCH  38  41
ATOM     41  C   UNL     1      -9.243  -7.610  19.181  0.00  0.00    +0.000 C 
ATOM     42  H   UNL     1      -9.949  -7.608  18.348  0.00  0.00    +0.000 HD
ATOM     43  H   UNL     1      -9.762  -7.434  20.123  0.00  0.00    +0.000 HD
BRANCH  41  44
ATOM     44  C   UNL     1      -8.615  -8.997  19.337  0.00  0.00    +0.000 C 
ATOM     45  H   UNL     1      -8.860  -9.362  20.344  0.00  0.00    +0.000 HD
ATOM     46  H   UNL     1      -7.524  -8.950  19.261  0.00  0.00    +0.000 HD
BRANCH  44  47
ATOM     47  N   UNL     1      -9.188  -9.930  18.338  0.00  0.00    +0.000 NA
ATOM     48  C   UNL     1      -8.441 -11.196  18.311  0.00  0.00    +0.000 C 
ATOM     49  C   UNL     1      -9.050 -12.196  17.323  0.00  0.00    +0.000 C 
ATOM     50  C   UNL     1      -9.189 -11.610  15.923  0.00  0.00    +0.000 C 
ATOM     51  C   UNL     1      -9.910 -10.275  15.971  0.00  0.00    +0.000 C 
ATOM     52  C   UNL     1      -9.292  -9.330  16.997  0.00  0.00    +0.000 C 
ATOM     53  H   UNL     1      -8.461 -11.656  19.307  0.00  0.00    +0.000 HD
ATOM     54  H   UNL     1      -7.389 -11.018  18.060  0.00  0.00    +0.000 HD
ATOM     55  H   UNL     1     -10.040 -12.501  17.684  0.00  0.00    +0.000 HD
ATOM     56  H   UNL     1      -8.420 -13.093  17.291  0.00  0.00    +0.000 HD
ATOM     57  H   UNL     1      -9.757 -12.302  15.291  0.00  0.00    +0.000 HD
ATOM     58  H   UNL     1     -10.965 -10.439  16.227  0.00  0.00    +0.000 HD
ATOM     59  H   UNL     1      -9.884  -9.790  14.989  0.00  0.00    +0.000 HD
ATOM     60  H   UNL     1      -9.957  -8.461  17.010  0.00  0.00    +0.000 HD
ATOM     61  H   UNL     1      -8.309  -8.982  16.657  0.00  0.00    +0.000 HD
BRANCH  50  62
ATOM     62  O   UNL     1      -7.910 -11.468  15.306  0.00  0.00    +0.000 OA
ATOM     63  H   UNL     1      -7.297 -11.070  15.947  0.00  0.00    +0.000 HD
ENDBRANCH  50  62
ENDBRANCH  44  47
ENDBRANCH  41  44
ENDBRANCH  38  41
ENDBRANCH  18  38
BRANCH   1  64
ATOM     64  O   UNL     1      -7.254  -3.628  23.486  0.00  0.00    +0.000 OA
BRANCH  64  65
ATOM     65  C   UNL     1      -8.092  -3.876  24.605  0.00  0.00    +0.000 C 
ATOM     66  H   UNL     1      -7.815  -4.851  25.018  0.00  0.00    +0.000 HD
ATOM     67  H   UNL     1      -9.146  -3.928  24.313  0.00  0.00    +0.000 HD
ATOM     68  H   UNL     1      -7.931  -3.123  25.383  0.00  0.00    +0.000 HD
ENDBRANCH  64  65
ENDBRANCH   1  64
TORSDOF 8
ENDMDL
MODEL 2
REMARK VINA RESULT:    -9.292      2.520      7.557
REMARK INTER + INTRA:         -13.755
REMARK INTER:                 -12.708
REMARK INTRA:                  -1.047
REMARK UNBOUND:                -0.932
REMARK  Name = 
REMARK  8 active torsions:
REMARK  status: ('A' for Active; 'I' for Inactive)
REMARK    1  A    between atoms: C_1  and  O_2
REMARK    2  A    between atoms: O_2  and  C_3
REMARK    3  A    between atoms: N_17  and  C_18
REMARK    4  A    between atoms: N_21  and  C_22
REMARK    5  A    between atoms: C_22  and  C_23
REMARK    6  A    between atoms: C_23  and  C_24
REMARK    7  A    between atoms: C_24  and  N_25
REMARK    8  A    between atoms: C_28  and  O_29
REMARK                            x       y       z     vdW  Elec       q    Type
REMARK                         _______ _______ _______ _____ _____    ______ ____
ROOT
ATOM      1  C   UNL     1     -12.595   0.682  16.069  0.00  0.00    +0.000 A 
ATOM      2  C   UNL     1     -13.000  -0.359  15.260  0.00  0.00    +0.000 A 
ATOM      3  C   UNL     1     -12.601  -1.672  15.565  0.00  0.00    +0.000 A 
ATOM      4  C   UNL     1     -11.790  -1.939  16.696  0.00  0.00    +0.000 A 
ATOM      5  C   UNL     1     -11.295  -3.052  17.357  0.00  0.00    +0.000 A 
ATOM      6  C   UNL     1     -11.412  -4.357  16.837  0.00  0.00    +0.000 A 
ATOM      7  C   UNL     1     -11.040  -5.397  17.697  0.00  0.00    +0.000 A 
ATOM      8  C   UNL     1     -10.150  -5.223  18.760  0.00  0.00    +0.000 A 
ATOM      9  C   UNL     1      -9.806  -3.874  19.112  0.00  0.00    +0.000 A 
ATOM     10  C   UNL     1      -8.623  -3.649  19.840  0.00  0.00    +0.000 A 
ATOM     11  C   UNL     1      -7.604  -4.609  19.808  0.00  0.00    +0.000 A 
ATOM     12  C   UNL     1      -7.888  -5.771  19.087  0.00  0.00    +0.000 A 
ATOM     13  C   UNL     1      -7.413  -6.303  17.825  0.00  0.00    +0.000 A 
ATOM     14  C   UNL     1      -8.238  -7.370  17.503  0.00  0.00    +0.000 A 
ATOM     15  N   UNL     1      -8.973  -7.556  18.670  0.00  0.00    +0.000 N 
ATOM     16  C   UNL     1      -9.217  -6.237  19.094  0.00  0.00    +0.000 A 
ATOM     17  C   UNL     1     -10.512  -2.806  18.472  0.00  0.00    +0.000 A 
ATOM     18  N   UNL     1     -10.501  -1.397  18.506  0.00  0.00    +0.000 N 
ATOM     19  C   UNL     1     -11.338  -0.873  17.491  0.00  0.00    +0.000 A 
ATOM     20  C   UNL     1     -11.759   0.436  17.165  0.00  0.00    +0.000 A 
ATOM     21  C   UNL     1     -11.370  -6.619  17.034  0.00  0.00    +0.000 C 
ATOM     22  O   UNL     1     -11.589  -7.762  17.423  0.00  0.00    +0.000 OA
ATOM     23  N   UNL     1     -11.484  -6.243  15.709  0.00  0.00    +0.000 N 
ATOM     24  C   UNL     1     -11.574  -4.899  15.528  0.00  0.00    +0.000 C 
ATOM     25  O   UNL     1     -11.634  -4.396  14.408  0.00  0.00    +0.000 OA
ATOM     26  H   UNL     1     -13.630  -0.213  14.396  0.00  0.00    +0.000 HD
ATOM     27  H   UNL     1     -12.956  -2.477  14.930  0.00  0.00    +0.000 HD
ATOM     28  H   UNL     1      -8.330  -2.677  20.205  0.00  0.00    +0.000 HD
ATOM     29  H   UNL     1      -6.587  -4.332  20.056  0.00  0.00    +0.000 HD
ATOM     30  H   UNL     1      -6.669  -5.861  17.178  0.00  0.00    +0.000 HD
ATOM     31  H   UNL     1      -8.313  -8.063  16.675  0.00  0.00    +0.000 HD
ATOM     32  H   UNL     1     -11.499   1.304  17.751  0.00  0.00    +0.000 HD
ATOM     33  H   UNL     1     -11.012  -6.784  15.021  0.00  0.00    +0.000 HD
ENDROOT
BRANCH  15  34
ATOM     34  C   UNL     1      -8.482  -8.588  19.597  0.00  0.00    +0.000 C 
ATOM     35  H   UNL     1      -7.686  -9.148  19.104  0.00  0.00    +0.000 HD
ATOM     36  H   UNL     1      -9.306  -9.235  19.901  0.00  0.00    +0.000 HD
ATOM     37  H   UNL     1      -8.071  -8.082  20.484  0.00  0.00    +0.000 HD
ENDBRANCH  15  34
BRANCH  18  38
ATOM     38  C   UNL     1      -9.680  -0.624  19.450  0.00  0.00    +0.000 C 
ATOM     39  H   UNL     1      -9.221   0.186  18.872  0.00  0.00    +0.000 HD
ATOM     40  H   UNL     1      -8.907  -1.307  19.814  0.00  0.00    +0.000 HD
BRANCH  38  41
ATOM     41  C   UNL     1     -10.390  -0.083  20.677  0.00  0.00    +0.000 C 
ATOM     42  H   UNL     1     -11.021   0.732  20.317  0.00  0.00    +0.000 HD
ATOM     43  H   UNL     1      -9.645   0.293  21.379  0.00  0.00    +0.000 HD
BRANCH  41  44
ATOM     44  C   UNL     1     -11.223  -1.077  21.489  0.00  0.00    +0.000 C 
ATOM     45  H   UNL     1     -11.226  -2.032  20.945  0.00  0.00    +0.000 HD
ATOM     46  H   UNL     1     -12.263  -0.746  21.576  0.00  0.00    +0.000 HD
BRANCH  44  47
ATOM     47  N   UNL     1     -10.608  -1.288  22.821  0.00  0.00    +0.000 NA
ATOM     48  C   UNL     1      -9.160  -1.513  22.702  0.00  0.00    +0.000 C 
ATOM     49  C   UNL     1      -8.494  -1.679  24.072  0.00  0.00    +0.000 C 
ATOM     50  C   UNL     1      -9.153  -2.773  24.904  0.00  0.00    +0.000 C 
ATOM     51  C   UNL     1     -10.655  -2.562  24.970  0.00  0.00    +0.000 C 
ATOM     52  C   UNL     1     -11.265  -2.361  23.586  0.00  0.00    +0.000 C 
ATOM     53  H   UNL     1      -8.693  -0.653  22.207  0.00  0.00    +0.000 HD
ATOM     54  H   UNL     1      -8.955  -2.392  22.080  0.00  0.00    +0.000 HD
ATOM     55  H   UNL     1      -8.553  -0.729  24.618  0.00  0.00    +0.000 HD
ATOM     56  H   UNL     1      -7.432  -1.911  23.926  0.00  0.00    +0.000 HD
ATOM     57  H   UNL     1      -8.744  -2.758  25.920  0.00  0.00    +0.000 HD
ATOM     58  H   UNL     1     -10.874  -1.680  25.587  0.00  0.00    +0.000 HD
ATOM     59  H   UNL     1     -11.142  -3.421  25.445  0.00  0.00    +0.000 HD
ATOM     60  H   UNL     1     -12.314  -2.117  23.777  0.00  0.00    +0.000 HD
ATOM     61  H   UNL     1     -11.248  -3.300  23.018  0.00  0.00    +0.000 HD
BRANCH  50  62
ATOM     62  O   UNL     1      -8.851  -4.063  24.373  0.00  0.00    +0.000 OA
ATOM     63  H   UNL     1      -9.235  -4.738  24.955  0.00  0.00    +0.000 HD
ENDBRANCH  50  62
ENDBRANCH  44  47
ENDBRANCH  41  44
ENDBRANCH  38  41
ENDBRANCH  18  38
BRANCH   1  64
ATOM     64  O   UNL     1     -12.943   1.998  15.927  0.00  0.00    +0.000 OA
BRANCH  64  65
ATOM     65  C   UNL     1     -13.953   2.497  16.792  0.00  0.00    +0.000 C 
ATOM     66  H   UNL     1     -14.357   3.408  16.339  0.00  0.00    +0.000 HD
ATOM     67  H   UNL     1     -13.544   2.769  17.770  0.00  0.00    +0.000 HD
ATOM     68  H   UNL     1     -14.771   1.777  16.887  0.00  0.00    +0.000 HD
ENDBRANCH  64  65
ENDBRANCH   1  64
TORSDOF 8
ENDMDL
MODEL 3
REMARK VINA RESULT:    -9.228      0.953      1.290
REMARK INTER + INTRA:         -13.666
REMARK INTER:                 -12.792
REMARK INTRA:                  -0.874
REMARK UNBOUND:                -0.932
REMARK  Name = 
REMARK  8 active torsions:
REMARK  status: ('A' for Active; 'I' for Inactive)
REMARK    1  A    between atoms: C_1  and  O_2
REMARK    2  A    between atoms: O_2  and  C_3
REMARK    3  A    between atoms: N_17  and  C_18
REMARK    4  A    between atoms: N_21  and  C_22
REMARK    5  A    between atoms: C_22  and  C_23
REMARK    6  A    between atoms: C_23  and  C_24
REMARK    7  A    between atoms: C_24  and  N_25
REMARK    8  A    between atoms: C_28  and  O_29
REMARK                            x       y       z     vdW  Elec       q    Type
REMARK                         _______ _______ _______ _____ _____    ______ ____
ROOT
ATOM      1  C   UNL     1      -8.044  -3.587  21.859  0.00  0.00    +0.000 A 
ATOM      2  C   UNL     1      -8.664  -2.372  21.655  0.00  0.00    +0.000 A 
ATOM      3  C   UNL     1      -9.359  -2.141  20.454  0.00  0.00    +0.000 A 
ATOM      4  C   UNL     1      -9.433  -3.142  19.454  0.00  0.00    +0.000 A 
ATOM      5  C   UNL     1     -10.075  -3.326  18.240  0.00  0.00    +0.000 A 
ATOM      6  C   UNL     1     -10.786  -2.294  17.594  0.00  0.00    +0.000 A 
ATOM      7  C   UNL     1     -11.540  -2.673  16.478  0.00  0.00    +0.000 A 
ATOM      8  C   UNL     1     -11.252  -3.808  15.715  0.00  0.00    +0.000 A 
ATOM      9  C   UNL     1     -10.297  -4.734  16.255  0.00  0.00    +0.000 A 
ATOM     10  C   UNL     1      -9.652  -5.626  15.377  0.00  0.00    +0.000 A 
ATOM     11  C   UNL     1      -9.580  -5.313  14.014  0.00  0.00    +0.000 A 
ATOM     12  C   UNL     1     -10.232  -4.142  13.625  0.00  0.00    +0.000 A 
ATOM     13  C   UNL     1      -9.768  -2.840  13.188  0.00  0.00    +0.000 A 
ATOM     14  C   UNL     1     -10.873  -2.001  13.179  0.00  0.00    +0.000 A 
ATOM     15  N   UNL     1     -11.932  -2.884  13.365  0.00  0.00    +0.000 N 
ATOM     16  C   UNL     1     -11.413  -3.792  14.307  0.00  0.00    +0.000 A 
ATOM     17  C   UNL     1      -9.832  -4.525  17.592  0.00  0.00    +0.000 A 
ATOM     18  N   UNL     1      -8.934  -5.151  18.482  0.00  0.00    +0.000 N 
ATOM     19  C   UNL     1      -8.759  -4.360  19.642  0.00  0.00    +0.000 A 
ATOM     20  C   UNL     1      -8.073  -4.569  20.861  0.00  0.00    +0.000 A 
ATOM     21  C   UNL     1     -12.283  -1.523  16.072  0.00  0.00    +0.000 C 
ATOM     22  O   UNL     1     -13.312  -1.365  15.422  0.00  0.00    +0.000 OA
ATOM     23  N   UNL     1     -11.603  -0.476  16.666  0.00  0.00    +0.000 N 
ATOM     24  C   UNL     1     -10.732  -0.870  17.632  0.00  0.00    +0.000 C 
ATOM     25  O   UNL     1     -10.014  -0.068  18.227  0.00  0.00    +0.000 OA
ATOM     26  H   UNL     1      -8.652  -1.582  22.389  0.00  0.00    +0.000 HD
ATOM     27  H   UNL     1      -9.863  -1.188  20.329  0.00  0.00    +0.000 HD
ATOM     28  H   UNL     1      -8.977  -6.398  15.710  0.00  0.00    +0.000 HD
ATOM     29  H   UNL     1      -8.825  -5.775  13.389  0.00  0.00    +0.000 HD
ATOM     30  H   UNL     1      -8.741  -2.533  13.052  0.00  0.00    +0.000 HD
ATOM     31  H   UNL     1     -11.044  -0.956  12.957  0.00  0.00    +0.000 HD
ATOM     32  H   UNL     1      -7.572  -5.492  21.106  0.00  0.00    +0.000 HD
ATOM     33  H   UNL     1     -11.370   0.313  16.109  0.00  0.00    +0.000 HD
ENDROOT
BRANCH  15  34
ATOM     34  C   UNL     1     -12.628  -3.341  12.153  0.00  0.00    +0.000 C 
ATOM     35  H   UNL     1     -12.449  -4.411  12.031  0.00  0.00    +0.000 HD
ATOM     36  H   UNL     1     -12.283  -2.771  11.289  0.00  0.00    +0.000 HD
ATOM     37  H   UNL     1     -13.706  -3.171  12.293  0.00  0.00    +0.000 HD
ENDBRANCH  15  34
BRANCH  18  38
ATOM     38  C   UNL     1      -8.263  -6.424  18.179  0.00  0.00    +0.000 C 
ATOM     39  H   UNL     1      -7.234  -6.326  18.542  0.00  0.00    +0.000 HD
ATOM     40  H   UNL     1      -8.266  -6.520  17.090  0.00  0.00    +0.000 HD
BRANCH  38  41
ATOM     41  C   UNL     1      -8.917  -7.680  18.725  0.00  0.00    +0.000 C 
ATOM     42  H   UNL     1      -9.673  -7.334  19.433  0.00  0.00    +0.000 HD
ATOM     43  H   UNL     1      -8.161  -8.278  19.236  0.00  0.00    +0.000 HD
BRANCH  41  44
ATOM     44  C   UNL     1      -9.544  -8.633  17.706  0.00  0.00    +0.000 C 
ATOM     45  H   UNL     1      -9.485  -8.152  16.720  0.00  0.00    +0.000 HD
ATOM     46  H   UNL     1     -10.603  -8.807  17.924  0.00  0.00    +0.000 HD
BRANCH  44  47
ATOM     47  N   UNL     1      -8.783  -9.905  17.664  0.00  0.00    +0.000 NA
ATOM     48  C   UNL     1      -9.423 -10.871  16.760  0.00  0.00    +0.000 C 
ATOM     49  C   UNL     1      -8.624 -12.174  16.660  0.00  0.00    +0.000 C 
ATOM     50  C   UNL     1      -8.359 -12.794  18.027  0.00  0.00    +0.000 C 
ATOM     51  C   UNL     1      -7.752 -11.769  18.969  0.00  0.00    +0.000 C 
ATOM     52  C   UNL     1      -8.561 -10.476  19.004  0.00  0.00    +0.000 C 
ATOM     53  H   UNL     1      -9.491 -10.443  15.752  0.00  0.00    +0.000 HD
ATOM     54  H   UNL     1     -10.448 -11.087  17.087  0.00  0.00    +0.000 HD
ATOM     55  H   UNL     1      -7.665 -11.971  16.166  0.00  0.00    +0.000 HD
ATOM     56  H   UNL     1      -9.176 -12.883  16.031  0.00  0.00    +0.000 HD
ATOM     57  H   UNL     1      -7.667 -13.636  17.919  0.00  0.00    +0.000 HD
ATOM     58  H   UNL     1      -6.727 -11.541  18.649  0.00  0.00    +0.000 HD
ATOM     59  H   UNL     1      -7.694 -12.172  19.987  0.00  0.00    +0.000 HD
ATOM     60  H   UNL     1      -7.971  -9.795  19.624  0.00  0.00    +0.000 HD
ATOM     61  H   UNL     1      -9.518 -10.634  19.515  0.00  0.00    +0.000 HD
BRANCH  50  62
ATOM     62  O   UNL     1      -9.560 -13.333  18.578  0.00  0.00    +0.000 OA
ATOM     63  H   UNL     1      -9.978 -12.657  19.136  0.00  0.00    +0.000 HD
ENDBRANCH  50  62
ENDBRANCH  44  47
ENDBRANCH  41  44
ENDBRANCH  38  41
ENDBRANCH  18  38
BRANCH   1  64
ATOM     64  O   UNL     1      -7.375  -3.973  22.990  0.00  0.00    +0.000 OA
BRANCH  64  65
ATOM     65  C   UNL     1      -7.977  -3.656  24.236  0.00  0.00    +0.000 C 
ATOM     66  H   UNL     1      -8.654  -4.475  24.496  0.00  0.00    +0.000 HD
ATOM     67  H   UNL     1      -8.575  -2.741  24.171  0.00  0.00    +0.000 HD
ATOM     68  H   UNL     1      -7.220  -3.583  25.023  0.00  0.00    +0.000 HD
ENDBRANCH  64  65
ENDBRANCH   1  64
TORSDOF 8
ENDMDL
MODEL 4
REMARK VINA RESULT:    -8.693      1.445      1.784
REMARK INTER + INTRA:         -12.928
REMARK INTER:                 -11.969
REMARK INTRA:                  -0.960
REMARK UNBOUND:                -0.932
REMARK  Name = 
REMARK  8 active torsions:
REMARK  status: ('A' for Active; 'I' for Inactive)
REMARK    1  A    between atoms: C_1  and  O_2
REMARK    2  A    between atoms: O_2  and  C_3
REMARK    3  A    between atoms: N_17  and  C_18
REMARK    4  A    between atoms: N_21  and  C_22
REMARK    5  A    between atoms: C_22  and  C_23
REMARK    6  A    between atoms: C_23  and  C_24
REMARK    7  A    between atoms: C_24  and  N_25
REMARK    8  A    between atoms: C_28  and  O_29
REMARK                            x       y       z     vdW  Elec       q    Type
REMARK                         _______ _______ _______ _____ _____    ______ ____
ROOT
ATOM      1  C   UNL     1      -9.242  -1.537  21.472  0.00  0.00    +0.000 A 
ATOM      2  C   UNL     1      -9.799  -0.383  20.962  0.00  0.00    +0.000 A 
ATOM      3  C   UNL     1     -10.337  -0.387  19.663  0.00  0.00    +0.000 A 
ATOM      4  C   UNL     1     -10.317  -1.563  18.873  0.00  0.00    +0.000 A 
ATOM      5  C   UNL     1     -10.811  -1.978  17.647  0.00  0.00    +0.000 A 
ATOM      6  C   UNL     1     -11.410  -1.089  16.731  0.00  0.00    +0.000 A 
ATOM      7  C   UNL     1     -12.033  -1.675  15.623  0.00  0.00    +0.000 A 
ATOM      8  C   UNL     1     -11.686  -2.938  15.136  0.00  0.00    +0.000 A 
ATOM      9  C   UNL     1     -10.829  -3.745  15.959  0.00  0.00    +0.000 A 
ATOM     10  C   UNL     1     -10.108  -4.792  15.356  0.00  0.00    +0.000 A 
ATOM     11  C   UNL     1      -9.862  -4.751  13.978  0.00  0.00    +0.000 A 
ATOM     12  C   UNL     1     -10.429  -3.676  13.292  0.00  0.00    +0.000 A 
ATOM     13  C   UNL     1      -9.880  -2.485  12.674  0.00  0.00    +0.000 A 
ATOM     14  C   UNL     1     -10.952  -1.661  12.366  0.00  0.00    +0.000 A 
ATOM     15  N   UNL     1     -12.050  -2.486  12.586  0.00  0.00    +0.000 N 
ATOM     16  C   UNL     1     -11.675  -3.196  13.742  0.00  0.00    +0.000 A 
ATOM     17  C   UNL     1     -10.525  -3.281  17.278  0.00  0.00    +0.000 A 
ATOM     18  N   UNL     1      -9.760  -3.725  18.376  0.00  0.00    +0.000 N 
ATOM     19  C   UNL     1      -9.705  -2.723  19.375  0.00  0.00    +0.000 A 
ATOM     20  C   UNL     1      -9.177  -2.694  20.686  0.00  0.00    +0.000 A 
ATOM     21  C   UNL     1     -12.689  -0.623  14.914  0.00  0.00    +0.000 C 
ATOM     22  O   UNL     1     -13.627  -0.591  14.123  0.00  0.00    +0.000 OA
ATOM     23  N   UNL     1     -12.058   0.517  15.375  0.00  0.00    +0.000 N 
ATOM     24  C   UNL     1     -11.322   0.315  16.500  0.00  0.00    +0.000 C 
ATOM     25  O   UNL     1     -10.659   1.215  17.013  0.00  0.00    +0.000 OA
ATOM     26  H   UNL     1      -9.855   0.535  21.526  0.00  0.00    +0.000 HD
ATOM     27  H   UNL     1     -10.796   0.525  19.295  0.00  0.00    +0.000 HD
ATOM     28  H   UNL     1      -9.500  -5.488  15.913  0.00  0.00    +0.000 HD
ATOM     29  H   UNL     1      -9.050  -5.329  13.552  0.00  0.00    +0.000 HD
ATOM     30  H   UNL     1      -8.836  -2.214  12.611  0.00  0.00    +0.000 HD
ATOM     31  H   UNL     1     -11.066  -0.678  11.927  0.00  0.00    +0.000 HD
ATOM     32  H   UNL     1      -8.736  -3.554  21.165  0.00  0.00    +0.000 HD
ATOM     33  H   UNL     1     -11.737   1.182  14.710  0.00  0.00    +0.000 HD
ENDROOT
BRANCH  15  34
ATOM     34  C   UNL     1     -12.606  -3.169  11.407  0.00  0.00    +0.000 C 
ATOM     35  H   UNL     1     -12.092  -4.123  11.282  0.00  0.00    +0.000 HD
ATOM     36  H   UNL     1     -12.502  -2.532  10.527  0.00  0.00    +0.000 HD
ATOM     37  H   UNL     1     -13.674  -3.357  11.594  0.00  0.00    +0.000 HD
ENDBRANCH  15  34
BRANCH  18  38
ATOM     38  C   UNL     1      -9.091  -5.035  18.410  0.00  0.00    +0.000 C 
ATOM     39  H   UNL     1      -8.287  -4.954  19.149  0.00  0.00    +0.000 HD
ATOM     40  H   UNL     1      -8.668  -5.189  17.413  0.00  0.00    +0.000 HD
BRANCH  38  41
ATOM     41  C   UNL     1      -9.974  -6.236  18.694  0.00  0.00    +0.000 C 
ATOM     42  H   UNL     1     -10.611  -6.348  17.814  0.00  0.00    +0.000 HD
ATOM     43  H   UNL     1     -10.578  -6.030  19.578  0.00  0.00    +0.000 HD
BRANCH  41  44
ATOM     44  C   UNL     1      -9.266  -7.557  19.006  0.00  0.00    +0.000 C 
ATOM     45  H   UNL     1      -9.480  -7.810  20.054  0.00  0.00    +0.000 HD
ATOM     46  H   UNL     1      -8.180  -7.458  18.906  0.00  0.00    +0.000 HD
BRANCH  44  47
ATOM     47  N   UNL     1      -9.795  -8.634  18.136  0.00  0.00    +0.000 NA
ATOM     48  C   UNL     1      -8.858  -9.766  18.072  0.00  0.00    +0.000 C 
ATOM     49  C   UNL     1      -9.409 -10.914  17.221  0.00  0.00    +0.000 C 
ATOM     50  C   UNL     1      -9.811 -10.455  15.825  0.00  0.00    +0.000 C 
ATOM     51  C   UNL     1     -10.732  -9.251  15.904  0.00  0.00    +0.000 C 
ATOM     52  C   UNL     1     -10.159  -8.151  16.793  0.00  0.00    +0.000 C 
ATOM     53  H   UNL     1      -8.680 -10.154  19.083  0.00  0.00    +0.000 HD
ATOM     54  H   UNL     1      -7.888  -9.442  17.677  0.00  0.00    +0.000 HD
ATOM     55  H   UNL     1     -10.284 -11.346  17.724  0.00  0.00    +0.000 HD
ATOM     56  H   UNL     1      -8.648 -11.701  17.150  0.00  0.00    +0.000 HD
ATOM     57  H   UNL     1     -10.330 -11.270  15.307  0.00  0.00    +0.000 HD
ATOM     58  H   UNL     1     -11.706  -9.561  16.303  0.00  0.00    +0.000 HD
ATOM     59  H   UNL     1     -10.906  -8.836  14.904  0.00  0.00    +0.000 HD
ATOM     60  H   UNL     1     -10.951  -7.400  16.852  0.00  0.00    +0.000 HD
ATOM     61  H   UNL     1      -9.296  -7.677  16.311  0.00  0.00    +0.000 HD
BRANCH  50  62
ATOM     62  O   UNL     1      -8.658 -10.156  15.040  0.00  0.00    +0.000 OA
ATOM     63  H   UNL     1      -7.993  -9.736  15.610  0.00  0.00    +0.000 HD
ENDBRANCH  50  62
ENDBRANCH  44  47
ENDBRANCH  41  44
ENDBRANCH  38  41
ENDBRANCH  18  38
BRANCH   1  64
ATOM     64  O   UNL     1      -8.727  -1.698  22.730  0.00  0.00    +0.000 OA
BRANCH  64  65
ATOM     65  C   UNL     1      -7.356  -1.375  22.913  0.00  0.00    +0.000 C 
ATOM     66  H   UNL     1      -7.299  -0.324  23.214  0.00  0.00    +0.000 HD
ATOM     67  H   UNL     1      -6.791  -1.484  21.981  0.00  0.00    +0.000 HD
ATOM     68  H   UNL     1      -6.921  -1.979  23.715  0.00  0.00    +0.000 HD
ENDBRANCH  64  65
ENDBRANCH   1  64
TORSDOF 8
ENDMDL
MODEL 5
REMARK VINA RESULT:    -8.580      2.911      8.257
REMARK INTER + INTRA:         -12.772
REMARK INTER:                 -11.818
REMARK INTRA:                  -0.953
REMARK UNBOUND:                -0.932
REMARK  Name = 
REMARK  8 active torsions:
REMARK  status: ('A' for Active; 'I' for Inactive)
REMARK    1  A    between atoms: C_1  and  O_2
REMARK    2  A    between atoms: O_2  and  C_3
REMARK    3  A    between atoms: N_17  and  C_18
REMARK    4  A    between atoms: N_21  and  C_22
REMARK    5  A    between atoms: C_22  and  C_23
REMARK    6  A    between atoms: C_23  and  C_24
REMARK    7  A    between atoms: C_24  and  N_25
REMARK    8  A    between atoms: C_28  and  O_29
REMARK                            x       y       z     vdW  Elec       q    Type
REMARK                         _______ _______ _______ _____ _____    ______ ____
ROOT
ATOM      1  C   UNL     1     -12.258   0.850  17.058  0.00  0.00    +0.000 A 
ATOM      2  C   UNL     1     -12.777  -0.023  16.125  0.00  0.00    +0.000 A 
ATOM      3  C   UNL     1     -12.444  -1.388  16.191  0.00  0.00    +0.000 A 
ATOM      4  C   UNL     1     -11.585  -1.877  17.206  0.00  0.00    +0.000 A 
ATOM      5  C   UNL     1     -11.123  -3.106  17.647  0.00  0.00    +0.000 A 
ATOM      6  C   UNL     1     -11.354  -4.303  16.937  0.00  0.00    +0.000 A 
ATOM      7  C   UNL     1     -10.998  -5.486  17.594  0.00  0.00    +0.000 A 
ATOM      8  C   UNL     1     -10.035  -5.533  18.607  0.00  0.00    +0.000 A 
ATOM      9  C   UNL     1      -9.585  -4.279  19.142  0.00  0.00    +0.000 A 
ATOM     10  C   UNL     1      -8.348  -4.238  19.812  0.00  0.00    +0.000 A 
ATOM     11  C   UNL     1      -7.397  -5.233  19.557  0.00  0.00    +0.000 A 
ATOM     12  C   UNL     1      -7.797  -6.246  18.684  0.00  0.00    +0.000 A 
ATOM     13  C   UNL     1      -7.435  -6.593  17.324  0.00  0.00    +0.000 A 
ATOM     14  C   UNL     1      -8.344  -7.548  16.896  0.00  0.00    +0.000 A 
ATOM     15  N   UNL     1      -9.017  -7.881  18.068  0.00  0.00    +0.000 N 
ATOM     16  C   UNL     1      -9.150  -6.636  18.710  0.00  0.00    +0.000 A 
ATOM     17  C   UNL     1     -10.260  -3.086  18.729  0.00  0.00    +0.000 A 
ATOM     18  N   UNL     1     -10.156  -1.703  18.984  0.00  0.00    +0.000 N 
ATOM     19  C   UNL     1     -11.018  -0.979  18.125  0.00  0.00    +0.000 A 
ATOM     20  C   UNL     1     -11.374   0.387  18.040  0.00  0.00    +0.000 A 
ATOM     21  C   UNL     1     -11.444  -6.565  16.772  0.00  0.00    +0.000 C 
ATOM     22  O   UNL     1     -11.712  -7.743  16.991  0.00  0.00    +0.000 OA
ATOM     23  N   UNL     1     -11.614  -5.975  15.534  0.00  0.00    +0.000 N 
ATOM     24  C   UNL     1     -11.630  -4.617  15.574  0.00  0.00    +0.000 C 
ATOM     25  O   UNL     1     -11.725  -3.936  14.554  0.00  0.00    +0.000 OA
ATOM     26  H   UNL     1     -13.447   0.293  15.341  0.00  0.00    +0.000 HD
ATOM     27  H   UNL     1     -12.888  -2.060  15.463  0.00  0.00    +0.000 HD
ATOM     28  H   UNL     1      -7.973  -3.355  20.304  0.00  0.00    +0.000 HD
ATOM     29  H   UNL     1      -6.350  -5.055  19.774  0.00  0.00    +0.000 HD
ATOM     30  H   UNL     1      -6.705  -6.092  16.704  0.00  0.00    +0.000 HD
ATOM     31  H   UNL     1      -8.513  -8.093  15.977  0.00  0.00    +0.000 HD
ATOM     32  H   UNL     1     -11.024   1.133  18.736  0.00  0.00    +0.000 HD
ATOM     33  H   UNL     1     -11.221  -6.422  14.739  0.00  0.00    +0.000 HD
ENDROOT
BRANCH  15  34
ATOM     34  C   UNL     1      -8.538  -9.073  18.784  0.00  0.00    +0.000 C 
ATOM     35  H   UNL     1      -7.450  -9.112  18.707  0.00  0.00    +0.000 HD
ATOM     36  H   UNL     1      -9.007  -9.968  18.371  0.00  0.00    +0.000 HD
ATOM     37  H   UNL     1      -8.820  -8.972  19.843  0.00  0.00    +0.000 HD
ENDBRANCH  15  34
BRANCH  18  38
ATOM     38  C   UNL     1      -9.232  -1.138  19.978  0.00  0.00    +0.000 C 
ATOM     39  H   UNL     1      -9.055  -0.098  19.682  0.00  0.00    +0.000 HD
ATOM     40  H   UNL     1      -8.305  -1.712  19.896  0.00  0.00    +0.000 HD
BRANCH  38  41
ATOM     41  C   UNL     1      -9.665  -1.225  21.430  0.00  0.00    +0.000 C 
ATOM     42  H   UNL     1      -8.759  -1.067  22.018  0.00  0.00    +0.000 HD
ATOM     43  H   UNL     1     -10.073  -2.218  21.617  0.00  0.00    +0.000 HD
BRANCH  41  44
ATOM     44  C   UNL     1     -10.764  -0.261  21.883  0.00  0.00    +0.000 C 
ATOM     45  H   UNL     1     -11.686  -0.845  22.012  0.00  0.00    +0.000 HD
ATOM     46  H   UNL     1     -10.962   0.501  21.122  0.00  0.00    +0.000 HD
BRANCH  44  47
ATOM     47  N   UNL     1     -10.399   0.351  23.182  0.00  0.00    +0.000 NA
ATOM     48  C   UNL     1     -10.257   1.809  23.056  0.00  0.00    +0.000 C 
ATOM     49  C   UNL     1      -9.933   2.469  24.399  0.00  0.00    +0.000 C 
ATOM     50  C   UNL     1      -8.706   1.854  25.062  0.00  0.00    +0.000 C 
ATOM     51  C   UNL     1      -8.839   0.343  25.134  0.00  0.00    +0.000 C 
ATOM     52  C   UNL     1      -9.202  -0.263  23.781  0.00  0.00    +0.000 C 
ATOM     53  H   UNL     1     -11.198   2.240  22.691  0.00  0.00    +0.000 HD
ATOM     54  H   UNL     1      -9.483   2.060  22.321  0.00  0.00    +0.000 HD
ATOM     55  H   UNL     1     -10.795   2.362  25.070  0.00  0.00    +0.000 HD
ATOM     56  H   UNL     1      -9.771   3.542  24.239  0.00  0.00    +0.000 HD
ATOM     57  H   UNL     1      -8.599   2.253  26.077  0.00  0.00    +0.000 HD
ATOM     58  H   UNL     1      -9.616   0.079  25.863  0.00  0.00    +0.000 HD
ATOM     59  H   UNL     1      -7.901  -0.107  25.478  0.00  0.00    +0.000 HD
ATOM     60  H   UNL     1      -9.370  -1.323  23.988  0.00  0.00    +0.000 HD
ATOM     61  H   UNL     1      -8.352  -0.197  23.090  0.00  0.00    +0.000 HD
BRANCH  50  62
ATOM     62  O   UNL     1      -7.517   2.221  24.363  0.00  0.00    +0.000 OA
ATOM     63  H   UNL     1      -7.637   2.024  23.419  0.00  0.00    +0.000 HD
ENDBRANCH  50  62
ENDBRANCH  44  47
ENDBRANCH  41  44
ENDBRANCH  38  41
ENDBRANCH  18  38
BRANCH   1  64
ATOM     64  O   UNL     1     -12.529   2.189  17.149  0.00  0.00    +0.000 OA
BRANCH  64  65
ATOM     65  C   UNL     1     -13.785   2.558  17.699  0.00  0.00    +0.000 C 
ATOM     66  H   UNL     1     -13.877   3.645  17.615  0.00  0.00    +0.000 HD
ATOM     67  H   UNL     1     -13.847   2.303  18.762  0.00  0.00    +0.000 HD
ATOM     68  H   UNL     1     -14.603   2.106  17.132  0.00  0.00    +0.000 HD
ENDBRANCH  64  65
ENDBRANCH   1  64
TORSDOF 8
ENDMDL
MODEL 6
REMARK VINA RESULT:    -8.441      2.057      3.012
REMARK INTER + INTRA:         -12.580
REMARK INTER:                 -12.241
REMARK INTRA:                  -0.339
REMARK UNBOUND:                -0.932
REMARK  Name = 
REMARK  8 active torsions:
REMARK  status: ('A' for Active; 'I' for Inactive)
REMARK    1  A    between atoms: C_1  and  O_2
REMARK    2  A    between atoms: O_2  and  C_3
REMARK    3  A    between atoms: N_17  and  C_18
REMARK    4  A    between atoms: N_21  and  C_22
REMARK    5  A    between atoms: C_22  and  C_23
REMARK    6  A    between atoms: C_23  and  C_24
REMARK    7  A    between atoms: C_24  and  N_25
REMARK    8  A    between atoms: C_28  and  O_29
REMARK                            x       y       z     vdW  Elec       q    Type
REMARK                         _______ _______ _______ _____ _____    ______ ____
ROOT
ATOM      1  C   UNL     1      -8.290  -6.739  19.753  0.00  0.00    +0.000 A 
ATOM      2  C   UNL     1      -8.187  -5.461  20.263  0.00  0.00    +0.000 A 
ATOM      3  C   UNL     1      -8.837  -4.399  19.609  0.00  0.00    +0.000 A 
ATOM      4  C   UNL     1      -9.598  -4.626  18.437  0.00  0.00    +0.000 A 
ATOM      5  C   UNL     1     -10.429  -3.896  17.602  0.00  0.00    +0.000 A 
ATOM      6  C   UNL     1     -10.572  -2.497  17.709  0.00  0.00    +0.000 A 
ATOM      7  C   UNL     1     -11.583  -1.921  16.932  0.00  0.00    +0.000 A 
ATOM      8  C   UNL     1     -12.078  -2.515  15.767  0.00  0.00    +0.000 A 
ATOM      9  C   UNL     1     -11.693  -3.874  15.511  0.00  0.00    +0.000 A 
ATOM     10  C   UNL     1     -11.781  -4.361  14.193  0.00  0.00    +0.000 A 
ATOM     11  C   UNL     1     -11.778  -3.456  13.125  0.00  0.00    +0.000 A 
ATOM     12  C   UNL     1     -11.756  -2.105  13.476  0.00  0.00    +0.000 A 
ATOM     13  C   UNL     1     -10.747  -1.067  13.388  0.00  0.00    +0.000 A 
ATOM     14  C   UNL     1     -11.215   0.013  14.120  0.00  0.00    +0.000 A 
ATOM     15  N   UNL     1     -12.534  -0.342  14.385  0.00  0.00    +0.000 N 
ATOM     16  C   UNL     1     -12.435  -1.721  14.648  0.00  0.00    +0.000 A 
ATOM     17  C   UNL     1     -10.976  -4.578  16.529  0.00  0.00    +0.000 A 
ATOM     18  N   UNL     1     -10.421  -5.863  16.698  0.00  0.00    +0.000 N 
ATOM     19  C   UNL     1      -9.661  -5.918  17.891  0.00  0.00    +0.000 A 
ATOM     20  C   UNL     1      -9.003  -6.969  18.571  0.00  0.00    +0.000 A 
ATOM     21  C   UNL     1     -11.650  -0.542  17.297  0.00  0.00    +0.000 C 
ATOM     22  O   UNL     1     -12.525   0.315  17.215  0.00  0.00    +0.000 OA
ATOM     23  N   UNL     1     -10.429  -0.311  17.902  0.00  0.00    +0.000 N 
ATOM     24  C   UNL     1      -9.759  -1.447  18.229  0.00  0.00    +0.000 C 
ATOM     25  O   UNL     1      -8.636  -1.419  18.731  0.00  0.00    +0.000 OA
ATOM     26  H   UNL     1      -7.633  -5.236  21.160  0.00  0.00    +0.000 HD
ATOM     27  H   UNL     1      -8.765  -3.408  20.046  0.00  0.00    +0.000 HD
ATOM     28  H   UNL     1     -11.581  -5.388  13.929  0.00  0.00    +0.000 HD
ATOM     29  H   UNL     1     -11.504  -3.787  12.131  0.00  0.00    +0.000 HD
ATOM     30  H   UNL     1      -9.754  -1.168  12.973  0.00  0.00    +0.000 HD
ATOM     31  H   UNL     1     -10.834   0.993  14.375  0.00  0.00    +0.000 HD
ATOM     32  H   UNL     1      -9.043  -7.998  18.248  0.00  0.00    +0.000 HD
ATOM     33  H   UNL     1      -9.905   0.485  17.621  0.00  0.00    +0.000 HD
ENDROOT
BRANCH  15  34
ATOM     34  C   UNL     1     -13.555   0.201  13.475  0.00  0.00    +0.000 C 
ATOM     35  H   UNL     1     -13.271   1.217  13.200  0.00  0.00    +0.000 HD
ATOM     36  H   UNL     1     -14.534   0.168  13.956  0.00  0.00    +0.000 HD
ATOM     37  H   UNL     1     -13.574  -0.426  12.571  0.00  0.00    +0.000 HD
ENDBRANCH  15  34
BRANCH  18  38
ATOM     38  C   UNL     1     -10.596  -6.947  15.719  0.00  0.00    +0.000 C 
ATOM     39  H   UNL     1     -10.569  -6.479  14.729  0.00  0.00    +0.000 HD
ATOM     40  H   UNL     1     -11.587  -7.371  15.905  0.00  0.00    +0.000 HD
BRANCH  38  41
ATOM     41  C   UNL     1      -9.611  -8.099  15.803  0.00  0.00    +0.000 C 
ATOM     42  H   UNL     1      -9.027  -7.921  16.709  0.00  0.00    +0.000 HD
ATOM     43  H   UNL     1      -8.968  -8.078  14.923  0.00  0.00    +0.000 HD
BRANCH  41  44
ATOM     44  C   UNL     1     -10.199  -9.512  15.823  0.00  0.00    +0.000 C 
ATOM     45  H   UNL     1     -10.486  -9.767  14.794  0.00  0.00    +0.000 HD
ATOM     46  H   UNL     1     -11.104  -9.556  16.438  0.00  0.00    +0.000 HD
BRANCH  44  47
ATOM     47  N   UNL     1      -9.178 -10.480  16.289  0.00  0.00    +0.000 NA
ATOM     48  C   UNL     1      -9.209 -11.707  15.481  0.00  0.00    +0.000 C 
ATOM     49  C   UNL     1      -8.126 -12.701  15.911  0.00  0.00    +0.000 C 
ATOM     50  C   UNL     1      -8.198 -13.023  17.399  0.00  0.00    +0.000 C 
ATOM     51  C   UNL     1      -8.224 -11.746  18.220  0.00  0.00    +0.000 C 
ATOM     52  C   UNL     1      -9.291 -10.773  17.728  0.00  0.00    +0.000 C 
ATOM     53  H   UNL     1      -9.034 -11.458  14.427  0.00  0.00    +0.000 HD
ATOM     54  H   UNL     1     -10.196 -12.183  15.538  0.00  0.00    +0.000 HD
ATOM     55  H   UNL     1      -7.139 -12.279  15.682  0.00  0.00    +0.000 HD
ATOM     56  H   UNL     1      -8.236 -13.622  15.325  0.00  0.00    +0.000 HD
ATOM     57  H   UNL     1      -7.324 -13.617  17.688  0.00  0.00    +0.000 HD
ATOM     58  H   UNL     1      -7.243 -11.256  18.166  0.00  0.00    +0.000 HD
ATOM     59  H   UNL     1      -8.418 -11.973  19.275  0.00  0.00    +0.000 HD
ATOM     60  H   UNL     1      -9.137  -9.868  18.323  0.00  0.00    +0.000 HD
ATOM     61  H   UNL     1     -10.294 -11.150  17.965  0.00  0.00    +0.000 HD
BRANCH  50  62
ATOM     62  O   UNL     1      -9.339 -13.829  17.687  0.00  0.00    +0.000 OA
ATOM     63  H   UNL     1      -9.363 -14.571  17.061  0.00  0.00    +0.000 HD
ENDBRANCH  50  62
ENDBRANCH  44  47
ENDBRANCH  41  44
ENDBRANCH  38  41
ENDBRANCH  18  38
BRANCH   1  64
ATOM     64  O   UNL     1      -7.756  -7.873  20.303  0.00  0.00    +0.000 OA
BRANCH  64  65
ATOM     65  C   UNL     1      -8.662  -8.907  20.660  0.00  0.00    +0.000 C 
ATOM     66  H   UNL     1      -8.437  -9.204  21.689  0.00  0.00    +0.000 HD
ATOM     67  H   UNL     1      -8.533  -9.789  20.025  0.00  0.00    +0.000 HD
ATOM     68  H   UNL     1      -9.693  -8.543  20.633  0.00  0.00    +0.000 HD
ENDBRANCH  64  65
ENDBRANCH   1  64
TORSDOF 8
ENDMDL
MODEL 7
REMARK VINA RESULT:    -8.275      1.929      2.981
REMARK INTER + INTRA:         -12.351
REMARK INTER:                 -11.607
REMARK INTRA:                  -0.744
REMARK UNBOUND:                -0.932
REMARK  Name = 
REMARK  8 active torsions:
REMARK  status: ('A' for Active; 'I' for Inactive)
REMARK    1  A    between atoms: C_1  and  O_2
REMARK    2  A    between atoms: O_2  and  C_3
REMARK    3  A    between atoms: N_17  and  C_18
REMARK    4  A    between atoms: N_21  and  C_22
REMARK    5  A    between atoms: C_22  and  C_23
REMARK    6  A    between atoms: C_23  and  C_24
REMARK    7  A    between atoms: C_24  and  N_25
REMARK    8  A    between atoms: C_28  and  O_29
REMARK                            x       y       z     vdW  Elec       q    Type
REMARK                         _______ _______ _______ _____ _____    ______ ____
ROOT
ATOM      1  C   UNL     1      -8.552  -4.551  19.908  0.00  0.00    +0.000 A 
ATOM      2  C   UNL     1      -8.631  -3.211  20.227  0.00  0.00    +0.000 A 
ATOM      3  C   UNL     1      -9.354  -2.341  19.392  0.00  0.00    +0.000 A 
ATOM      4  C   UNL     1     -10.004  -2.824  18.230  0.00  0.00    +0.000 A 
ATOM      5  C   UNL     1     -10.855  -2.327  17.256  0.00  0.00    +0.000 A 
ATOM      6  C   UNL     1     -11.166  -0.956  17.146  0.00  0.00    +0.000 A 
ATOM      7  C   UNL     1     -12.182  -0.625  16.244  0.00  0.00    +0.000 A 
ATOM      8  C   UNL     1     -12.527  -1.435  15.157  0.00  0.00    +0.000 A 
ATOM      9  C   UNL     1     -11.972  -2.759  15.125  0.00  0.00    +0.000 A 
ATOM     10  C   UNL     1     -11.915  -3.435  13.892  0.00  0.00    +0.000 A 
ATOM     11  C   UNL     1     -11.946  -2.696  12.703  0.00  0.00    +0.000 A 
ATOM     12  C   UNL     1     -12.102  -1.317  12.849  0.00  0.00    +0.000 A 
ATOM     13  C   UNL     1     -11.215  -0.186  12.657  0.00  0.00    +0.000 A 
ATOM     14  C   UNL     1     -11.852   0.921  13.197  0.00  0.00    +0.000 A 
ATOM     15  N   UNL     1     -13.136   0.447  13.446  0.00  0.00    +0.000 N 
ATOM     16  C   UNL     1     -12.897  -0.858  13.916  0.00  0.00    +0.000 A 
ATOM     17  C   UNL     1     -11.248  -3.218  16.271  0.00  0.00    +0.000 A 
ATOM     18  N   UNL     1     -10.562  -4.387  16.656  0.00  0.00    +0.000 N 
ATOM     19  C   UNL     1      -9.881  -4.178  17.880  0.00  0.00    +0.000 A 
ATOM     20  C   UNL     1      -9.154  -5.033  18.740  0.00  0.00    +0.000 A 
ATOM     21  C   UNL     1     -12.432   0.773  16.396  0.00  0.00    +0.000 C 
ATOM     22  O   UNL     1     -13.392   1.495  16.145  0.00  0.00    +0.000 OA
ATOM     23  N   UNL     1     -11.288   1.236  17.019  0.00  0.00    +0.000 N 
ATOM     24  C   UNL     1     -10.515   0.249  17.544  0.00  0.00    +0.000 C 
ATOM     25  O   UNL     1      -9.439   0.486  18.091  0.00  0.00    +0.000 OA
ATOM     26  H   UNL     1      -8.168  -2.794  21.107  0.00  0.00    +0.000 HD
ATOM     27  H   UNL     1      -9.425  -1.296  19.679  0.00  0.00    +0.000 HD
ATOM     28  H   UNL     1     -11.581  -4.456  13.793  0.00  0.00    +0.000 HD
ATOM     29  H   UNL     1     -11.569  -3.129  11.783  0.00  0.00    +0.000 HD
ATOM     30  H   UNL     1     -10.192  -0.221  12.311  0.00  0.00    +0.000 HD
ATOM     31  H   UNL     1     -11.604   1.967  13.322  0.00  0.00    +0.000 HD
ATOM     32  H   UNL     1      -9.054  -6.094  18.572  0.00  0.00    +0.000 HD
ATOM     33  H   UNL     1     -10.841   2.043  16.649  0.00  0.00    +0.000 HD
ENDROOT
BRANCH  15  34
ATOM     34  C   UNL     1     -14.150   0.725  12.417  0.00  0.00    +0.000 C 
ATOM     35  H   UNL     1     -14.865   1.445  12.819  0.00  0.00    +0.000 HD
ATOM     36  H   UNL     1     -14.635  -0.204  12.115  0.00  0.00    +0.000 HD
ATOM     37  H   UNL     1     -13.642   1.169  11.548  0.00  0.00    +0.000 HD
ENDBRANCH  15  34
BRANCH  18  38
ATOM     38  C   UNL     1     -10.545  -5.612  15.842  0.00  0.00    +0.000 C 
ATOM     39  H   UNL     1     -11.220  -5.433  14.998  0.00  0.00    +0.000 HD
ATOM     40  H   UNL     1     -10.944  -6.407  16.477  0.00  0.00    +0.000 HD
BRANCH  38  41
ATOM     41  C   UNL     1      -9.185  -6.085  15.361  0.00  0.00    +0.000 C 
ATOM     42  H   UNL     1      -8.559  -5.191  15.323  0.00  0.00    +0.000 HD
ATOM     43  H   UNL     1      -9.293  -6.518  14.366  0.00  0.00    +0.000 HD
BRANCH  41  44
ATOM     44  C   UNL     1      -8.500  -7.175  16.187  0.00  0.00    +0.000 C 
ATOM     45  H   UNL     1      -8.588  -6.896  17.246  0.00  0.00    +0.000 HD
ATOM     46  H   UNL     1      -7.432  -7.239  15.952  0.00  0.00    +0.000 HD
BRANCH  44  47
ATOM     47  N   UNL     1      -9.180  -8.475  15.978  0.00  0.00    +0.000 NA
ATOM     48  C   UNL     1      -8.924  -9.390  17.100  0.00  0.00    +0.000 C 
ATOM     49  C   UNL     1      -9.661 -10.722  16.930  0.00  0.00    +0.000 C 
ATOM     50  C   UNL     1      -9.348 -11.388  15.596  0.00  0.00    +0.000 C 
ATOM     51  C   UNL     1      -9.560 -10.415  14.449  0.00  0.00    +0.000 C 
ATOM     52  C   UNL     1      -8.839  -9.091  14.684  0.00  0.00    +0.000 C 
ATOM     53  H   UNL     1      -9.272  -8.933  18.034  0.00  0.00    +0.000 HD
ATOM     54  H   UNL     1      -7.848  -9.572  17.212  0.00  0.00    +0.000 HD
ATOM     55  H   UNL     1     -10.743 -10.545  16.997  0.00  0.00    +0.000 HD
ATOM     56  H   UNL     1      -9.384 -11.390  17.754  0.00  0.00    +0.000 HD
ATOM     57  H   UNL     1     -10.003 -12.255  15.456  0.00  0.00    +0.000 HD
ATOM     58  H   UNL     1     -10.634 -10.220  14.330  0.00  0.00    +0.000 HD
ATOM     59  H   UNL     1      -9.200 -10.847  13.508  0.00  0.00    +0.000 HD
ATOM     60  H   UNL     1      -9.154  -8.452  13.854  0.00  0.00    +0.000 HD
ATOM     61  H   UNL     1      -7.754  -9.223  14.598  0.00  0.00    +0.000 HD
BRANCH  50  62
ATOM     62  O   UNL     1      -8.013 -11.892  15.585  0.00  0.00    +0.000 OA
ATOM     63  H   UNL     1      -7.820 -12.246  14.700  0.00  0.00    +0.000 HD
ENDBRANCH  50  62
ENDBRANCH  44  47
ENDBRANCH  41  44
ENDBRANCH  38  41
ENDBRANCH  18  38
BRANCH   1  64
ATOM     64  O   UNL     1      -7.929  -5.521  20.647  0.00  0.00    +0.000 OA
BRANCH  64  65
ATOM     65  C   UNL     1      -7.413  -6.640  19.940  0.00  0.00    +0.000 C 
ATOM     66  H   UNL     1      -8.146  -7.449  20.018  0.00  0.00    +0.000 HD
ATOM     67  H   UNL     1      -6.478  -6.997  20.383  0.00  0.00    +0.000 HD
ATOM     68  H   UNL     1      -7.286  -6.402  18.880  0.00  0.00    +0.000 HD
ENDBRANCH  64  65
ENDBRANCH   1  64
TORSDOF 8
ENDMDL
MODEL 8
REMARK VINA RESULT:    -8.114      4.504      7.234
REMARK INTER + INTRA:         -12.129
REMARK INTER:                 -11.285
REMARK INTRA:                  -0.843
REMARK UNBOUND:                -0.932
REMARK  Name = 
REMARK  8 active torsions:
REMARK  status: ('A' for Active; 'I' for Inactive)
REMARK    1  A    between atoms: C_1  and  O_2
REMARK    2  A    between atoms: O_2  and  C_3
REMARK    3  A    between atoms: N_17  and  C_18
REMARK    4  A    between atoms: N_21  and  C_22
REMARK    5  A    between atoms: C_22  and  C_23
REMARK    6  A    between atoms: C_23  and  C_24
REMARK    7  A    between atoms: C_24  and  N_25
REMARK    8  A    between atoms: C_28  and  O_29
REMARK                            x       y       z     vdW  Elec       q    Type
REMARK                         _______ _______ _______ _____ _____    ______ ____
ROOT
ATOM      1  C   UNL     1      -7.548  -2.842  22.030  0.00  0.00    +0.000 A 
ATOM      2  C   UNL     1      -7.293  -1.998  23.090  0.00  0.00    +0.000 A 
ATOM      3  C   UNL     1      -8.109  -0.870  23.291  0.00  0.00    +0.000 A 
ATOM      4  C   UNL     1      -9.191  -0.593  22.419  0.00  0.00    +0.000 A 
ATOM      5  C   UNL     1     -10.234   0.315  22.344  0.00  0.00    +0.000 A 
ATOM      6  C   UNL     1     -10.337   1.426  23.208  0.00  0.00    +0.000 A 
ATOM      7  C   UNL     1     -11.535   2.146  23.145  0.00  0.00    +0.000 A 
ATOM      8  C   UNL     1     -12.361   2.150  22.017  0.00  0.00    +0.000 A 
ATOM      9  C   UNL     1     -12.074   1.186  20.992  0.00  0.00    +0.000 A 
ATOM     10  C   UNL     1     -12.558   1.422  19.691  0.00  0.00    +0.000 A 
ATOM     11  C   UNL     1     -12.878   2.730  19.305  0.00  0.00    +0.000 A 
ATOM     12  C   UNL     1     -12.749   3.704  20.297  0.00  0.00    +0.000 A 
ATOM     13  C   UNL     1     -11.812   4.789  20.513  0.00  0.00    +0.000 A 
ATOM     14  C   UNL     1     -12.034   5.263  21.797  0.00  0.00    +0.000 A 
ATOM     15  N   UNL     1     -13.211   4.618  22.164  0.00  0.00    +0.000 N 
ATOM     16  C   UNL     1     -13.040   3.331  21.623  0.00  0.00    +0.000 A 
ATOM     17  C   UNL     1     -11.083   0.189  21.258  0.00  0.00    +0.000 A 
ATOM     18  N   UNL     1     -10.504  -0.899  20.572  0.00  0.00    +0.000 N 
ATOM     19  C   UNL     1      -9.418  -1.425  21.311  0.00  0.00    +0.000 A 
ATOM     20  C   UNL     1      -8.587  -2.556  21.136  0.00  0.00    +0.000 A 
ATOM     21  C   UNL     1     -11.486   3.122  24.186  0.00  0.00    +0.000 C 
ATOM     22  O   UNL     1     -12.343   3.751  24.798  0.00  0.00    +0.000 OA
ATOM     23  N   UNL     1     -10.139   3.207  24.481  0.00  0.00    +0.000 N 
ATOM     24  C   UNL     1      -9.403   2.185  23.973  0.00  0.00    +0.000 C 
ATOM     25  O   UNL     1      -8.181   2.134  24.104  0.00  0.00    +0.000 OA
ATOM     26  H   UNL     1      -6.493  -2.170  23.792  0.00  0.00    +0.000 HD
ATOM     27  H   UNL     1      -7.907  -0.237  24.149  0.00  0.00    +0.000 HD
ATOM     28  H   UNL     1     -12.449   0.716  18.883  0.00  0.00    +0.000 HD
ATOM     29  H   UNL     1     -12.918   2.993  18.255  0.00  0.00    +0.000 HD
ATOM     30  H   UNL     1     -10.992   5.071  19.868  0.00  0.00    +0.000 HD
ATOM     31  H   UNL     1     -11.593   6.027  22.423  0.00  0.00    +0.000 HD
ATOM     32  H   UNL     1      -8.724  -3.272  20.341  0.00  0.00    +0.000 HD
ATOM     33  H   UNL     1      -9.724   4.108  24.540  0.00  0.00    +0.000 HD
ENDROOT
BRANCH  15  34
ATOM     34  C   UNL     1     -14.460   5.374  21.979  0.00  0.00    +0.000 C 
ATOM     35  H   UNL     1     -15.266   4.844  22.489  0.00  0.00    +0.000 HD
ATOM     36  H   UNL     1     -14.664   5.498  20.915  0.00  0.00    +0.000 HD
ATOM     37  H   UNL     1     -14.331   6.364  22.442  0.00  0.00    +0.000 HD
ENDBRANCH  15  34
BRANCH  18  38
ATOM     38  C   UNL     1     -10.969  -1.353  19.253  0.00  0.00    +0.000 C 
ATOM     39  H   UNL     1     -10.104  -1.299  18.583  0.00  0.00    +0.000 HD
ATOM     40  H   UNL     1     -11.733  -0.638  18.934  0.00  0.00    +0.000 HD
BRANCH  38  41
ATOM     41  C   UNL     1     -11.615  -2.725  19.200  0.00  0.00    +0.000 C 
ATOM     42  H   UNL     1     -12.598  -2.606  19.660  0.00  0.00    +0.000 HD
ATOM     43  H   UNL     1     -11.006  -3.424  19.774  0.00  0.00    +0.000 HD
BRANCH  41  44
ATOM     44  C   UNL     1     -11.753  -3.373  17.820  0.00  0.00    +0.000 C 
ATOM     45  H   UNL     1     -11.207  -2.746  17.102  0.00  0.00    +0.000 HD
ATOM     46  H   UNL     1     -12.800  -3.404  17.500  0.00  0.00    +0.000 HD
BRANCH  44  47
ATOM     47  N   UNL     1     -11.148  -4.726  17.830  0.00  0.00    +0.000 NA
ATOM     48  C   UNL     1      -9.780  -4.686  18.365  0.00  0.00    +0.000 C 
ATOM     49  C   UNL     1      -9.154  -6.083  18.435  0.00  0.00    +0.000 C 
ATOM     50  C   UNL     1      -9.199  -6.802  17.092  0.00  0.00    +0.000 C 
ATOM     51  C   UNL     1     -10.606  -6.785  16.523  0.00  0.00    +0.000 C 
ATOM     52  C   UNL     1     -11.200  -5.379  16.511  0.00  0.00    +0.000 C 
ATOM     53  H   UNL     1      -9.793  -4.276  19.382  0.00  0.00    +0.000 HD
ATOM     54  H   UNL     1      -9.147  -4.025  17.760  0.00  0.00    +0.000 HD
ATOM     55  H   UNL     1      -9.694  -6.682  19.180  0.00  0.00    +0.000 HD
ATOM     56  H   UNL     1      -8.116  -5.991  18.774  0.00  0.00    +0.000 HD
ATOM     57  H   UNL     1      -8.877  -7.841  17.221  0.00  0.00    +0.000 HD
ATOM     58  H   UNL     1     -11.251  -7.439  17.123  0.00  0.00    +0.000 HD
ATOM     59  H   UNL     1     -10.610  -7.174  15.498  0.00  0.00    +0.000 HD
ATOM     60  H   UNL     1     -12.235  -5.517  16.185  0.00  0.00    +0.000 HD
ATOM     61  H   UNL     1     -10.702  -4.757  15.757  0.00  0.00    +0.000 HD
BRANCH  50  62
ATOM     62  O   UNL     1      -8.279  -6.213  16.173  0.00  0.00    +0.000 OA
ATOM     63  H   UNL     1      -8.294  -5.249  16.292  0.00  0.00    +0.000 HD
ENDBRANCH  50  62
ENDBRANCH  44  47
ENDBRANCH  41  44
ENDBRANCH  38  41
ENDBRANCH  18  38
BRANCH   1  64
ATOM     64  O   UNL     1      -6.874  -3.997  21.737  0.00  0.00    +0.000 OA
BRANCH  64  65
ATOM     65  C   UNL     1      -5.506  -3.874  21.376  0.00  0.00    +0.000 C 
ATOM     66  H   UNL     1      -4.909  -4.322  22.177  0.00  0.00    +0.000 HD
ATOM     67  H   UNL     1      -5.207  -2.824  21.290  0.00  0.00    +0.000 HD
ATOM     68  H   UNL     1      -5.298  -4.424  20.454  0.00  0.00    +0.000 HD
ENDBRANCH  64  65
ENDBRANCH   1  64
TORSDOF 8
ENDMDL
MODEL 9
REMARK VINA RESULT:    -8.051      3.131      5.718
REMARK INTER + INTRA:         -12.042
REMARK INTER:                 -10.691
REMARK INTRA:                  -1.351
REMARK UNBOUND:                -0.932
REMARK  Name = 
REMARK  8 active torsions:
REMARK  status: ('A' for Active; 'I' for Inactive)
REMARK    1  A    between atoms: C_1  and  O_2
REMARK    2  A    between atoms: O_2  and  C_3
REMARK    3  A    between atoms: N_17  and  C_18
REMARK    4  A    between atoms: N_21  and  C_22
REMARK    5  A    between atoms: C_22  and  C_23
REMARK    6  A    between atoms: C_23  and  C_24
REMARK    7  A    between atoms: C_24  and  N_25
REMARK    8  A    between atoms: C_28  and  O_29
REMARK                            x       y       z     vdW  Elec       q    Type
REMARK                         _______ _______ _______ _____ _____    ______ ____
ROOT
ATOM      1  C   UNL     1      -7.725  -4.900  20.299  0.00  0.00    +0.000 A 
ATOM      2  C   UNL     1      -7.647  -4.249  21.512  0.00  0.00    +0.000 A 
ATOM      3  C   UNL     1      -8.388  -3.072  21.717  0.00  0.00    +0.000 A 
ATOM      4  C   UNL     1      -9.215  -2.548  20.693  0.00  0.00    +0.000 A 
ATOM      5  C   UNL     1     -10.133  -1.520  20.547  0.00  0.00    +0.000 A 
ATOM      6  C   UNL     1     -10.333  -0.537  21.538  0.00  0.00    +0.000 A 
ATOM      7  C   UNL     1     -11.420   0.322  21.341  0.00  0.00    +0.000 A 
ATOM      8  C   UNL     1     -11.964   0.583  20.080  0.00  0.00    +0.000 A 
ATOM      9  C   UNL     1     -11.535  -0.255  18.996  0.00  0.00    +0.000 A 
ATOM     10  C   UNL     1     -11.688   0.217  17.679  0.00  0.00    +0.000 A 
ATOM     11  C   UNL     1     -11.799   1.594  17.452  0.00  0.00    +0.000 A 
ATOM     12  C   UNL     1     -11.815   2.397  18.594  0.00  0.00    +0.000 A 
ATOM     13  C   UNL     1     -10.864   3.322  19.177  0.00  0.00    +0.000 A 
ATOM     14  C   UNL     1     -11.331   3.634  20.445  0.00  0.00    +0.000 A 
ATOM     15  N   UNL     1     -12.611   3.090  20.445  0.00  0.00    +0.000 N 
ATOM     16  C   UNL     1     -12.432   1.880  19.750  0.00  0.00    +0.000 A 
ATOM     17  C   UNL     1     -10.719  -1.391  19.300  0.00  0.00    +0.000 A 
ATOM     18  N   UNL     1     -10.095  -2.433  18.584  0.00  0.00    +0.000 N 
ATOM     19  C   UNL     1      -9.254  -3.184  19.441  0.00  0.00    +0.000 A 
ATOM     20  C   UNL     1      -8.505  -4.370  19.264  0.00  0.00    +0.000 A 
ATOM     21  C   UNL     1     -11.526   1.130  22.514  0.00  0.00    +0.000 C 
ATOM     22  O   UNL     1     -12.443   1.766  23.025  0.00  0.00    +0.000 OA
ATOM     23  N   UNL     1     -10.279   1.012  23.098  0.00  0.00    +0.000 N 
ATOM     24  C   UNL     1      -9.537  -0.010  22.597  0.00  0.00    +0.000 C 
ATOM     25  O   UNL     1      -8.385  -0.224  22.974  0.00  0.00    +0.000 OA
ATOM     26  H   UNL     1      -7.045  -4.613  22.330  0.00  0.00    +0.000 HD
ATOM     27  H   UNL     1      -8.333  -2.594  22.690  0.00  0.00    +0.000 HD
ATOM     28  H   UNL     1     -11.458  -0.378  16.808  0.00  0.00    +0.000 HD
ATOM     29  H   UNL     1     -11.576   2.005  16.475  0.00  0.00    +0.000 HD
ATOM     30  H   UNL     1      -9.897   3.592  18.775  0.00  0.00    +0.000 HD
ATOM     31  H   UNL     1     -10.980   4.245  21.266  0.00  0.00    +0.000 HD
ATOM     32  H   UNL     1      -8.518  -4.947  18.353  0.00  0.00    +0.000 HD
ATOM     33  H   UNL     1      -9.813   1.840  23.389  0.00  0.00    +0.000 HD
ENDROOT
BRANCH  15  34
ATOM     34  C   UNL     1     -13.716   4.008  20.125  0.00  0.00    +0.000 C 
ATOM     35  H   UNL     1     -14.489   3.450  19.595  0.00  0.00    +0.000 HD
ATOM     36  H   UNL     1     -13.342   4.846  19.534  0.00  0.00    +0.000 HD
ATOM     37  H   UNL     1     -14.130   4.387  21.071  0.00  0.00    +0.000 HD
ENDBRANCH  15  34
BRANCH  18  38
ATOM     38  C   UNL     1     -10.284  -2.640  17.141  0.00  0.00    +0.000 C 
ATOM     39  H   UNL     1      -9.392  -3.165  16.782  0.00  0.00    +0.000 HD
ATOM     40  H   UNL     1     -10.335  -1.643  16.693  0.00  0.00    +0.000 HD
BRANCH  38  41
ATOM     41  C   UNL     1     -11.549  -3.366  16.722  0.00  0.00    +0.000 C 
ATOM     42  H   UNL     1     -12.097  -2.663  16.091  0.00  0.00    +0.000 HD
ATOM     43  H   UNL     1     -12.128  -3.609  17.614  0.00  0.00    +0.000 HD
BRANCH  41  44
ATOM     44  C   UNL     1     -11.373  -4.701  15.996  0.00  0.00    +0.000 C 
ATOM     45  H   UNL     1     -10.965  -4.487  14.999  0.00  0.00    +0.000 HD
ATOM     46  H   UNL     1     -12.335  -5.207  15.856  0.00  0.00    +0.000 HD
BRANCH  44  47
ATOM     47  N   UNL     1     -10.413  -5.557  16.732  0.00  0.00    +0.000 NA
ATOM     48  C   UNL     1      -9.361  -6.059  15.836  0.00  0.00    +0.000 C 
ATOM     49  C   UNL     1      -8.327  -6.903  16.588  0.00  0.00    +0.000 C 
ATOM     50  C   UNL     1      -8.971  -8.042  17.369  0.00  0.00    +0.000 C 
ATOM     51  C   UNL     1     -10.094  -7.519  18.247  0.00  0.00    +0.000 C 
ATOM     52  C   UNL     1     -11.075  -6.653  17.462  0.00  0.00    +0.000 C 
ATOM     53  H   UNL     1      -8.833  -5.213  15.380  0.00  0.00    +0.000 HD
ATOM     54  H   UNL     1      -9.797  -6.645  15.019  0.00  0.00    +0.000 HD
ATOM     55  H   UNL     1      -7.773  -6.258  17.283  0.00  0.00    +0.000 HD
ATOM     56  H   UNL     1      -7.606  -7.306  15.867  0.00  0.00    +0.000 HD
ATOM     57  H   UNL     1      -8.217  -8.524  18.001  0.00  0.00    +0.000 HD
ATOM     58  H   UNL     1      -9.671  -6.925  19.067  0.00  0.00    +0.000 HD
ATOM     59  H   UNL     1     -10.647  -8.352  18.697  0.00  0.00    +0.000 HD
ATOM     60  H   UNL     1     -11.762  -6.259  18.216  0.00  0.00    +0.000 HD
ATOM     61  H   UNL     1     -11.667  -7.268  16.774  0.00  0.00    +0.000 HD
BRANCH  50  62
ATOM     62  O   UNL     1      -9.453  -9.052  16.484  0.00  0.00    +0.000 OA
ATOM     63  H   UNL     1      -9.385  -8.725  15.572  0.00  0.00    +0.000 HD
ENDBRANCH  50  62
ENDBRANCH  44  47
ENDBRANCH  41  44
ENDBRANCH  38  41
ENDBRANCH  18  38
BRANCH   1  64
ATOM     64  O   UNL     1      -7.103  -6.075  19.971  0.00  0.00    +0.000 OA
BRANCH  64  65
ATOM     65  C   UNL     1      -5.778  -5.987  19.467  0.00  0.00    +0.000 C 
ATOM     66  H   UNL     1      -5.132  -5.661  20.287  0.00  0.00    +0.000 HD
ATOM     67  H   UNL     1      -5.703  -5.241  18.669  0.00  0.00    +0.000 HD
ATOM     68  H   UNL     1      -5.427  -6.967  19.131  0.00  0.00    +0.000 HD
ENDBRANCH  64  65
ENDBRANCH   1  64
TORSDOF 8
ENDMDL
