
 OpenBabel01112422593D

 69 72  0  0  0  0  0  0  0  0999 V2000
    2.3454   -1.9254    3.4949 C   0  0  0  0  0  0  0  0  0  0  0  0
    3.5599   -1.7827    2.6549 C   0  0  0  0  0  0  0  0  0  0  0  0
    4.7470   -1.2755    3.1570 C   0  0  0  0  0  0  0  0  0  0  0  0
    5.6497   -1.2116    2.1403 N   0  0  0  0  0  0  0  0  0  0  0  0
    5.0832   -1.6723    0.9884 C   0  0  0  0  0  0  0  0  0  0  0  0
    5.7401   -1.6946   -0.1777 N   0  0  0  0  0  0  0  0  0  0  0  0
    4.9578   -2.1398   -1.1646 C   0  0  0  0  0  0  0  0  0  0  0  0
    3.6746   -2.5321   -1.0875 N   0  0  0  0  0  0  0  0  0  0  0  0
    3.0246   -2.5195    0.1127 C   0  0  0  0  0  0  0  0  0  0  0  0
    1.6812   -2.8449    0.1211 N   0  0  0  0  0  0  0  0  0  0  0  0
    0.8967   -2.7520   -1.1083 C   0  0  0  0  0  0  0  0  0  0  0  0
   -0.4586   -2.1390   -0.7151 C   0  0  0  0  0  0  0  0  0  0  0  0
   -1.1718   -2.8520    0.4805 C   0  0  0  0  0  0  0  0  0  0  0  0
   -2.2670   -1.8844    1.0643 C   0  0  0  0  0  0  0  0  0  0  0  0
   -3.3463   -1.3796    0.1883 N   0  0  0  0  0  0  0  0  0  0  0  0
   -4.2372   -2.4034   -0.3613 C   0  0  0  0  0  0  0  0  0  0  0  0
   -4.1773   -0.4111    0.9225 C   0  0  0  0  0  0  0  0  0  0  0  0
   -1.7679   -4.2030    0.0492 C   0  0  0  0  0  0  0  0  0  0  0  0
   -1.5094   -4.6860   -1.0494 O   0  0  0  0  0  0  0  0  0  0  0  0
   -2.5744   -4.8032    1.0114 N   0  0  0  0  0  0  0  0  0  0  0  0
   -3.3564   -5.9624    0.8467 C   0  0  0  0  0  0  0  0  0  0  0  0
   -3.2050   -6.8442   -0.2230 C   0  0  0  0  0  0  0  0  0  0  0  0
   -4.0485   -7.9454   -0.3578 C   0  0  0  0  0  0  0  0  0  0  0  0
   -5.0567   -8.1751    0.5754 C   0  0  0  0  0  0  0  0  0  0  0  0
   -5.2151   -7.3085    1.6613 C   0  0  0  0  0  0  0  0  0  0  0  0
   -6.2798   -7.5016    2.6808 C   0  0  0  0  0  0  0  0  0  0  0  0
   -6.4071   -6.7719    3.6506 O   0  0  0  0  0  0  0  0  0  0  0  0
   -7.0659   -8.5618    2.3673 O   0  0  0  0  0  0  0  0  0  0  0  0
   -8.1410   -8.8512    3.2818 C   0  0  0  0  0  0  0  0  0  0  0  0
   -9.3362   -7.9571    2.9749 C   0  0  0  0  0  0  0  0  0  0  0  0
   -8.5132  -10.3156    3.0982 C   0  0  0  0  0  0  0  0  0  0  0  0
   -4.3547   -6.2088    1.8031 C   0  0  0  0  0  0  0  0  0  0  0  0
   -0.1430   -3.1846    1.6052 C   0  0  0  0  0  0  0  0  0  0  0  0
    1.1446   -3.8126    1.0532 C   0  0  0  0  0  0  0  0  0  0  0  0
    3.7678   -2.0575    1.2435 C   0  0  0  0  0  0  0  0  0  0  0  0
    2.5581   -1.6805    4.5412 H   0  0  0  0  0  0  0  0  0  0  0  0
    1.9724   -2.9491    3.5067 H   0  0  0  0  0  0  0  0  0  0  0  0
    1.5697   -1.2344    3.1585 H   0  0  0  0  0  0  0  0  0  0  0  0
    5.0036   -0.9339    4.1512 H   0  0  0  0  0  0  0  0  0  0  0  0
    6.5902   -0.8505    2.1959 H   0  0  0  0  0  0  0  0  0  0  0  0
    5.4126   -2.1820   -2.1494 H   0  0  0  0  0  0  0  0  0  0  0  0
    0.7734   -3.7411   -1.5669 H   0  0  0  0  0  0  0  0  0  0  0  0
    1.3612   -2.1080   -1.8643 H   0  0  0  0  0  0  0  0  0  0  0  0
   -1.1100   -2.1048   -1.5959 H   0  0  0  0  0  0  0  0  0  0  0  0
   -0.2601   -1.0955   -0.4310 H   0  0  0  0  0  0  0  0  0  0  0  0
   -1.7196   -0.9936    1.4103 H   0  0  0  0  0  0  0  0  0  0  0  0
   -2.7045   -2.3088    1.9761 H   0  0  0  0  0  0  0  0  0  0  0  0
   -3.7078   -3.1362   -0.9694 H   0  0  0  0  0  0  0  0  0  0  0  0
   -4.9573   -1.9436   -1.0485 H   0  0  0  0  0  0  0  0  0  0  0  0
   -4.8026   -2.9239    0.4208 H   0  0  0  0  0  0  0  0  0  0  0  0
   -3.5738    0.4103    1.3214 H   0  0  0  0  0  0  0  0  0  0  0  0
   -4.7111   -0.8836    1.7572 H   0  0  0  0  0  0  0  0  0  0  0  0
   -4.9224    0.0390    0.2560 H   0  0  0  0  0  0  0  0  0  0  0  0
   -2.7520   -4.2878    1.8628 H   0  0  0  0  0  0  0  0  0  0  0  0
   -2.4289   -6.7087   -0.9696 H   0  0  0  0  0  0  0  0  0  0  0  0
   -3.9184   -8.6194   -1.2013 H   0  0  0  0  0  0  0  0  0  0  0  0
   -5.7097   -9.0326    0.4427 H   0  0  0  0  0  0  0  0  0  0  0  0
   -7.8069   -8.7034    4.3166 H   0  0  0  0  0  0  0  0  0  0  0  0
   -9.6598   -8.0768    1.9356 H   0  0  0  0  0  0  0  0  0  0  0  0
   -9.0812   -6.9000    3.1047 H   0  0  0  0  0  0  0  0  0  0  0  0
  -10.1819   -8.1871    3.6332 H   0  0  0  0  0  0  0  0  0  0  0  0
   -8.8266  -10.5206    2.0680 H   0  0  0  0  0  0  0  0  0  0  0  0
   -9.3316  -10.6064    3.7718 H   0  0  0  0  0  0  0  0  0  0  0  0
   -7.6545  -10.9629    3.3017 H   0  0  0  0  0  0  0  0  0  0  0  0
   -4.4943   -5.5331    2.6416 H   0  0  0  0  0  0  0  0  0  0  0  0
   -0.5644   -3.8469    2.3689 H   0  0  0  0  0  0  0  0  0  0  0  0
    0.1008   -2.2475    2.1099 H   0  0  0  0  0  0  0  0  0  0  0  0
    0.9222   -4.7601    0.5439 H   0  0  0  0  0  0  0  0  0  0  0  0
    1.8460   -4.0819    1.8444 H   0  0  0  0  0  0  0  0  0  0  0  0
  1  2  1  0  0  0  0
  1 36  1  0  0  0  0
  1 37  1  0  0  0  0
  1 38  1  0  0  0  0
  2  3  2  0  0  0  0
  2 35  1  0  0  0  0
  3  4  1  0  0  0  0
  3 39  1  0  0  0  0
  4  5  1  0  0  0  0
  4 40  1  0  0  0  0
  5  6  1  0  0  0  0
  5 35  2  0  0  0  0
  6  7  2  0  0  0  0
  7  8  1  0  0  0  0
  7 41  1  0  0  0  0
  8  9  2  0  0  0  0
  9 10  1  0  0  0  0
  9 35  1  0  0  0  0
 10 11  1  0  0  0  0
 10 34  1  0  0  0  0
 11 12  1  0  0  0  0
 11 42  1  0  0  0  0
 11 43  1  0  0  0  0
 12 13  1  0  0  0  0
 12 44  1  0  0  0  0
 12 45  1  0  0  0  0
 13 14  1  0  0  0  0
 13 18  1  0  0  0  0
 13 33  1  0  0  0  0
 14 15  1  0  0  0  0
 14 46  1  0  0  0  0
 14 47  1  0  0  0  0
 15 16  1  0  0  0  0
 15 17  1  0  0  0  0
 16 48  1  0  0  0  0
 16 49  1  0  0  0  0
 16 50  1  0  0  0  0
 17 51  1  0  0  0  0
 17 52  1  0  0  0  0
 17 53  1  0  0  0  0
 18 19  2  0  0  0  0
 18 20  1  0  0  0  0
 20 21  1  0  0  0  0
 20 54  1  0  0  0  0
 21 22  1  0  0  0  0
 21 32  2  0  0  0  0
 22 23  2  0  0  0  0
 22 55  1  0  0  0  0
 23 24  1  0  0  0  0
 23 56  1  0  0  0  0
 24 25  2  0  0  0  0
 24 57  1  0  0  0  0
 25 26  1  0  0  0  0
 25 32  1  0  0  0  0
 26 27  2  0  0  0  0
 26 28  1  0  0  0  0
 28 29  1  0  0  0  0
 29 30  1  0  0  0  0
 29 31  1  0  0  0  0
 29 58  1  0  0  0  0
 30 59  1  0  0  0  0
 30 60  1  0  0  0  0
 30 61  1  0  0  0  0
 31 62  1  0  0  0  0
 31 63  1  0  0  0  0
 31 64  1  0  0  0  0
 32 65  1  0  0  0  0
 33 34  1  0  0  0  0
 33 66  1  0  0  0  0
 33 67  1  0  0  0  0
 34 68  1  0  0  0  0
 34 69  1  0  0  0  0
M  END
$$$$
