
 OpenBabel01112422323D

 68 74  0  0  1  0  0  0  0  0999 V2000
   12.6176    2.2762    2.8802 C   0  0  0  0  0  0  0  0  0  0  0  0
   11.2887    1.9429    2.4825 O   0  0  0  0  0  0  0  0  0  0  0  0
   11.1965    1.3309    1.2581 C   0  0  0  0  0  0  0  0  0  0  0  0
   12.1817    0.5142    0.7188 C   0  0  0  0  0  0  0  0  0  0  0  0
   12.0395   -0.0180   -0.5657 C   0  0  0  0  0  0  0  0  0  0  0  0
   10.8913    0.2714   -1.3234 C   0  0  0  0  0  0  0  0  0  0  0  0
   10.4190    0.0398   -2.6067 C   0  0  0  0  0  0  0  0  0  0  0  0
   11.1133   -0.7451   -3.5494 C   0  0  0  0  0  0  0  0  0  0  0  0
   10.6261   -0.7022   -4.8660 C   0  0  0  0  0  0  0  0  0  0  0  0
    9.3223   -0.3316   -5.1824 C   0  0  0  0  0  0  0  0  0  0  0  0
    8.5452    0.2948   -4.1640 C   0  0  0  0  0  0  0  0  0  0  0  0
    7.1517    0.3351   -4.3007 C   0  0  0  0  0  0  0  0  0  0  0  0
    6.5255   -0.6872   -5.0351 C   0  0  0  0  0  0  0  0  0  0  0  0
    7.3884   -1.5528   -5.7107 C   0  0  0  0  0  0  0  0  0  0  0  0
    7.7176   -2.9581   -5.5859 C   0  0  0  0  0  0  0  0  0  0  0  0
    8.8225   -3.1850   -6.3933 C   0  0  0  0  0  0  0  0  0  0  0  0
    8.9162   -2.0117   -7.1281 N   0  0  0  0  0  0  0  0  0  0  0  0
    8.3282   -2.0149   -8.4735 C   0  0  0  0  0  0  0  0  0  0  0  0
    8.6050   -1.0208   -6.1865 C   0  0  0  0  0  0  0  0  0  0  0  0
    9.1804    0.5666   -2.9030 C   0  0  0  0  0  0  0  0  0  0  0  0
    8.8053    1.1062   -1.6656 N   0  0  0  0  0  0  0  0  0  0  0  0
    7.5231    1.7116   -1.3264 C   0  0  0  0  0  0  0  0  0  0  0  0
    6.3967    0.7162   -0.9683 C   0  0  0  0  0  0  0  0  0  0  0  0
    6.5309   -0.0125    0.2999 N   0  0  0  0  0  0  0  0  0  0  0  0
    5.3835   -0.9011    0.5772 C   0  0  1  0  0  0  0  0  0  0  0  0
    5.1981   -1.9779   -0.5121 C   0  0  0  0  0  0  0  0  0  0  0  0
    4.0921   -2.9697   -0.1714 C   0  0  0  0  0  0  0  0  0  0  0  0
    4.3268   -3.6205    1.1851 C   0  0  2  0  0  0  0  0  0  0  0  0
    3.2436   -4.4924    1.4872 O   0  0  0  0  0  0  0  0  0  0  0  0
    4.4640   -2.5630    2.2772 C   0  0  0  0  0  0  0  0  0  0  0  0
    5.5769   -1.5631    1.9563 C   0  0  0  0  0  0  0  0  0  0  0  0
    9.8732    1.0380   -0.7423 C   0  0  0  0  0  0  0  0  0  0  0  0
   10.0055    1.5574    0.5587 C   0  0  0  0  0  0  0  0  0  0  0  0
   11.5203   -1.4716   -5.6782 C   0  0  0  0  0  0  0  0  0  0  0  0
   11.7105   -1.5371   -6.8864 O   0  0  0  0  0  0  0  0  0  0  0  0
   12.2182   -2.1910   -4.7561 N   0  0  0  0  0  0  0  0  0  0  0  0
   12.0733   -1.8002   -3.4583 C   0  0  0  0  0  0  0  0  0  0  0  0
   12.5738   -2.3818   -2.5255 O   0  0  0  0  0  0  0  0  0  0  0  0
   12.5544    2.9259    3.7579 H   0  0  0  0  0  0  0  0  0  0  0  0
   13.1440    2.8290    2.0927 H   0  0  0  0  0  0  0  0  0  0  0  0
   13.1787    1.3828    3.1720 H   0  0  0  0  0  0  0  0  0  0  0  0
   13.0848    0.2705    1.2680 H   0  0  0  0  0  0  0  0  0  0  0  0
   12.8417   -0.6290   -0.9651 H   0  0  0  0  0  0  0  0  0  0  0  0
    6.5040    0.9232   -3.6655 H   0  0  0  0  0  0  0  0  0  0  0  0
    5.4902   -0.9483   -4.8525 H   0  0  0  0  0  0  0  0  0  0  0  0
    7.3022   -3.6609   -4.8783 H   0  0  0  0  0  0  0  0  0  0  0  0
    9.4531   -4.0365   -6.6126 H   0  0  0  0  0  0  0  0  0  0  0  0
    8.9742   -2.5964   -9.1331 H   0  0  0  0  0  0  0  0  0  0  0  0
    8.2072   -0.9897   -8.8269 H   0  0  0  0  0  0  0  0  0  0  0  0
    7.3424   -2.4973   -8.4103 H   0  0  0  0  0  0  0  0  0  0  0  0
    7.2265    2.3175   -2.1884 H   0  0  0  0  0  0  0  0  0  0  0  0
    7.6641    2.4287   -0.5095 H   0  0  0  0  0  0  0  0  0  0  0  0
    6.3348   -0.0170   -1.7710 H   0  0  0  0  0  0  0  0  0  0  0  0
    5.4523    1.2758   -0.9536 H   0  0  0  0  0  0  0  0  0  0  0  0
    6.6638    0.6377    1.0745 H   0  0  0  0  0  0  0  0  0  0  0  0
    4.4706   -0.2918    0.6280 H   0  0  0  0  0  0  0  0  0  0  0  0
    6.1398   -2.5220   -0.6600 H   0  0  0  0  0  0  0  0  0  0  0  0
    4.9355   -1.5205   -1.4718 H   0  0  0  0  0  0  0  0  0  0  0  0
    4.0272   -3.7399   -0.9494 H   0  0  0  0  0  0  0  0  0  0  0  0
    3.1201   -2.4590   -0.1795 H   0  0  0  0  0  0  0  0  0  0  0  0
    5.2352   -4.2326    1.1470 H   0  0  0  0  0  0  0  0  0  0  0  0
    2.4282   -3.9648    1.5236 H   0  0  0  0  0  0  0  0  0  0  0  0
    4.6582   -3.0516    3.2396 H   0  0  0  0  0  0  0  0  0  0  0  0
    3.5107   -2.0327    2.4017 H   0  0  0  0  0  0  0  0  0  0  0  0
    6.5418   -2.0858    1.9900 H   0  0  0  0  0  0  0  0  0  0  0  0
    5.6026   -0.7983    2.7425 H   0  0  0  0  0  0  0  0  0  0  0  0
    9.2284    2.1616    1.0149 H   0  0  0  0  0  0  0  0  0  0  0  0
   12.4829   -3.1387   -4.9775 H   0  0  0  0  0  0  0  0  0  0  0  0
  1  2  1  0  0  0  0
  1 39  1  0  0  0  0
  1 40  1  0  0  0  0
  1 41  1  0  0  0  0
  2  3  1  0  0  0  0
  3  4  1  0  0  0  0
  3 33  2  0  0  0  0
  4  5  2  0  0  0  0
  4 42  1  0  0  0  0
  5  6  1  0  0  0  0
  5 43  1  0  0  0  0
  6  7  1  0  0  0  0
  6 32  2  0  0  0  0
  7  8  1  0  0  0  0
  7 20  2  0  0  0  0
  8  9  2  0  0  0  0
  8 37  1  0  0  0  0
  9 10  1  0  0  0  0
  9 34  1  0  0  0  0
 10 11  1  0  0  0  0
 10 19  2  0  0  0  0
 11 12  2  0  0  0  0
 11 20  1  0  0  0  0
 12 13  1  0  0  0  0
 12 44  1  0  0  0  0
 13 14  2  0  0  0  0
 13 45  1  0  0  0  0
 14 15  1  0  0  0  0
 14 19  1  0  0  0  0
 15 16  2  0  0  0  0
 15 46  1  0  0  0  0
 16 17  1  0  0  0  0
 16 47  1  0  0  0  0
 17 18  1  0  0  0  0
 17 19  1  0  0  0  0
 18 48  1  0  0  0  0
 18 49  1  0  0  0  0
 18 50  1  0  0  0  0
 20 21  1  0  0  0  0
 21 22  1  0  0  0  0
 21 32  1  0  0  0  0
 22 23  1  0  0  0  0
 22 51  1  0  0  0  0
 22 52  1  0  0  0  0
 23 24  1  0  0  0  0
 23 53  1  0  0  0  0
 23 54  1  0  0  0  0
 24 55  1  0  0  0  0
 25 26  1  0  0  0  0
 25 31  1  0  0  0  0
 25 24  1  0  0  0  0
 25 56  1  1  0  0  0
 26 27  1  0  0  0  0
 26 57  1  0  0  0  0
 26 58  1  0  0  0  0
 27 28  1  0  0  0  0
 27 59  1  0  0  0  0
 27 60  1  0  0  0  0
 28 29  1  0  0  0  0
 28 30  1  0  0  0  0
 28 61  1  6  0  0  0
 29 62  1  0  0  0  0
 30 31  1  0  0  0  0
 30 63  1  0  0  0  0
 30 64  1  0  0  0  0
 31 65  1  0  0  0  0
 31 66  1  0  0  0  0
 32 33  1  0  0  0  0
 33 67  1  0  0  0  0
 34 35  2  0  0  0  0
 34 36  1  0  0  0  0
 36 37  1  0  0  0  0
 36 68  1  0  0  0  0
 37 38  2  0  0  0  0
M  END
$$$$
