MODEL 1
REMARK VINA RESULT:    -7.647      0.000      0.000
REMARK INTER + INTRA:         -11.552
REMARK INTER:                 -10.553
REMARK INTRA:                  -0.999
REMARK UNBOUND:                -0.999
REMARK  Name = 
REMARK  8 active torsions:
REMARK  status: ('A' for Active; 'I' for Inactive)
REMARK    1  A    between atoms: C_1  and  O_2
REMARK    2  A    between atoms: O_2  and  C_3
REMARK    3  A    between atoms: C_4  and  N_5
REMARK    4  A    between atoms: N_5  and  C_6
REMARK    5  A    between atoms: N_5  and  C_7
REMARK    6  A    between atoms: C_7  and  C_8
REMARK    7  A    between atoms: C_8  and  C_9
REMARK    8  A    between atoms: C_14  and  C_15
REMARK                            x       y       z     vdW  Elec       q    Type
REMARK                         _______ _______ _______ _____ _____    ______ ____
ROOT
ATOM      1  C   UNL     1     -11.310   2.648  19.705  0.00  0.00    +0.000 C 
ATOM      2  C   UNL     1     -10.784   1.403  18.924  0.00  0.00    +0.000 C 
ATOM      3  C   UNL     1     -10.236   0.411  19.962  0.00  0.00    +0.000 C 
ATOM      4  C   UNL     1     -11.381  -0.016  20.913  0.00  0.00    +0.000 C 
ATOM      5  O   UNL     1     -12.610   0.661  20.652  0.00  0.00    +0.000 OA
ATOM      6  C   UNL     1     -12.546   2.115  20.569  0.00  0.00    +0.000 C 
ATOM      7  N   UNL     1     -12.549   2.651  21.929  0.00  0.00    +0.000 N 
ATOM      8  C   UNL     1     -13.006   3.886  22.439  0.00  0.00    +0.000 A 
ATOM      9  C   UNL     1     -13.588   4.994  21.808  0.00  0.00    +0.000 A 
ATOM     10  C   UNL     1     -14.170   5.985  22.602  0.00  0.00    +0.000 A 
ATOM     11  C   UNL     1     -14.197   5.875  23.987  0.00  0.00    +0.000 A 
ATOM     12  C   UNL     1     -13.414   4.916  24.625  0.00  0.00    +0.000 A 
ATOM     13  C   UNL     1     -12.688   3.997  23.848  0.00  0.00    +0.000 A 
ATOM     14  C   UNL     1     -11.620   3.114  24.075  0.00  0.00    +0.000 A 
ATOM     15  C   UNL     1     -10.484   3.353  24.878  0.00  0.00    +0.000 A 
ATOM     16  C   UNL     1      -9.423   2.438  24.677  0.00  0.00    +0.000 A 
ATOM     17  C   UNL     1      -9.714   1.395  23.772  0.00  0.00    +0.000 A 
ATOM     18  C   UNL     1      -9.658   0.006  24.133  0.00  0.00    +0.000 A 
ATOM     19  C   UNL     1      -9.027  -0.725  25.158  0.00  0.00    +0.000 A 
ATOM     20  C   UNL     1      -9.427  -2.042  25.423  0.00  0.00    +0.000 A 
ATOM     21  C   UNL     1     -10.432  -2.653  24.679  0.00  0.00    +0.000 A 
ATOM     22  C   UNL     1     -11.005  -2.016  23.577  0.00  0.00    +0.000 A 
ATOM     23  C   UNL     1     -10.600  -0.707  23.280  0.00  0.00    +0.000 A 
ATOM     24  N   UNL     1     -11.093   0.155  22.308  0.00  0.00    +0.000 N 
ATOM     25  C   UNL     1     -10.758   1.326  22.865  0.00  0.00    +0.000 A 
ATOM     26  C   UNL     1     -11.706   2.317  22.941  0.00  0.00    +0.000 A 
ATOM     27  C   UNL     1      -8.186   3.020  25.097  0.00  0.00    +0.000 C 
ATOM     28  O   UNL     1      -7.022   2.698  24.979  0.00  0.00    +0.000 OA
ATOM     29  N   UNL     1      -8.598   4.228  25.675  0.00  0.00    +0.000 N 
ATOM     30  C   UNL     1     -10.009   4.578  25.522  0.00  0.00    +0.000 C 
ATOM     31  H   UNL     1     -11.640   3.457  19.043  0.00  0.00    +0.000 HD
ATOM     32  H   UNL     1     -11.667   0.905  18.507  0.00  0.00    +0.000 HD
ATOM     33  H   UNL     1      -9.385   0.838  20.513  0.00  0.00    +0.000 HD
ATOM     34  H   UNL     1      -9.827  -0.481  19.473  0.00  0.00    +0.000 HD
ATOM     35  H   UNL     1     -11.571  -1.084  20.762  0.00  0.00    +0.000 HD
ATOM     36  H   UNL     1     -13.585   5.103  20.731  0.00  0.00    +0.000 HD
ATOM     37  H   UNL     1     -14.640   6.840  22.122  0.00  0.00    +0.000 HD
ATOM     38  H   UNL     1     -14.784   6.574  24.576  0.00  0.00    +0.000 HD
ATOM     39  H   UNL     1     -13.388   4.859  25.710  0.00  0.00    +0.000 HD
ATOM     40  H   UNL     1      -8.278  -0.249  25.785  0.00  0.00    +0.000 HD
ATOM     41  H   UNL     1      -8.977  -2.577  26.254  0.00  0.00    +0.000 HD
ATOM     42  H   UNL     1     -10.793  -3.638  24.968  0.00  0.00    +0.000 HD
ATOM     43  H   UNL     1     -11.822  -2.484  23.034  0.00  0.00    +0.000 HD
ATOM     44  H   UNL     1      -7.915   4.809  26.135  0.00  0.00    +0.000 HD
ATOM     45  H   UNL     1     -10.447   4.770  26.498  0.00  0.00    +0.000 HD
ATOM     46  H   UNL     1     -10.093   5.440  24.849  0.00  0.00    +0.000 HD
ENDROOT
BRANCH   6  47
ATOM     47  C   UNL     1     -13.876   2.401  19.842  0.00  0.00    +0.000 C 
ATOM     48  H   UNL     1     -14.243   1.555  19.260  0.00  0.00    +0.000 HD
ATOM     49  H   UNL     1     -13.774   3.263  19.168  0.00  0.00    +0.000 HD
ATOM     50  H   UNL     1     -14.662   2.669  20.559  0.00  0.00    +0.000 HD
ENDBRANCH   6  47
BRANCH   1  51
ATOM     51  O   UNL     1     -10.307   3.134  20.618  0.00  0.00    +0.000 OA
BRANCH  51  52
ATOM     52  C   UNL     1      -9.697   4.387  20.418  0.00  0.00    +0.000 C 
ATOM     53  H   UNL     1      -9.301   4.724  21.379  0.00  0.00    +0.000 HD
ATOM     54  H   UNL     1      -8.918   4.382  19.655  0.00  0.00    +0.000 HD
ATOM     55  H   UNL     1     -10.462   5.118  20.139  0.00  0.00    +0.000 HD
ENDBRANCH  51  52
ENDBRANCH   1  51
BRANCH   2  56
ATOM     56  N   UNL     1      -9.885   1.541  17.749  0.00  0.00    +0.000 NA
BRANCH  56  57
ATOM     57  C   UNL     1     -10.394   1.102  16.465  0.00  0.00    +0.000 C 
ATOM     58  H   UNL     1     -10.064   0.090  16.229  0.00  0.00    +0.000 HD
ATOM     59  H   UNL     1     -11.489   1.044  16.483  0.00  0.00    +0.000 HD
ATOM     60  H   UNL     1     -10.127   1.791  15.662  0.00  0.00    +0.000 HD
ENDBRANCH  56  57
BRANCH  56  61
ATOM     61  C   UNL     1      -8.541   1.020  18.081  0.00  0.00    +0.000 C 
ATOM     62  H   UNL     1      -8.369   1.202  19.134  0.00  0.00    +0.000 HD
ATOM     63  H   UNL     1      -8.514  -0.071  17.936  0.00  0.00    +0.000 HD
BRANCH  61  64
ATOM     64  C   UNL     1      -7.358   1.641  17.329  0.00  0.00    +0.000 C 
ATOM     65  H   UNL     1      -6.495   0.946  17.327  0.00  0.00    +0.000 HD
ATOM     66  H   UNL     1      -7.622   1.821  16.287  0.00  0.00    +0.000 HD
BRANCH  64  67
ATOM     67  C   UNL     1      -6.959   2.904  17.966  0.00  0.00    +0.000 C 
ATOM     68  N   UNL     1      -6.616   3.876  18.477  0.00  0.00    +0.000 NA
ENDBRANCH  64  67
ENDBRANCH  61  64
ENDBRANCH  56  61
ENDBRANCH   2  56
TORSDOF 8
ENDMDL
MODEL 2
REMARK VINA RESULT:    -6.503      4.462      6.346
REMARK INTER + INTRA:          -9.974
REMARK INTER:                  -9.116
REMARK INTRA:                  -0.859
REMARK UNBOUND:                -0.999
REMARK  Name = 
REMARK  8 active torsions:
REMARK  status: ('A' for Active; 'I' for Inactive)
REMARK    1  A    between atoms: C_1  and  O_2
REMARK    2  A    between atoms: O_2  and  C_3
REMARK    3  A    between atoms: C_4  and  N_5
REMARK    4  A    between atoms: N_5  and  C_6
REMARK    5  A    between atoms: N_5  and  C_7
REMARK    6  A    between atoms: C_7  and  C_8
REMARK    7  A    between atoms: C_8  and  C_9
REMARK    8  A    between atoms: C_14  and  C_15
REMARK                            x       y       z     vdW  Elec       q    Type
REMARK                         _______ _______ _______ _____ _____    ______ ____
ROOT
ATOM      1  C   UNL     1     -10.257  -0.536  16.619  0.00  0.00    +0.000 C 
ATOM      2  C   UNL     1     -10.003  -1.364  15.321  0.00  0.00    +0.000 C 
ATOM      3  C   UNL     1      -9.630  -2.790  15.755  0.00  0.00    +0.000 C 
ATOM      4  C   UNL     1     -10.810  -3.407  16.545  0.00  0.00    +0.000 C 
ATOM      5  O   UNL     1     -11.891  -2.498  16.742  0.00  0.00    +0.000 OA
ATOM      6  C   UNL     1     -11.550  -1.192  17.295  0.00  0.00    +0.000 C 
ATOM      7  N   UNL     1     -11.413  -1.332  18.744  0.00  0.00    +0.000 N 
ATOM      8  C   UNL     1     -11.608  -0.402  19.789  0.00  0.00    +0.000 A 
ATOM      9  C   UNL     1     -11.982   0.949  19.772  0.00  0.00    +0.000 A 
ATOM     10  C   UNL     1     -12.340   1.558  20.978  0.00  0.00    +0.000 A 
ATOM     11  C   UNL     1     -12.351   0.843  22.169  0.00  0.00    +0.000 A 
ATOM     12  C   UNL     1     -11.751  -0.412  22.235  0.00  0.00    +0.000 A 
ATOM     13  C   UNL     1     -11.238  -0.988  21.060  0.00  0.00    +0.000 A 
ATOM     14  C   UNL     1     -10.356  -2.038  20.760  0.00  0.00    +0.000 A 
ATOM     15  C   UNL     1      -9.173  -2.372  21.457  0.00  0.00    +0.000 A 
ATOM     16  C   UNL     1      -8.316  -3.257  20.761  0.00  0.00    +0.000 A 
ATOM     17  C   UNL     1      -8.827  -3.720  19.530  0.00  0.00    +0.000 A 
ATOM     18  C   UNL     1      -9.030  -5.112  19.240  0.00  0.00    +0.000 A 
ATOM     19  C   UNL     1      -8.527  -6.317  19.767  0.00  0.00    +0.000 A 
ATOM     20  C   UNL     1      -9.166  -7.528  19.474  0.00  0.00    +0.000 A 
ATOM     21  C   UNL     1     -10.290  -7.570  18.654  0.00  0.00    +0.000 A 
ATOM     22  C   UNL     1     -10.758  -6.423  18.010  0.00  0.00    +0.000 A 
ATOM     23  C   UNL     1     -10.116  -5.204  18.271  0.00  0.00    +0.000 A 
ATOM     24  N   UNL     1     -10.457  -3.930  17.834  0.00  0.00    +0.000 N 
ATOM     25  C   UNL     1      -9.888  -3.206  18.805  0.00  0.00    +0.000 A 
ATOM     26  C   UNL     1     -10.624  -2.215  19.410  0.00  0.00    +0.000 A 
ATOM     27  C   UNL     1      -6.978  -3.134  21.254  0.00  0.00    +0.000 C 
ATOM     28  O   UNL     1      -5.902  -3.551  20.880  0.00  0.00    +0.000 OA
ATOM     29  N   UNL     1      -7.134  -2.265  22.342  0.00  0.00    +0.000 N 
ATOM     30  C   UNL     1      -8.454  -1.661  22.513  0.00  0.00    +0.000 C 
ATOM     31  H   UNL     1     -10.442   0.526  16.418  0.00  0.00    +0.000 HD
ATOM     32  H   UNL     1     -10.976  -1.471  14.829  0.00  0.00    +0.000 HD
ATOM     33  H   UNL     1      -8.698  -2.799  16.340  0.00  0.00    +0.000 HD
ATOM     34  H   UNL     1      -9.414  -3.421  14.885  0.00  0.00    +0.000 HD
ATOM     35  H   UNL     1     -11.207  -4.248  15.965  0.00  0.00    +0.000 HD
ATOM     36  H   UNL     1     -11.986   1.528  18.858  0.00  0.00    +0.000 HD
ATOM     37  H   UNL     1     -12.648   2.601  20.974  0.00  0.00    +0.000 HD
ATOM     38  H   UNL     1     -12.775   1.287  23.066  0.00  0.00    +0.000 HD
ATOM     39  H   UNL     1     -11.708  -0.954  23.177  0.00  0.00    +0.000 HD
ATOM     40  H   UNL     1      -7.683  -6.301  20.453  0.00  0.00    +0.000 HD
ATOM     41  H   UNL     1      -8.806  -8.444  19.933  0.00  0.00    +0.000 HD
ATOM     42  H   UNL     1     -10.827  -8.507  18.522  0.00  0.00    +0.000 HD
ATOM     43  H   UNL     1     -11.664  -6.458  17.411  0.00  0.00    +0.000 HD
ATOM     44  H   UNL     1      -6.339  -2.071  22.931  0.00  0.00    +0.000 HD
ATOM     45  H   UNL     1      -8.820  -1.860  23.518  0.00  0.00    +0.000 HD
ATOM     46  H   UNL     1      -8.387  -0.588  22.298  0.00  0.00    +0.000 HD
ENDROOT
BRANCH   6  47
ATOM     47  C   UNL     1     -12.818  -0.400  16.918  0.00  0.00    +0.000 C 
ATOM     48  H   UNL     1     -13.640  -0.538  17.621  0.00  0.00    +0.000 HD
ATOM     49  H   UNL     1     -13.172  -0.686  15.917  0.00  0.00    +0.000 HD
ATOM     50  H   UNL     1     -12.607   0.675  16.868  0.00  0.00    +0.000 HD
ENDBRANCH   6  47
BRANCH   1  51
ATOM     51  O   UNL     1      -9.155  -0.680  17.537  0.00  0.00    +0.000 OA
BRANCH  51  52
ATOM     52  C   UNL     1      -8.467   0.449  18.020  0.00  0.00    +0.000 C 
ATOM     53  H   UNL     1      -7.887   0.140  18.893  0.00  0.00    +0.000 HD
ATOM     54  H   UNL     1      -7.829   0.929  17.277  0.00  0.00    +0.000 HD
ATOM     55  H   UNL     1      -9.193   1.180  18.390  0.00  0.00    +0.000 HD
ENDBRANCH  51  52
ENDBRANCH   1  51
BRANCH   2  56
ATOM     56  N   UNL     1      -9.125  -0.860  14.233  0.00  0.00    +0.000 NA
BRANCH  56  57
ATOM     57  C   UNL     1      -9.435   0.442  13.677  0.00  0.00    +0.000 C 
ATOM     58  H   UNL     1      -8.803   1.221  14.105  0.00  0.00    +0.000 HD
ATOM     59  H   UNL     1      -9.218   0.464  12.602  0.00  0.00    +0.000 HD
ATOM     60  H   UNL     1     -10.490   0.696  13.791  0.00  0.00    +0.000 HD
ENDBRANCH  56  57
BRANCH  56  61
ATOM     61  C   UNL     1      -8.919  -1.920  13.223  0.00  0.00    +0.000 C 
ATOM     62  H   UNL     1      -7.933  -1.782  12.800  0.00  0.00    +0.000 HD
ATOM     63  H   UNL     1      -8.926  -2.908  13.707  0.00  0.00    +0.000 HD
BRANCH  61  64
ATOM     64  C   UNL     1      -9.902  -1.948  12.046  0.00  0.00    +0.000 C 
ATOM     65  H   UNL     1     -10.362  -0.950  11.903  0.00  0.00    +0.000 HD
ATOM     66  H   UNL     1      -9.380  -2.192  11.121  0.00  0.00    +0.000 HD
BRANCH  64  67
ATOM     67  C   UNL     1     -10.961  -2.936  12.294  0.00  0.00    +0.000 C 
ATOM     68  N   UNL     1     -11.771  -3.722  12.519  0.00  0.00    +0.000 NA
ENDBRANCH  64  67
ENDBRANCH  61  64
ENDBRANCH  56  61
ENDBRANCH   2  56
TORSDOF 8
ENDMDL
MODEL 3
REMARK VINA RESULT:    -6.310      3.861      5.651
REMARK INTER + INTRA:          -9.706
REMARK INTER:                  -8.882
REMARK INTRA:                  -0.825
REMARK UNBOUND:                -0.999
REMARK  Name = 
REMARK  8 active torsions:
REMARK  status: ('A' for Active; 'I' for Inactive)
REMARK    1  A    between atoms: C_1  and  O_2
REMARK    2  A    between atoms: O_2  and  C_3
REMARK    3  A    between atoms: C_4  and  N_5
REMARK    4  A    between atoms: N_5  and  C_6
REMARK    5  A    between atoms: N_5  and  C_7
REMARK    6  A    between atoms: C_7  and  C_8
REMARK    7  A    between atoms: C_8  and  C_9
REMARK    8  A    between atoms: C_14  and  C_15
REMARK                            x       y       z     vdW  Elec       q    Type
REMARK                         _______ _______ _______ _____ _____    ______ ____
ROOT
ATOM      1  C   UNL     1     -10.153   0.439  16.803  0.00  0.00    +0.000 C 
ATOM      2  C   UNL     1      -9.757  -0.192  15.432  0.00  0.00    +0.000 C 
ATOM      3  C   UNL     1      -9.480  -1.683  15.678  0.00  0.00    +0.000 C 
ATOM      4  C   UNL     1     -10.768  -2.359  16.210  0.00  0.00    +0.000 C 
ATOM      5  O   UNL     1     -11.841  -1.441  16.415  0.00  0.00    +0.000 OA
ATOM      6  C   UNL     1     -11.539  -0.253  17.203  0.00  0.00    +0.000 C 
ATOM      7  N   UNL     1     -11.592  -0.618  18.618  0.00  0.00    +0.000 N 
ATOM      8  C   UNL     1     -11.895   0.149  19.765  0.00  0.00    +0.000 A 
ATOM      9  C   UNL     1     -12.228   1.502  19.915  0.00  0.00    +0.000 A 
ATOM     10  C   UNL     1     -12.721   1.935  21.149  0.00  0.00    +0.000 A 
ATOM     11  C   UNL     1     -12.903   1.048  22.203  0.00  0.00    +0.000 A 
ATOM     12  C   UNL     1     -12.350  -0.229  22.143  0.00  0.00    +0.000 A 
ATOM     13  C   UNL     1     -11.706  -0.642  20.963  0.00  0.00    +0.000 A 
ATOM     14  C   UNL     1     -10.820  -1.673  20.612  0.00  0.00    +0.000 A 
ATOM     15  C   UNL     1      -9.746  -2.163  21.387  0.00  0.00    +0.000 A 
ATOM     16  C   UNL     1      -8.830  -2.970  20.670  0.00  0.00    +0.000 A 
ATOM     17  C   UNL     1      -9.192  -3.216  19.328  0.00  0.00    +0.000 A 
ATOM     18  C   UNL     1      -9.393  -4.536  18.800  0.00  0.00    +0.000 A 
ATOM     19  C   UNL     1      -8.993  -5.829  19.189  0.00  0.00    +0.000 A 
ATOM     20  C   UNL     1      -9.621  -6.951  18.632  0.00  0.00    +0.000 A 
ATOM     21  C   UNL     1     -10.632  -6.814  17.685  0.00  0.00    +0.000 A 
ATOM     22  C   UNL     1     -10.983  -5.562  17.177  0.00  0.00    +0.000 A 
ATOM     23  C   UNL     1     -10.348  -4.429  17.704  0.00  0.00    +0.000 A 
ATOM     24  N   UNL     1     -10.597  -3.089  17.434  0.00  0.00    +0.000 N 
ATOM     25  C   UNL     1     -10.137  -2.548  18.569  0.00  0.00    +0.000 A 
ATOM     26  C   UNL     1     -10.919  -1.629  19.228  0.00  0.00    +0.000 A 
ATOM     27  C   UNL     1      -7.564  -2.985  21.336  0.00  0.00    +0.000 C 
ATOM     28  O   UNL     1      -6.460  -3.390  21.036  0.00  0.00    +0.000 OA
ATOM     29  N   UNL     1      -7.834  -2.287  22.520  0.00  0.00    +0.000 N 
ATOM     30  C   UNL     1      -9.149  -1.656  22.622  0.00  0.00    +0.000 C 
ATOM     31  H   UNL     1     -10.283   1.527  16.750  0.00  0.00    +0.000 HD
ATOM     32  H   UNL     1     -10.662  -0.178  14.813  0.00  0.00    +0.000 HD
ATOM     33  H   UNL     1      -8.631  -1.824  16.363  0.00  0.00    +0.000 HD
ATOM     34  H   UNL     1      -9.172  -2.183  14.752  0.00  0.00    +0.000 HD
ATOM     35  H   UNL     1     -11.110  -3.082  15.461  0.00  0.00    +0.000 HD
ATOM     36  H   UNL     1     -12.100   2.214  19.110  0.00  0.00    +0.000 HD
ATOM     37  H   UNL     1     -12.998   2.979  21.271  0.00  0.00    +0.000 HD
ATOM     38  H   UNL     1     -13.427   1.369  23.099  0.00  0.00    +0.000 HD
ATOM     39  H   UNL     1     -12.442  -0.910  22.985  0.00  0.00    +0.000 HD
ATOM     40  H   UNL     1      -8.244  -5.957  19.966  0.00  0.00    +0.000 HD
ATOM     41  H   UNL     1      -9.347  -7.942  18.982  0.00  0.00    +0.000 HD
ATOM     42  H   UNL     1     -11.172  -7.695  17.342  0.00  0.00    +0.000 HD
ATOM     43  H   UNL     1     -11.806  -5.464  16.474  0.00  0.00    +0.000 HD
ATOM     44  H   UNL     1      -7.116  -2.222  23.225  0.00  0.00    +0.000 HD
ATOM     45  H   UNL     1      -9.646  -1.989  23.530  0.00  0.00    +0.000 HD
ATOM     46  H   UNL     1      -9.027  -0.567  22.588  0.00  0.00    +0.000 HD
ENDROOT
BRANCH   6  47
ATOM     47  C   UNL     1     -12.727   0.645  16.803  0.00  0.00    +0.000 C 
ATOM     48  H   UNL     1     -12.521   1.710  16.913  0.00  0.00    +0.000 HD
ATOM     49  H   UNL     1     -13.616   0.403  17.403  0.00  0.00    +0.000 HD
ATOM     50  H   UNL     1     -13.011   0.473  15.758  0.00  0.00    +0.000 HD
ENDBRANCH   6  47
BRANCH   1  51
ATOM     51  O   UNL     1      -9.182   0.106  17.814  0.00  0.00    +0.000 OA
BRANCH  51  52
ATOM     52  C   UNL     1      -8.475   1.114  18.495  0.00  0.00    +0.000 C 
ATOM     53  H   UNL     1      -9.183   1.647  19.134  0.00  0.00    +0.000 HD
ATOM     54  H   UNL     1      -7.627   0.747  19.073  0.00  0.00    +0.000 HD
ATOM     55  H   UNL     1      -8.117   1.853  17.770  0.00  0.00    +0.000 HD
ENDBRANCH  51  52
ENDBRANCH   1  51
BRANCH   2  56
ATOM     56  N   UNL     1      -8.735   0.431  14.552  0.00  0.00    +0.000 NA
BRANCH  56  57
ATOM     57  C   UNL     1      -8.898   0.269  13.121  0.00  0.00    +0.000 C 
ATOM     58  H   UNL     1      -8.927  -0.783  12.838  0.00  0.00    +0.000 HD
ATOM     59  H   UNL     1      -9.864   0.674  12.794  0.00  0.00    +0.000 HD
ATOM     60  H   UNL     1      -8.128   0.798  12.558  0.00  0.00    +0.000 HD
ENDBRANCH  56  57
BRANCH  56  61
ATOM     61  C   UNL     1      -7.380   0.109  15.050  0.00  0.00    +0.000 C 
ATOM     62  H   UNL     1      -7.493  -0.475  15.954  0.00  0.00    +0.000 HD
ATOM     63  H   UNL     1      -6.853  -0.526  14.322  0.00  0.00    +0.000 HD
BRANCH  61  64
ATOM     64  C   UNL     1      -6.476   1.296  15.404  0.00  0.00    +0.000 C 
ATOM     65  H   UNL     1      -6.595   2.107  14.658  0.00  0.00    +0.000 HD
ATOM     66  H   UNL     1      -6.757   1.712  16.371  0.00  0.00    +0.000 HD
BRANCH  64  67
ATOM     67  C   UNL     1      -5.070   0.871  15.435  0.00  0.00    +0.000 C 
ATOM     68  N   UNL     1      -3.976   0.512  15.432  0.00  0.00    +0.000 NA
ENDBRANCH  64  67
ENDBRANCH  61  64
ENDBRANCH  56  61
ENDBRANCH   2  56
TORSDOF 8
ENDMDL
MODEL 4
REMARK VINA RESULT:    -6.300      5.569      8.566
REMARK INTER + INTRA:          -9.694
REMARK INTER:                  -9.024
REMARK INTRA:                  -0.670
REMARK UNBOUND:                -0.999
REMARK  Name = 
REMARK  8 active torsions:
REMARK  status: ('A' for Active; 'I' for Inactive)
REMARK    1  A    between atoms: C_1  and  O_2
REMARK    2  A    between atoms: O_2  and  C_3
REMARK    3  A    between atoms: C_4  and  N_5
REMARK    4  A    between atoms: N_5  and  C_6
REMARK    5  A    between atoms: N_5  and  C_7
REMARK    6  A    between atoms: C_7  and  C_8
REMARK    7  A    between atoms: C_8  and  C_9
REMARK    8  A    between atoms: C_14  and  C_15
REMARK                            x       y       z     vdW  Elec       q    Type
REMARK                         _______ _______ _______ _____ _____    ______ ____
ROOT
ATOM      1  C   UNL     1     -11.022  -0.662  12.324  0.00  0.00    +0.000 C 
ATOM      2  C   UNL     1     -10.069  -1.768  11.774  0.00  0.00    +0.000 C 
ATOM      3  C   UNL     1      -9.751  -2.719  12.939  0.00  0.00    +0.000 C 
ATOM      4  C   UNL     1     -11.066  -3.365  13.440  0.00  0.00    +0.000 C 
ATOM      5  O   UNL     1     -12.226  -2.872  12.772  0.00  0.00    +0.000 OA
ATOM      6  C   UNL     1     -12.375  -1.423  12.712  0.00  0.00    +0.000 C 
ATOM      7  N   UNL     1     -12.925  -0.967  13.987  0.00  0.00    +0.000 N 
ATOM      8  C   UNL     1     -13.722   0.154  14.307  0.00  0.00    +0.000 A 
ATOM      9  C   UNL     1     -14.228   1.191  13.512  0.00  0.00    +0.000 A 
ATOM     10  C   UNL     1     -15.197   2.038  14.055  0.00  0.00    +0.000 A 
ATOM     11  C   UNL     1     -15.673   1.851  15.347  0.00  0.00    +0.000 A 
ATOM     12  C   UNL     1     -15.008   0.991  16.218  0.00  0.00    +0.000 A 
ATOM     13  C   UNL     1     -13.923   0.236  15.738  0.00  0.00    +0.000 A 
ATOM     14  C   UNL     1     -12.868  -0.483  16.320  0.00  0.00    +0.000 A 
ATOM     15  C   UNL     1     -12.125  -0.116  17.465  0.00  0.00    +0.000 A 
ATOM     16  C   UNL     1     -10.926  -0.846  17.642  0.00  0.00    +0.000 A 
ATOM     17  C   UNL     1     -10.720  -1.871  16.694  0.00  0.00    +0.000 A 
ATOM     18  C   UNL     1     -10.564  -3.252  17.056  0.00  0.00    +0.000 A 
ATOM     19  C   UNL     1     -10.209  -3.933  18.236  0.00  0.00    +0.000 A 
ATOM     20  C   UNL     1     -10.455  -5.307  18.351  0.00  0.00    +0.000 A 
ATOM     21  C   UNL     1     -11.036  -6.025  17.309  0.00  0.00    +0.000 A 
ATOM     22  C   UNL     1     -11.296  -5.425  16.076  0.00  0.00    +0.000 A 
ATOM     23  C   UNL     1     -11.033  -4.055  15.933  0.00  0.00    +0.000 A 
ATOM     24  N   UNL     1     -11.300  -3.228  14.849  0.00  0.00    +0.000 N 
ATOM     25  C   UNL     1     -11.368  -2.051  15.484  0.00  0.00    +0.000 A 
ATOM     26  C   UNL     1     -12.434  -1.222  15.228  0.00  0.00    +0.000 A 
ATOM     27  C   UNL     1     -10.016  -0.105  18.460  0.00  0.00    +0.000 C 
ATOM     28  O   UNL     1      -8.845  -0.238  18.749  0.00  0.00    +0.000 OA
ATOM     29  N   UNL     1     -10.790   0.993  18.858  0.00  0.00    +0.000 N 
ATOM     30  C   UNL     1     -12.102   1.131  18.229  0.00  0.00    +0.000 C 
ATOM     31  H   UNL     1     -11.236   0.122  11.587  0.00  0.00    +0.000 HD
ATOM     32  H   UNL     1     -10.665  -2.372  11.080  0.00  0.00    +0.000 HD
ATOM     33  H   UNL     1      -9.219  -2.196  13.747  0.00  0.00    +0.000 HD
ATOM     34  H   UNL     1      -9.062  -3.510  12.622  0.00  0.00    +0.000 HD
ATOM     35  H   UNL     1     -11.018  -4.440  13.236  0.00  0.00    +0.000 HD
ATOM     36  H   UNL     1     -13.877   1.358  12.501  0.00  0.00    +0.000 HD
ATOM     37  H   UNL     1     -15.609   2.836  13.441  0.00  0.00    +0.000 HD
ATOM     38  H   UNL     1     -16.530   2.420  15.698  0.00  0.00    +0.000 HD
ATOM     39  H   UNL     1     -15.343   0.880  17.246  0.00  0.00    +0.000 HD
ATOM     40  H   UNL     1      -9.804  -3.382  19.082  0.00  0.00    +0.000 HD
ATOM     41  H   UNL     1     -10.233  -5.811  19.288  0.00  0.00    +0.000 HD
ATOM     42  H   UNL     1     -11.309  -7.067  17.459  0.00  0.00    +0.000 HD
ATOM     43  H   UNL     1     -11.793  -5.983  15.287  0.00  0.00    +0.000 HD
ATOM     44  H   UNL     1     -10.407   1.647  19.523  0.00  0.00    +0.000 HD
ATOM     45  H   UNL     1     -12.871   1.201  18.996  0.00  0.00    +0.000 HD
ATOM     46  H   UNL     1     -12.092   2.004  17.567  0.00  0.00    +0.000 HD
ENDROOT
BRANCH   6  47
ATOM     47  C   UNL     1     -13.408  -1.306  11.572  0.00  0.00    +0.000 C 
ATOM     48  H   UNL     1     -13.074  -1.757  10.638  0.00  0.00    +0.000 HD
ATOM     49  H   UNL     1     -13.653  -0.252  11.377  0.00  0.00    +0.000 HD
ATOM     50  H   UNL     1     -14.352  -1.789  11.850  0.00  0.00    +0.000 HD
ENDBRANCH   6  47
BRANCH   1  51
ATOM     51  O   UNL     1     -10.482  -0.077  13.524  0.00  0.00    +0.000 OA
BRANCH  51  52
ATOM     52  C   UNL     1     -10.228   1.305  13.602  0.00  0.00    +0.000 C 
ATOM     53  H   UNL     1     -11.190   1.823  13.617  0.00  0.00    +0.000 HD
ATOM     54  H   UNL     1      -9.615   1.595  14.456  0.00  0.00    +0.000 HD
ATOM     55  H   UNL     1      -9.731   1.630  12.682  0.00  0.00    +0.000 HD
ENDBRANCH  51  52
ENDBRANCH   1  51
BRANCH   2  56
ATOM     56  N   UNL     1      -8.859  -1.431  10.979  0.00  0.00    +0.000 NA
BRANCH  56  57
ATOM     57  C   UNL     1      -7.864  -0.586  11.607  0.00  0.00    +0.000 C 
ATOM     58  H   UNL     1      -8.233  -0.156  12.538  0.00  0.00    +0.000 HD
ATOM     59  H   UNL     1      -6.985  -1.175  11.899  0.00  0.00    +0.000 HD
ATOM     60  H   UNL     1      -7.509   0.198  10.935  0.00  0.00    +0.000 HD
ENDBRANCH  56  57
BRANCH  56  61
ATOM     61  C   UNL     1      -9.255  -0.999   9.621  0.00  0.00    +0.000 C 
ATOM     62  H   UNL     1     -10.074  -0.299   9.725  0.00  0.00    +0.000 HD
ATOM     63  H   UNL     1      -8.427  -0.454   9.143  0.00  0.00    +0.000 HD
BRANCH  61  64
ATOM     64  C   UNL     1      -9.733  -2.096   8.662  0.00  0.00    +0.000 C 
ATOM     65  H   UNL     1     -10.129  -2.961   9.231  0.00  0.00    +0.000 HD
ATOM     66  H   UNL     1     -10.547  -1.727   8.038  0.00  0.00    +0.000 HD
BRANCH  64  67
ATOM     67  C   UNL     1      -8.621  -2.546   7.812  0.00  0.00    +0.000 C 
ATOM     68  N   UNL     1      -7.747  -2.929   7.169  0.00  0.00    +0.000 NA
ENDBRANCH  64  67
ENDBRANCH  61  64
ENDBRANCH  56  61
ENDBRANCH   2  56
TORSDOF 8
ENDMDL
MODEL 5
REMARK VINA RESULT:    -5.901      2.568      5.988
REMARK INTER + INTRA:          -9.142
REMARK INTER:                  -8.415
REMARK INTRA:                  -0.727
REMARK UNBOUND:                -0.999
REMARK  Name = 
REMARK  8 active torsions:
REMARK  status: ('A' for Active; 'I' for Inactive)
REMARK    1  A    between atoms: C_1  and  O_2
REMARK    2  A    between atoms: O_2  and  C_3
REMARK    3  A    between atoms: C_4  and  N_5
REMARK    4  A    between atoms: N_5  and  C_6
REMARK    5  A    between atoms: N_5  and  C_7
REMARK    6  A    between atoms: C_7  and  C_8
REMARK    7  A    between atoms: C_8  and  C_9
REMARK    8  A    between atoms: C_14  and  C_15
REMARK                            x       y       z     vdW  Elec       q    Type
REMARK                         _______ _______ _______ _____ _____    ______ ____
ROOT
ATOM      1  C   UNL     1     -10.782  -1.882  20.412  0.00  0.00    +0.000 C 
ATOM      2  C   UNL     1     -10.886  -2.107  18.871  0.00  0.00    +0.000 C 
ATOM      3  C   UNL     1     -10.947  -0.720  18.210  0.00  0.00    +0.000 C 
ATOM      4  C   UNL     1      -9.649   0.058  18.538  0.00  0.00    +0.000 C 
ATOM      5  O   UNL     1      -8.775  -0.651  19.415  0.00  0.00    +0.000 OA
ATOM      6  C   UNL     1      -9.368  -1.170  20.642  0.00  0.00    +0.000 C 
ATOM      7  N   UNL     1      -9.443  -0.078  21.611  0.00  0.00    +0.000 N 
ATOM      8  C   UNL     1      -9.423  -0.086  23.023  0.00  0.00    +0.000 A 
ATOM      9  C   UNL     1      -9.336  -1.139  23.945  0.00  0.00    +0.000 A 
ATOM     10  C   UNL     1      -9.087  -0.834  25.286  0.00  0.00    +0.000 A 
ATOM     11  C   UNL     1      -8.905   0.478  25.703  0.00  0.00    +0.000 A 
ATOM     12  C   UNL     1      -9.230   1.533  24.853  0.00  0.00    +0.000 A 
ATOM     13  C   UNL     1      -9.637   1.250  23.537  0.00  0.00    +0.000 A 
ATOM     14  C   UNL     1     -10.290   1.958  22.516  0.00  0.00    +0.000 A 
ATOM     15  C   UNL     1     -11.363   2.864  22.669  0.00  0.00    +0.000 A 
ATOM     16  C   UNL     1     -12.033   3.183  21.464  0.00  0.00    +0.000 A 
ATOM     17  C   UNL     1     -11.463   2.611  20.307  0.00  0.00    +0.000 A 
ATOM     18  C   UNL     1     -10.982   3.392  19.202  0.00  0.00    +0.000 A 
ATOM     19  C   UNL     1     -11.215   4.701  18.740  0.00  0.00    +0.000 A 
ATOM     20  C   UNL     1     -10.345   5.277  17.804  0.00  0.00    +0.000 A 
ATOM     21  C   UNL     1      -9.254   4.571  17.306  0.00  0.00    +0.000 A 
ATOM     22  C   UNL     1      -9.047   3.231  17.639  0.00  0.00    +0.000 A 
ATOM     23  C   UNL     1      -9.921   2.630  18.555  0.00  0.00    +0.000 A 
ATOM     24  N   UNL     1      -9.859   1.357  19.109  0.00  0.00    +0.000 N 
ATOM     25  C   UNL     1     -10.546   1.576  20.237  0.00  0.00    +0.000 A 
ATOM     26  C   UNL     1     -10.018   1.139  21.428  0.00  0.00    +0.000 A 
ATOM     27  C   UNL     1     -13.357   3.647  21.746  0.00  0.00    +0.000 C 
ATOM     28  O   UNL     1     -14.331   3.880  21.061  0.00  0.00    +0.000 OA
ATOM     29  N   UNL     1     -13.362   3.719  23.146  0.00  0.00    +0.000 N 
ATOM     30  C   UNL     1     -12.192   3.175  23.833  0.00  0.00    +0.000 C 
ATOM     31  H   UNL     1     -10.824  -2.817  20.983  0.00  0.00    +0.000 HD
ATOM     32  H   UNL     1      -9.922  -2.520  18.554  0.00  0.00    +0.000 HD
ATOM     33  H   UNL     1     -11.845  -0.167  18.525  0.00  0.00    +0.000 HD
ATOM     34  H   UNL     1     -11.046  -0.809  17.122  0.00  0.00    +0.000 HD
ATOM     35  H   UNL     1      -9.099   0.213  17.603  0.00  0.00    +0.000 HD
ATOM     36  H   UNL     1      -9.471  -2.171  23.646  0.00  0.00    +0.000 HD
ATOM     37  H   UNL     1      -9.001  -1.644  26.006  0.00  0.00    +0.000 HD
ATOM     38  H   UNL     1      -8.563   0.684  26.714  0.00  0.00    +0.000 HD
ATOM     39  H   UNL     1      -9.141   2.561  25.192  0.00  0.00    +0.000 HD
ATOM     40  H   UNL     1     -12.030   5.290  19.156  0.00  0.00    +0.000 HD
ATOM     41  H   UNL     1     -10.498   6.308  17.499  0.00  0.00    +0.000 HD
ATOM     42  H   UNL     1      -8.537   5.072  16.658  0.00  0.00    +0.000 HD
ATOM     43  H   UNL     1      -8.165   2.705  17.282  0.00  0.00    +0.000 HD
ATOM     44  H   UNL     1     -14.168   4.104  23.613  0.00  0.00    +0.000 HD
ATOM     45  H   UNL     1     -11.772   3.929  24.494  0.00  0.00    +0.000 HD
ATOM     46  H   UNL     1     -12.483   2.264  24.369  0.00  0.00    +0.000 HD
ENDROOT
BRANCH   6  47
ATOM     47  C   UNL     1      -8.298  -2.209  21.038  0.00  0.00    +0.000 C 
ATOM     48  H   UNL     1      -7.405  -2.170  20.414  0.00  0.00    +0.000 HD
ATOM     49  H   UNL     1      -8.708  -3.227  20.989  0.00  0.00    +0.000 HD
ATOM     50  H   UNL     1      -7.977  -2.062  22.077  0.00  0.00    +0.000 HD
ENDBRANCH   6  47
BRANCH   1  51
ATOM     51  O   UNL     1     -11.811  -0.980  20.864  0.00  0.00    +0.000 OA
BRANCH  51  52
ATOM     52  C   UNL     1     -12.582  -1.279  22.002  0.00  0.00    +0.000 C 
ATOM     53  H   UNL     1     -13.558  -0.800  21.882  0.00  0.00    +0.000 HD
ATOM     54  H   UNL     1     -12.692  -2.347  22.194  0.00  0.00    +0.000 HD
ATOM     55  H   UNL     1     -12.126  -0.806  22.878  0.00  0.00    +0.000 HD
ENDBRANCH  51  52
ENDBRANCH   1  51
BRANCH   2  56
ATOM     56  N   UNL     1     -11.871  -3.052  18.285  0.00  0.00    +0.000 NA
BRANCH  56  57
ATOM     57  C   UNL     1     -11.574  -4.467  18.382  0.00  0.00    +0.000 C 
ATOM     58  H   UNL     1     -12.198  -4.957  19.129  0.00  0.00    +0.000 HD
ATOM     59  H   UNL     1     -11.812  -4.977  17.439  0.00  0.00    +0.000 HD
ATOM     60  H   UNL     1     -10.517  -4.652  18.582  0.00  0.00    +0.000 HD
ENDBRANCH  56  57
BRANCH  56  61
ATOM     61  C   UNL     1     -12.254  -2.602  16.930  0.00  0.00    +0.000 C 
ATOM     62  H   UNL     1     -13.333  -2.654  16.860  0.00  0.00    +0.000 HD
ATOM     63  H   UNL     1     -11.974  -1.547  16.790  0.00  0.00    +0.000 HD
BRANCH  61  64
ATOM     64  C   UNL     1     -11.698  -3.413  15.753  0.00  0.00    +0.000 C 
ATOM     65  H   UNL     1     -11.237  -4.353  16.116  0.00  0.00    +0.000 HD
ATOM     66  H   UNL     1     -12.502  -3.696  15.073  0.00  0.00    +0.000 HD
BRANCH  64  67
ATOM     67  C   UNL     1     -10.689  -2.628  15.029  0.00  0.00    +0.000 C 
ATOM     68  N   UNL     1      -9.913  -1.982  14.478  0.00  0.00    +0.000 NA
ENDBRANCH  64  67
ENDBRANCH  61  64
ENDBRANCH  56  61
ENDBRANCH   2  56
TORSDOF 8
ENDMDL
MODEL 6
REMARK VINA RESULT:    -5.622      5.346      9.644
REMARK INTER + INTRA:          -8.758
REMARK INTER:                  -7.988
REMARK INTRA:                  -0.770
REMARK UNBOUND:                -0.999
REMARK  Name = 
REMARK  8 active torsions:
REMARK  status: ('A' for Active; 'I' for Inactive)
REMARK    1  A    between atoms: C_1  and  O_2
REMARK    2  A    between atoms: O_2  and  C_3
REMARK    3  A    between atoms: C_4  and  N_5
REMARK    4  A    between atoms: N_5  and  C_6
REMARK    5  A    between atoms: N_5  and  C_7
REMARK    6  A    between atoms: C_7  and  C_8
REMARK    7  A    between atoms: C_8  and  C_9
REMARK    8  A    between atoms: C_14  and  C_15
REMARK                            x       y       z     vdW  Elec       q    Type
REMARK                         _______ _______ _______ _____ _____    ______ ____
ROOT
ATOM      1  C   UNL     1      -9.516   0.508  17.168  0.00  0.00    +0.000 C 
ATOM      2  C   UNL     1      -9.677   2.056  17.048  0.00  0.00    +0.000 C 
ATOM      3  C   UNL     1     -10.731   2.322  15.962  0.00  0.00    +0.000 C 
ATOM      4  C   UNL     1     -12.078   1.690  16.393  0.00  0.00    +0.000 C 
ATOM      5  O   UNL     1     -11.991   0.965  17.619  0.00  0.00    +0.000 OA
ATOM      6  C   UNL     1     -10.923  -0.023  17.715  0.00  0.00    +0.000 C 
ATOM      7  N   UNL     1     -11.363  -1.240  17.035  0.00  0.00    +0.000 N 
ATOM      8  C   UNL     1     -11.019  -2.594  17.240  0.00  0.00    +0.000 A 
ATOM      9  C   UNL     1     -10.142  -3.203  18.147  0.00  0.00    +0.000 A 
ATOM     10  C   UNL     1     -10.185  -4.592  18.291  0.00  0.00    +0.000 A 
ATOM     11  C   UNL     1     -11.091  -5.361  17.570  0.00  0.00    +0.000 A 
ATOM     12  C   UNL     1     -11.786  -4.801  16.500  0.00  0.00    +0.000 A 
ATOM     13  C   UNL     1     -11.640  -3.429  16.233  0.00  0.00    +0.000 A 
ATOM     14  C   UNL     1     -11.917  -2.584  15.146  0.00  0.00    +0.000 A 
ATOM     15  C   UNL     1     -11.740  -2.884  13.777  0.00  0.00    +0.000 A 
ATOM     16  C   UNL     1     -11.788  -1.757  12.922  0.00  0.00    +0.000 A 
ATOM     17  C   UNL     1     -12.089  -0.542  13.572  0.00  0.00    +0.000 A 
ATOM     18  C   UNL     1     -13.225   0.268  13.232  0.00  0.00    +0.000 A 
ATOM     19  C   UNL     1     -14.059   0.379  12.102  0.00  0.00    +0.000 A 
ATOM     20  C   UNL     1     -15.286   1.049  12.203  0.00  0.00    +0.000 A 
ATOM     21  C   UNL     1     -15.695   1.625  13.402  0.00  0.00    +0.000 A 
ATOM     22  C   UNL     1     -14.855   1.649  14.517  0.00  0.00    +0.000 A 
ATOM     23  C   UNL     1     -13.613   1.005  14.428  0.00  0.00    +0.000 A 
ATOM     24  N   UNL     1     -12.662   0.810  15.422  0.00  0.00    +0.000 N 
ATOM     25  C   UNL     1     -12.049  -0.273  14.929  0.00  0.00    +0.000 A 
ATOM     26  C   UNL     1     -11.827  -1.343  15.762  0.00  0.00    +0.000 A 
ATOM     27  C   UNL     1     -11.107  -2.042  11.697  0.00  0.00    +0.000 C 
ATOM     28  O   UNL     1     -10.756  -1.365  10.752  0.00  0.00    +0.000 OA
ATOM     29  N   UNL     1     -10.803  -3.404  11.826  0.00  0.00    +0.000 N 
ATOM     30  C   UNL     1     -11.081  -4.015  13.125  0.00  0.00    +0.000 C 
ATOM     31  H   UNL     1      -8.715   0.215  17.858  0.00  0.00    +0.000 HD
ATOM     32  H   UNL     1     -10.149   2.390  17.978  0.00  0.00    +0.000 HD
ATOM     33  H   UNL     1     -10.399   1.948  14.982  0.00  0.00    +0.000 HD
ATOM     34  H   UNL     1     -10.875   3.398  15.811  0.00  0.00    +0.000 HD
ATOM     35  H   UNL     1     -12.798   2.498  16.556  0.00  0.00    +0.000 HD
ATOM     36  H   UNL     1      -9.428  -2.627  18.724  0.00  0.00    +0.000 HD
ATOM     37  H   UNL     1      -9.521  -5.073  19.004  0.00  0.00    +0.000 HD
ATOM     38  H   UNL     1     -11.216  -6.415  17.804  0.00  0.00    +0.000 HD
ATOM     39  H   UNL     1     -12.455  -5.411  15.898  0.00  0.00    +0.000 HD
ATOM     40  H   UNL     1     -13.783  -0.110  11.171  0.00  0.00    +0.000 HD
ATOM     41  H   UNL     1     -15.948   1.078  11.343  0.00  0.00    +0.000 HD
ATOM     42  H   UNL     1     -16.693   2.052  13.482  0.00  0.00    +0.000 HD
ATOM     43  H   UNL     1     -15.205   2.059  15.460  0.00  0.00    +0.000 HD
ATOM     44  H   UNL     1     -10.384  -3.888  11.047  0.00  0.00    +0.000 HD
ATOM     45  H   UNL     1     -11.716  -4.888  12.991  0.00  0.00    +0.000 HD
ATOM     46  H   UNL     1     -10.132  -4.260  13.615  0.00  0.00    +0.000 HD
ENDROOT
BRANCH   6  47
ATOM     47  C   UNL     1     -10.871  -0.214  19.245  0.00  0.00    +0.000 C 
ATOM     48  H   UNL     1     -11.259   0.639  19.802  0.00  0.00    +0.000 HD
ATOM     49  H   UNL     1      -9.840  -0.402  19.578  0.00  0.00    +0.000 HD
ATOM     50  H   UNL     1     -11.451  -1.093  19.549  0.00  0.00    +0.000 HD
ENDBRANCH   6  47
BRANCH   1  51
ATOM     51  O   UNL     1      -9.293  -0.081  15.873  0.00  0.00    +0.000 OA
BRANCH  51  52
ATOM     52  C   UNL     1      -7.988  -0.328  15.408  0.00  0.00    +0.000 C 
ATOM     53  H   UNL     1      -7.469   0.632  15.339  0.00  0.00    +0.000 HD
ATOM     54  H   UNL     1      -7.425  -1.032  16.022  0.00  0.00    +0.000 HD
ATOM     55  H   UNL     1      -8.038  -0.712  14.384  0.00  0.00    +0.000 HD
ENDBRANCH  51  52
ENDBRANCH   1  51
BRANCH   2  56
ATOM     56  N   UNL     1      -8.501   2.955  16.922  0.00  0.00    +0.000 NA
BRANCH  56  57
ATOM     57  C   UNL     1      -8.202   3.480  15.604  0.00  0.00    +0.000 C 
ATOM     58  H   UNL     1      -8.825   4.343  15.367  0.00  0.00    +0.000 HD
ATOM     59  H   UNL     1      -7.173   3.857  15.563  0.00  0.00    +0.000 HD
ATOM     60  H   UNL     1      -8.290   2.717  14.829  0.00  0.00    +0.000 HD
ENDBRANCH  56  57
BRANCH  56  61
ATOM     61  C   UNL     1      -7.339   2.363  17.618  0.00  0.00    +0.000 C 
ATOM     62  H   UNL     1      -7.465   2.540  18.678  0.00  0.00    +0.000 HD
ATOM     63  H   UNL     1      -7.329   1.272  17.474  0.00  0.00    +0.000 HD
BRANCH  61  64
ATOM     64  C   UNL     1      -5.958   2.915  17.242  0.00  0.00    +0.000 C 
ATOM     65  H   UNL     1      -6.063   3.838  16.639  0.00  0.00    +0.000 HD
ATOM     66  H   UNL     1      -5.399   3.183  18.139  0.00  0.00    +0.000 HD
BRANCH  64  67
ATOM     67  C   UNL     1      -5.206   1.916  16.469  0.00  0.00    +0.000 C 
ATOM     68  N   UNL     1      -4.638   1.143  15.834  0.00  0.00    +0.000 NA
ENDBRANCH  64  67
ENDBRANCH  61  64
ENDBRANCH  56  61
ENDBRANCH   2  56
TORSDOF 8
ENDMDL
MODEL 7
REMARK VINA RESULT:    -5.508      7.052     10.289
REMARK INTER + INTRA:          -8.600
REMARK INTER:                  -7.585
REMARK INTRA:                  -1.015
REMARK UNBOUND:                -0.999
REMARK  Name = 
REMARK  8 active torsions:
REMARK  status: ('A' for Active; 'I' for Inactive)
REMARK    1  A    between atoms: C_1  and  O_2
REMARK    2  A    between atoms: O_2  and  C_3
REMARK    3  A    between atoms: C_4  and  N_5
REMARK    4  A    between atoms: N_5  and  C_6
REMARK    5  A    between atoms: N_5  and  C_7
REMARK    6  A    between atoms: C_7  and  C_8
REMARK    7  A    between atoms: C_8  and  C_9
REMARK    8  A    between atoms: C_14  and  C_15
REMARK                            x       y       z     vdW  Elec       q    Type
REMARK                         _______ _______ _______ _____ _____    ______ ____
ROOT
ATOM      1  C   UNL     1      -9.942  -0.077  10.972  0.00  0.00    +0.000 C 
ATOM      2  C   UNL     1      -8.657  -0.923  11.233  0.00  0.00    +0.000 C 
ATOM      3  C   UNL     1      -8.871  -1.685  12.550  0.00  0.00    +0.000 C 
ATOM      4  C   UNL     1     -10.093  -2.625  12.402  0.00  0.00    +0.000 C 
ATOM      5  O   UNL     1     -10.752  -2.496  11.143  0.00  0.00    +0.000 OA
ATOM      6  C   UNL     1     -11.110  -1.144  10.732  0.00  0.00    +0.000 C 
ATOM      7  N   UNL     1     -12.351  -0.774  11.411  0.00  0.00    +0.000 N 
ATOM      8  C   UNL     1     -13.384   0.114  11.039  0.00  0.00    +0.000 A 
ATOM      9  C   UNL     1     -13.545   0.932   9.913  0.00  0.00    +0.000 A 
ATOM     10  C   UNL     1     -14.790   1.524   9.688  0.00  0.00    +0.000 A 
ATOM     11  C   UNL     1     -15.860   1.295  10.545  0.00  0.00    +0.000 A 
ATOM     12  C   UNL     1     -15.646   0.694  11.783  0.00  0.00    +0.000 A 
ATOM     13  C   UNL     1     -14.359   0.225  12.103  0.00  0.00    +0.000 A 
ATOM     14  C   UNL     1     -13.694  -0.154  13.280  0.00  0.00    +0.000 A 
ATOM     15  C   UNL     1     -13.800   0.463  14.546  0.00  0.00    +0.000 A 
ATOM     16  C   UNL     1     -12.791   0.087  15.465  0.00  0.00    +0.000 A 
ATOM     17  C   UNL     1     -11.904  -0.902  14.988  0.00  0.00    +0.000 A 
ATOM     18  C   UNL     1     -11.721  -2.169  15.638  0.00  0.00    +0.000 A 
ATOM     19  C   UNL     1     -11.964  -2.660  16.935  0.00  0.00    +0.000 A 
ATOM     20  C   UNL     1     -11.970  -4.042  17.169  0.00  0.00    +0.000 A 
ATOM     21  C   UNL     1     -11.725  -4.947  16.141  0.00  0.00    +0.000 A 
ATOM     22  C   UNL     1     -11.361  -4.512  14.866  0.00  0.00    +0.000 A 
ATOM     23  C   UNL     1     -11.325  -3.133  14.618  0.00  0.00    +0.000 A 
ATOM     24  N   UNL     1     -11.093  -2.470  13.419  0.00  0.00    +0.000 N 
ATOM     25  C   UNL     1     -11.722  -1.318  13.680  0.00  0.00    +0.000 A 
ATOM     26  C   UNL     1     -12.597  -0.816  12.746  0.00  0.00    +0.000 A 
ATOM     27  C   UNL     1     -12.649   1.089  16.475  0.00  0.00    +0.000 C 
ATOM     28  O   UNL     1     -11.838   1.287  17.356  0.00  0.00    +0.000 OA
ATOM     29  N   UNL     1     -13.703   1.966  16.185  0.00  0.00    +0.000 N 
ATOM     30  C   UNL     1     -14.441   1.715  14.948  0.00  0.00    +0.000 C 
ATOM     31  H   UNL     1      -9.851   0.577  10.097  0.00  0.00    +0.000 HD
ATOM     32  H   UNL     1      -8.640  -1.703  10.463  0.00  0.00    +0.000 HD
ATOM     33  H   UNL     1      -8.988  -0.993  13.398  0.00  0.00    +0.000 HD
ATOM     34  H   UNL     1      -7.989  -2.284  12.804  0.00  0.00    +0.000 HD
ATOM     35  H   UNL     1      -9.739  -3.660  12.467  0.00  0.00    +0.000 HD
ATOM     36  H   UNL     1     -12.729   1.124   9.226  0.00  0.00    +0.000 HD
ATOM     37  H   UNL     1     -14.931   2.147   8.808  0.00  0.00    +0.000 HD
ATOM     38  H   UNL     1     -16.855   1.637  10.275  0.00  0.00    +0.000 HD
ATOM     39  H   UNL     1     -16.469   0.560  12.481  0.00  0.00    +0.000 HD
ATOM     40  H   UNL     1     -12.211  -1.973  17.741  0.00  0.00    +0.000 HD
ATOM     41  H   UNL     1     -12.217  -4.412  18.160  0.00  0.00    +0.000 HD
ATOM     42  H   UNL     1     -11.834  -6.014  16.325  0.00  0.00    +0.000 HD
ATOM     43  H   UNL     1     -11.219  -5.227  14.060  0.00  0.00    +0.000 HD
ATOM     44  H   UNL     1     -13.886   2.736  16.810  0.00  0.00    +0.000 HD
ATOM     45  H   UNL     1     -15.502   1.625  15.166  0.00  0.00    +0.000 HD
ATOM     46  H   UNL     1     -14.227   2.519  14.235  0.00  0.00    +0.000 HD
ENDROOT
BRANCH   6  47
ATOM     47  C   UNL     1     -11.333  -1.371   9.223  0.00  0.00    +0.000 C 
ATOM     48  H   UNL     1     -11.361  -0.447   8.646  0.00  0.00    +0.000 HD
ATOM     49  H   UNL     1     -12.272  -1.915   9.047  0.00  0.00    +0.000 HD
ATOM     50  H   UNL     1     -10.537  -1.996   8.800  0.00  0.00    +0.000 HD
ENDBRANCH   6  47
BRANCH   1  51
ATOM     51  O   UNL     1     -10.283   0.700  12.136  0.00  0.00    +0.000 OA
BRANCH  51  52
ATOM     52  C   UNL     1     -10.254   2.106  12.098  0.00  0.00    +0.000 C 
ATOM     53  H   UNL     1      -9.510   2.407  11.356  0.00  0.00    +0.000 HD
ATOM     54  H   UNL     1     -11.221   2.563  11.888  0.00  0.00    +0.000 HD
ATOM     55  H   UNL     1      -9.885   2.483  13.058  0.00  0.00    +0.000 HD
ENDBRANCH  51  52
ENDBRANCH   1  51
BRANCH   2  56
ATOM     56  N   UNL     1      -7.299  -0.327  11.143  0.00  0.00    +0.000 NA
BRANCH  56  57
ATOM     57  C   UNL     1      -6.843   0.465  12.269  0.00  0.00    +0.000 C 
ATOM     58  H   UNL     1      -6.125   1.224  11.959  0.00  0.00    +0.000 HD
ATOM     59  H   UNL     1      -7.677   1.028  12.707  0.00  0.00    +0.000 HD
ATOM     60  H   UNL     1      -6.428  -0.155  13.065  0.00  0.00    +0.000 HD
ENDBRANCH  56  57
BRANCH  56  61
ATOM     61  C   UNL     1      -7.123   0.327   9.829  0.00  0.00    +0.000 C 
ATOM     62  H   UNL     1      -7.971   0.980   9.671  0.00  0.00    +0.000 HD
ATOM     63  H   UNL     1      -6.225   0.964   9.843  0.00  0.00    +0.000 HD
BRANCH  61  64
ATOM     64  C   UNL     1      -7.046  -0.596   8.606  0.00  0.00    +0.000 C 
ATOM     65  H   UNL     1      -6.052  -0.514   8.123  0.00  0.00    +0.000 HD
ATOM     66  H   UNL     1      -7.166  -1.637   8.908  0.00  0.00    +0.000 HD
BRANCH  64  67
ATOM     67  C   UNL     1      -8.088  -0.238   7.634  0.00  0.00    +0.000 C 
ATOM     68  N   UNL     1      -8.877   0.060   6.852  0.00  0.00    +0.000 NA
ENDBRANCH  64  67
ENDBRANCH  61  64
ENDBRANCH  56  61
ENDBRANCH   2  56
TORSDOF 8
ENDMDL
MODEL 8
REMARK VINA RESULT:    -5.419      5.986     10.186
REMARK INTER + INTRA:          -8.477
REMARK INTER:                  -7.585
REMARK INTRA:                  -0.892
REMARK UNBOUND:                -0.999
REMARK  Name = 
REMARK  8 active torsions:
REMARK  status: ('A' for Active; 'I' for Inactive)
REMARK    1  A    between atoms: C_1  and  O_2
REMARK    2  A    between atoms: O_2  and  C_3
REMARK    3  A    between atoms: C_4  and  N_5
REMARK    4  A    between atoms: N_5  and  C_6
REMARK    5  A    between atoms: N_5  and  C_7
REMARK    6  A    between atoms: C_7  and  C_8
REMARK    7  A    between atoms: C_8  and  C_9
REMARK    8  A    between atoms: C_14  and  C_15
REMARK                            x       y       z     vdW  Elec       q    Type
REMARK                         _______ _______ _______ _____ _____    ______ ____
ROOT
ATOM      1  C   UNL     1     -11.541   1.871  15.380  0.00  0.00    +0.000 C 
ATOM      2  C   UNL     1     -12.484   1.650  16.603  0.00  0.00    +0.000 C 
ATOM      3  C   UNL     1     -12.621   0.132  16.806  0.00  0.00    +0.000 C 
ATOM      4  C   UNL     1     -11.226  -0.469  17.107  0.00  0.00    +0.000 C 
ATOM      5  O   UNL     1     -10.173   0.492  17.043  0.00  0.00    +0.000 OA
ATOM      6  C   UNL     1     -10.114   1.311  15.838  0.00  0.00    +0.000 C 
ATOM      7  N   UNL     1      -9.457   0.533  14.789  0.00  0.00    +0.000 N 
ATOM      8  C   UNL     1      -8.695   0.938  13.671  0.00  0.00    +0.000 A 
ATOM      9  C   UNL     1      -8.337   2.209  13.202  0.00  0.00    +0.000 A 
ATOM     10  C   UNL     1      -7.364   2.304  12.204  0.00  0.00    +0.000 A 
ATOM     11  C   UNL     1      -6.743   1.170  11.694  0.00  0.00    +0.000 A 
ATOM     12  C   UNL     1      -7.262  -0.093  11.971  0.00  0.00    +0.000 A 
ATOM     13  C   UNL     1      -8.348  -0.208  12.857  0.00  0.00    +0.000 A 
ATOM     14  C   UNL     1      -9.293  -1.200  13.161  0.00  0.00    +0.000 A 
ATOM     15  C   UNL     1      -9.928  -2.070  12.246  0.00  0.00    +0.000 A 
ATOM     16  C   UNL     1     -11.059  -2.742  12.769  0.00  0.00    +0.000 A 
ATOM     17  C   UNL     1     -11.307  -2.494  14.136  0.00  0.00    +0.000 A 
ATOM     18  C   UNL     1     -11.345  -3.534  15.125  0.00  0.00    +0.000 A 
ATOM     19  C   UNL     1     -11.533  -4.929  15.089  0.00  0.00    +0.000 A 
ATOM     20  C   UNL     1     -11.198  -5.708  16.205  0.00  0.00    +0.000 A 
ATOM     21  C   UNL     1     -10.693  -5.126  17.364  0.00  0.00    +0.000 A 
ATOM     22  C   UNL     1     -10.600  -3.740  17.496  0.00  0.00    +0.000 A 
ATOM     23  C   UNL     1     -10.954  -2.942  16.399  0.00  0.00    +0.000 A 
ATOM     24  N   UNL     1     -10.851  -1.563  16.258  0.00  0.00    +0.000 N 
ATOM     25  C   UNL     1     -10.782  -1.484  14.923  0.00  0.00    +0.000 A 
ATOM     26  C   UNL     1      -9.798  -0.710  14.357  0.00  0.00    +0.000 A 
ATOM     27  C   UNL     1     -11.917  -3.161  11.703  0.00  0.00    +0.000 C 
ATOM     28  O   UNL     1     -13.041  -3.616  11.657  0.00  0.00    +0.000 OA
ATOM     29  N   UNL     1     -11.168  -2.837  10.564  0.00  0.00    +0.000 N 
ATOM     30  C   UNL     1      -9.940  -2.075  10.783  0.00  0.00    +0.000 C 
ATOM     31  H   UNL     1     -11.452   2.926  15.096  0.00  0.00    +0.000 HD
ATOM     32  H   UNL     1     -11.932   1.997  17.484  0.00  0.00    +0.000 HD
ATOM     33  H   UNL     1     -13.093  -0.346  15.935  0.00  0.00    +0.000 HD
ATOM     34  H   UNL     1     -13.294  -0.092  17.642  0.00  0.00    +0.000 HD
ATOM     35  H   UNL     1     -11.235  -0.858  18.131  0.00  0.00    +0.000 HD
ATOM     36  H   UNL     1      -8.802   3.109  13.584  0.00  0.00    +0.000 HD
ATOM     37  H   UNL     1      -7.067   3.286  11.845  0.00  0.00    +0.000 HD
ATOM     38  H   UNL     1      -5.887   1.270  11.033  0.00  0.00    +0.000 HD
ATOM     39  H   UNL     1      -6.814  -0.981  11.533  0.00  0.00    +0.000 HD
ATOM     40  H   UNL     1     -11.875  -5.409  14.175  0.00  0.00    +0.000 HD
ATOM     41  H   UNL     1     -11.291  -6.788  16.146  0.00  0.00    +0.000 HD
ATOM     42  H   UNL     1     -10.347  -5.760  18.178  0.00  0.00    +0.000 HD
ATOM     43  H   UNL     1     -10.159  -3.300  18.386  0.00  0.00    +0.000 HD
ATOM     44  H   UNL     1     -11.514  -3.108   9.657  0.00  0.00    +0.000 HD
ATOM     45  H   UNL     1      -9.099  -2.595  10.330  0.00  0.00    +0.000 HD
ATOM     46  H   UNL     1     -10.070  -1.063  10.382  0.00  0.00    +0.000 HD
ENDROOT
BRANCH   6  47
ATOM     47  C   UNL     1      -9.217   2.461  16.338  0.00  0.00    +0.000 C 
ATOM     48  H   UNL     1      -8.151   2.262  16.221  0.00  0.00    +0.000 HD
ATOM     49  H   UNL     1      -9.413   2.674  17.399  0.00  0.00    +0.000 HD
ATOM     50  H   UNL     1      -9.436   3.390  15.798  0.00  0.00    +0.000 HD
ENDBRANCH   6  47
BRANCH   1  51
ATOM     51  O   UNL     1     -11.982   1.091  14.252  0.00  0.00    +0.000 OA
BRANCH  51  52
ATOM     52  C   UNL     1     -12.439   1.717  13.077  0.00  0.00    +0.000 C 
ATOM     53  H   UNL     1     -13.380   1.243  12.788  0.00  0.00    +0.000 HD
ATOM     54  H   UNL     1     -12.557   2.797  13.169  0.00  0.00    +0.000 HD
ATOM     55  H   UNL     1     -11.738   1.506  12.263  0.00  0.00    +0.000 HD
ENDBRANCH  51  52
ENDBRANCH   1  51
BRANCH   2  56
ATOM     56  N   UNL     1     -13.788   2.352  16.721  0.00  0.00    +0.000 NA
BRANCH  56  57
ATOM     57  C   UNL     1     -14.107   2.955  17.999  0.00  0.00    +0.000 C 
ATOM     58  H   UNL     1     -13.569   3.891  18.146  0.00  0.00    +0.000 HD
ATOM     59  H   UNL     1     -15.168   3.231  18.042  0.00  0.00    +0.000 HD
ATOM     60  H   UNL     1     -13.925   2.272  18.831  0.00  0.00    +0.000 HD
ENDBRANCH  56  57
BRANCH  56  61
ATOM     61  C   UNL     1     -14.865   1.507  16.161  0.00  0.00    +0.000 C 
ATOM     62  H   UNL     1     -14.411   0.596  15.793  0.00  0.00    +0.000 HD
ATOM     63  H   UNL     1     -15.568   1.217  16.956  0.00  0.00    +0.000 HD
BRANCH  61  64
ATOM     64  C   UNL     1     -15.667   2.099  14.995  0.00  0.00    +0.000 C 
ATOM     65  H   UNL     1     -15.470   3.186  14.904  0.00  0.00    +0.000 HD
ATOM     66  H   UNL     1     -15.364   1.641  14.054  0.00  0.00    +0.000 HD
BRANCH  64  67
ATOM     67  C   UNL     1     -17.106   1.886  15.210  0.00  0.00    +0.000 C 
ATOM     68  N   UNL     1     -18.224   1.682  15.385  0.00  0.00    +0.000 NA
ENDBRANCH  64  67
ENDBRANCH  61  64
ENDBRANCH  56  61
ENDBRANCH   2  56
TORSDOF 8
ENDMDL
MODEL 9
REMARK VINA RESULT:    -5.390      8.415     12.548
REMARK INTER + INTRA:          -8.438
REMARK INTER:                  -7.520
REMARK INTRA:                  -0.918
REMARK UNBOUND:                -0.999
REMARK  Name = 
REMARK  8 active torsions:
REMARK  status: ('A' for Active; 'I' for Inactive)
REMARK    1  A    between atoms: C_1  and  O_2
REMARK    2  A    between atoms: O_2  and  C_3
REMARK    3  A    between atoms: C_4  and  N_5
REMARK    4  A    between atoms: N_5  and  C_6
REMARK    5  A    between atoms: N_5  and  C_7
REMARK    6  A    between atoms: C_7  and  C_8
REMARK    7  A    between atoms: C_8  and  C_9
REMARK    8  A    between atoms: C_14  and  C_15
REMARK                            x       y       z     vdW  Elec       q    Type
REMARK                         _______ _______ _______ _____ _____    ______ ____
ROOT
ATOM      1  C   UNL     1     -11.404  -2.418  13.620  0.00  0.00    +0.000 C 
ATOM      2  C   UNL     1     -10.206  -2.918  14.485  0.00  0.00    +0.000 C 
ATOM      3  C   UNL     1      -8.915  -2.513  13.755  0.00  0.00    +0.000 C 
ATOM      4  C   UNL     1      -8.862  -0.971  13.632  0.00  0.00    +0.000 C 
ATOM      5  O   UNL     1     -10.030  -0.326  14.138  0.00  0.00    +0.000 OA
ATOM      6  C   UNL     1     -11.310  -0.821  13.647  0.00  0.00    +0.000 C 
ATOM      7  N   UNL     1     -11.559  -0.225  12.335  0.00  0.00    +0.000 N 
ATOM      8  C   UNL     1     -12.765   0.075  11.665  0.00  0.00    +0.000 A 
ATOM      9  C   UNL     1     -14.104  -0.112  12.034  0.00  0.00    +0.000 A 
ATOM     10  C   UNL     1     -15.099   0.509  11.275  0.00  0.00    +0.000 A 
ATOM     11  C   UNL     1     -14.779   1.315  10.190  0.00  0.00    +0.000 A 
ATOM     12  C   UNL     1     -13.485   1.307   9.673  0.00  0.00    +0.000 A 
ATOM     13  C   UNL     1     -12.490   0.561  10.329  0.00  0.00    +0.000 A 
ATOM     14  C   UNL     1     -11.213   0.082   9.997  0.00  0.00    +0.000 A 
ATOM     15  C   UNL     1     -10.807  -0.446   8.751  0.00  0.00    +0.000 A 
ATOM     16  C   UNL     1      -9.576  -1.144   8.786  0.00  0.00    +0.000 A 
ATOM     17  C   UNL     1      -8.925  -1.120  10.038  0.00  0.00    +0.000 A 
ATOM     18  C   UNL     1      -7.605  -0.586  10.225  0.00  0.00    +0.000 A 
ATOM     19  C   UNL     1      -6.514  -0.325   9.374  0.00  0.00    +0.000 A 
ATOM     20  C   UNL     1      -5.468   0.498   9.813  0.00  0.00    +0.000 A 
ATOM     21  C   UNL     1      -5.477   1.057  11.088  0.00  0.00    +0.000 A 
ATOM     22  C   UNL     1      -6.473   0.734  12.011  0.00  0.00    +0.000 A 
ATOM     23  C   UNL     1      -7.516  -0.108  11.599  0.00  0.00    +0.000 A 
ATOM     24  N   UNL     1      -8.656  -0.485  12.297  0.00  0.00    +0.000 N 
ATOM     25  C   UNL     1      -9.461  -0.768  11.266  0.00  0.00    +0.000 A 
ATOM     26  C   UNL     1     -10.733  -0.249  11.257  0.00  0.00    +0.000 A 
ATOM     27  C   UNL     1      -9.497  -2.054   7.686  0.00  0.00    +0.000 C 
ATOM     28  O   UNL     1      -8.736  -2.952   7.390  0.00  0.00    +0.000 OA
ATOM     29  N   UNL     1     -10.649  -1.745   6.951  0.00  0.00    +0.000 N 
ATOM     30  C   UNL     1     -11.586  -0.808   7.567  0.00  0.00    +0.000 C 
ATOM     31  H   UNL     1     -12.377  -2.740  14.012  0.00  0.00    +0.000 HD
ATOM     32  H   UNL     1     -10.209  -2.309  15.397  0.00  0.00    +0.000 HD
ATOM     33  H   UNL     1      -8.841  -3.005  12.773  0.00  0.00    +0.000 HD
ATOM     34  H   UNL     1      -8.031  -2.858  14.303  0.00  0.00    +0.000 HD
ATOM     35  H   UNL     1      -8.019  -0.609  14.229  0.00  0.00    +0.000 HD
ATOM     36  H   UNL     1     -14.382  -0.732  12.877  0.00  0.00    +0.000 HD
ATOM     37  H   UNL     1     -16.140   0.384  11.563  0.00  0.00    +0.000 HD
ATOM     38  H   UNL     1     -15.550   1.909   9.708  0.00  0.00    +0.000 HD
ATOM     39  H   UNL     1     -13.240   1.894   8.791  0.00  0.00    +0.000 HD
ATOM     40  H   UNL     1      -6.513  -0.707   8.356  0.00  0.00    +0.000 HD
ATOM     41  H   UNL     1      -4.661   0.742   9.129  0.00  0.00    +0.000 HD
ATOM     42  H   UNL     1      -4.706   1.771  11.368  0.00  0.00    +0.000 HD
ATOM     43  H   UNL     1      -6.496   1.214  12.986  0.00  0.00    +0.000 HD
ATOM     44  H   UNL     1     -10.798  -2.195   6.061  0.00  0.00    +0.000 HD
ATOM     45  H   UNL     1     -11.778   0.019   6.887  0.00  0.00    +0.000 HD
ATOM     46  H   UNL     1     -12.501  -1.345   7.841  0.00  0.00    +0.000 HD
ENDROOT
BRANCH   6  47
ATOM     47  C   UNL     1     -12.253  -0.243  14.722  0.00  0.00    +0.000 C 
ATOM     48  H   UNL     1     -13.227   0.051  14.331  0.00  0.00    +0.000 HD
ATOM     49  H   UNL     1     -11.798   0.634  15.206  0.00  0.00    +0.000 HD
ATOM     50  H   UNL     1     -12.428  -0.973  15.521  0.00  0.00    +0.000 HD
ENDBRANCH   6  47
BRANCH   1  51
ATOM     51  O   UNL     1     -11.257  -2.848  12.253  0.00  0.00    +0.000 OA
BRANCH  51  52
ATOM     52  C   UNL     1     -12.245  -3.636  11.634  0.00  0.00    +0.000 C 
ATOM     53  H   UNL     1     -13.179  -3.495  12.183  0.00  0.00    +0.000 HD
ATOM     54  H   UNL     1     -12.380  -3.424  10.573  0.00  0.00    +0.000 HD
ATOM     55  H   UNL     1     -11.987  -4.694  11.754  0.00  0.00    +0.000 HD
ENDBRANCH  51  52
ENDBRANCH   1  51
BRANCH   2  56
ATOM     56  N   UNL     1     -10.145  -4.308  15.005  0.00  0.00    +0.000 NA
BRANCH  56  57
ATOM     57  C   UNL     1      -9.428  -5.285  14.210  0.00  0.00    +0.000 C 
ATOM     58  H   UNL     1      -8.678  -4.813  13.576  0.00  0.00    +0.000 HD
ATOM     59  H   UNL     1      -8.860  -5.967  14.856  0.00  0.00    +0.000 HD
ATOM     60  H   UNL     1     -10.101  -5.904  13.615  0.00  0.00    +0.000 HD
ENDBRANCH  56  57
BRANCH  56  61
ATOM     61  C   UNL     1     -11.491  -4.744  15.434  0.00  0.00    +0.000 C 
ATOM     62  H   UNL     1     -12.216  -4.171  14.871  0.00  0.00    +0.000 HD
ATOM     63  H   UNL     1     -11.645  -5.802  15.174  0.00  0.00    +0.000 HD
BRANCH  61  64
ATOM     64  C   UNL     1     -11.835  -4.552  16.917  0.00  0.00    +0.000 C 
ATOM     65  H   UNL     1     -11.999  -3.479  17.139  0.00  0.00    +0.000 HD
ATOM     66  H   UNL     1     -12.762  -5.072  17.162  0.00  0.00    +0.000 HD
BRANCH  64  67
ATOM     67  C   UNL     1     -10.744  -5.060  17.760  0.00  0.00    +0.000 C 
ATOM     68  N   UNL     1      -9.866  -5.455  18.390  0.00  0.00    +0.000 NA
ENDBRANCH  64  67
ENDBRANCH  61  64
ENDBRANCH  56  61
ENDBRANCH   2  56
TORSDOF 8
ENDMDL
