REMARK  Name = 
REMARK  3 active torsions:
REMARK  status: ('A' for Active; 'I' for Inactive)
REMARK    1  A    between atoms: N_1  and  C_2
REMARK    2  A    between atoms: C_11  and  C_12
REMARK    3  A    between atoms: C_16  and  O_17
REMARK                            x       y       z     vdW  Elec       q    Type
REMARK                         _______ _______ _______ _____ _____    ______ ____
ROOT
ATOM      1  C   UNL     1      -4.482  -1.238   0.025  0.00  0.00    +0.000 A 
ATOM      2  C   UNL     1      -3.687  -2.406   0.044  0.00  0.00    +0.000 A 
ATOM      3  C   UNL     1      -2.285  -2.347   0.002  0.00  0.00    +0.000 A 
ATOM      4  C   UNL     1      -1.697  -1.096  -0.019  0.00  0.00    +0.000 A 
ATOM      5  C   UNL     1      -2.476   0.055   0.009  0.00  0.00    +0.000 A 
ATOM      6  C   UNL     1      -3.859   0.013   0.050  0.00  0.00    +0.000 A 
ATOM      7  C   UNL     1      -1.631   1.247   0.016  0.00  0.00    +0.000 C 
ATOM      8  O   UNL     1      -2.015   2.398   0.030  0.00  0.00    +0.000 OA
ATOM      9  C   UNL     1      -0.233   0.747  -0.001  0.00  0.00    +0.000 C 
ATOM     10  C   UNL     1       0.790   1.610   0.022  0.00  0.00    +0.000 C 
ATOM     11  C   UNL     1      -0.264  -0.742  -0.033  0.00  0.00    +0.000 C 
ATOM     12  O   UNL     1       0.665  -1.519  -0.067  0.00  0.00    +0.000 OA
ATOM     13  H   UNL     1      -4.170  -3.380   0.101  0.00  0.00    +0.000 HD
ATOM     14  H   UNL     1      -1.686  -3.253   0.009  0.00  0.00    +0.000 HD
ATOM     15  H   UNL     1      -4.432   0.933   0.107  0.00  0.00    +0.000 HD
ATOM     16  H   UNL     1       0.588   2.681   0.052  0.00  0.00    +0.000 HD
ENDROOT
BRANCH  10  17
ATOM     17  C   UNL     1       2.210   1.265   0.027  0.00  0.00    +0.000 A 
ATOM     18  C   UNL     1       2.904   1.126  -1.179  0.00  0.00    +0.000 A 
ATOM     19  C   UNL     1       4.270   0.831  -1.165  0.00  0.00    +0.000 A 
ATOM     20 BR   UNL     1       5.183   0.661  -2.818  0.00  0.00    +0.000 Br
ATOM     21  C   UNL     1       4.950   0.677   0.047  0.00  0.00    +0.000 A 
ATOM     22  C   UNL     1       4.258   0.831   1.250  0.00  0.00    +0.000 A 
ATOM     23 BR   UNL     1       5.130   0.660   2.926  0.00  0.00    +0.000 Br
ATOM     24  C   UNL     1       2.891   1.125   1.241  0.00  0.00    +0.000 A 
ATOM     25  H   UNL     1       2.384   1.255  -2.125  0.00  0.00    +0.000 HD
ATOM     26  H   UNL     1       2.359   1.253   2.181  0.00  0.00    +0.000 HD
BRANCH  21  27
ATOM     27  O   UNL     1       6.288   0.380   0.070  0.00  0.00    +0.000 OA
ATOM     28  H   UNL     1       6.582   0.252  -0.850  0.00  0.00    +0.000 HD
ENDBRANCH  21  27
ENDBRANCH  10  17
BRANCH   1  29
ATOM     29  N   UNL     1      -5.863  -1.325   0.222  0.00  0.00    +0.000 N 
ATOM     30  H   UNL     1      -6.288  -2.189  -0.101  0.00  0.00    +0.000 HD
ATOM     31  H   UNL     1      -6.386  -0.506  -0.076  0.00  0.00    +0.000 HD
ENDBRANCH   1  29
TORSDOF 3
