
 OpenBabel01112422523D

 41 44  0  0  1  0  0  0  0  0999 V2000
    2.3422    0.1324   -1.4657 N   0  0  0  0  0  0  0  0  0  0  0  0
    2.3309    0.0512    0.0089 C   0  0  3  0  0  0  0  0  0  0  0  0
    3.2110   -1.1398    0.4811 C   0  0  0  0  0  0  0  0  0  0  0  0
    2.7679   -2.4972   -0.0128 C   0  0  0  0  0  0  0  0  0  0  0  0
    3.6182   -3.2764   -0.8087 C   0  0  0  0  0  0  0  0  0  0  0  0
    3.2223   -4.5488   -1.2199 C   0  0  0  0  0  0  0  0  0  0  0  0
    1.9790   -5.0518   -0.8415 C   0  0  0  0  0  0  0  0  0  0  0  0
    1.1268   -4.2826   -0.0521 C   0  0  0  0  0  0  0  0  0  0  0  0
    1.5195   -3.0119    0.3630 C   0  0  0  0  0  0  0  0  0  0  0  0
    2.7288    1.3876    0.6333 C   0  0  0  0  0  0  0  0  0  0  0  0
    2.4148    2.5973   -0.0073 C   0  0  0  0  0  0  0  0  0  0  0  0
    2.7613    3.8305    0.5563 C   0  0  0  0  0  0  0  0  0  0  0  0
    3.4298    3.9070    1.7860 C   0  0  0  0  0  0  0  0  0  0  0  0
    3.8578    5.1967    2.3284 C   0  0  0  0  0  0  0  0  0  0  0  0
    3.1160    6.3091    2.0465 N   0  0  0  0  0  0  0  0  0  0  0  0
    3.5486    7.5009    2.5062 C   0  0  0  0  0  0  0  0  0  0  0  0
    4.6615    7.7650    3.2197 N   0  0  0  0  0  0  0  0  0  0  0  0
    5.3527    6.6412    3.4564 C   0  0  0  0  0  0  0  0  0  0  0  0
    6.5407    6.5401    4.1196 N   0  0  0  0  0  0  0  0  0  0  0  0
    6.9003    5.2211    4.1228 C   0  0  0  0  0  0  0  0  0  0  0  0
    6.0172    4.4730    3.5010 N   0  0  0  0  0  0  0  0  0  0  0  0
    5.0384    5.3501    3.0690 C   0  0  0  0  0  0  0  0  0  0  0  0
    3.6891    2.7011    2.4508 C   0  0  0  0  0  0  0  0  0  0  0  0
    3.3438    1.4685    1.8901 C   0  0  0  0  0  0  0  0  0  0  0  0
    2.0788   -0.7770   -1.8458 H   0  0  0  0  0  0  0  0  0  0  0  0
    3.2994    0.2977   -1.7736 H   0  0  0  0  0  0  0  0  0  0  0  0
    1.2924   -0.1265    0.3149 H   0  0  0  0  0  0  0  0  0  0  0  0
    3.2062   -1.2195    1.5744 H   0  0  0  0  0  0  0  0  0  0  0  0
    4.2573   -0.9578    0.1983 H   0  0  0  0  0  0  0  0  0  0  0  0
    4.5957   -2.9020   -1.1023 H   0  0  0  0  0  0  0  0  0  0  0  0
    3.8898   -5.1519   -1.8301 H   0  0  0  0  0  0  0  0  0  0  0  0
    1.6762   -6.0469   -1.1551 H   0  0  0  0  0  0  0  0  0  0  0  0
    0.1594   -4.6749    0.2481 H   0  0  0  0  0  0  0  0  0  0  0  0
    0.8492   -2.4297    0.9924 H   0  0  0  0  0  0  0  0  0  0  0  0
    1.9026    2.5925   -0.9682 H   0  0  0  0  0  0  0  0  0  0  0  0
    2.5209    4.7411    0.0103 H   0  0  0  0  0  0  0  0  0  0  0  0
    2.9227    8.3552    2.2643 H   0  0  0  0  0  0  0  0  0  0  0  0
    7.0554    7.3109    4.5139 H   0  0  0  0  0  0  0  0  0  0  0  0
    7.8133    4.8682    4.5837 H   0  0  0  0  0  0  0  0  0  0  0  0
    4.1775    2.7003    3.4242 H   0  0  0  0  0  0  0  0  0  0  0  0
    3.5803    0.5849    2.4743 H   0  0  0  0  0  0  0  0  0  0  0  0
  1  2  1  0  0  0  0
  1 25  1  0  0  0  0
  1 26  1  0  0  0  0
  2  3  1  0  0  0  0
  2 10  1  0  0  0  0
  2 27  1  0  0  0  0
  3  4  1  0  0  0  0
  3 28  1  0  0  0  0
  3 29  1  0  0  0  0
  4  5  1  0  0  0  0
  4  9  2  0  0  0  0
  5  6  2  0  0  0  0
  5 30  1  0  0  0  0
  6  7  1  0  0  0  0
  6 31  1  0  0  0  0
  7  8  2  0  0  0  0
  7 32  1  0  0  0  0
  8  9  1  0  0  0  0
  8 33  1  0  0  0  0
  9 34  1  0  0  0  0
 10 11  1  0  0  0  0
 10 24  2  0  0  0  0
 11 12  2  0  0  0  0
 11 35  1  0  0  0  0
 12 13  1  0  0  0  0
 12 36  1  0  0  0  0
 13 14  1  0  0  0  0
 13 23  2  0  0  0  0
 14 15  1  0  0  0  0
 14 22  2  0  0  0  0
 15 16  2  0  0  0  0
 16 17  1  0  0  0  0
 16 37  1  0  0  0  0
 17 18  2  0  0  0  0
 18 19  1  0  0  0  0
 18 22  1  0  0  0  0
 19 20  1  0  0  0  0
 19 38  1  0  0  0  0
 20 21  2  0  0  0  0
 20 39  1  0  0  0  0
 21 22  1  0  0  0  0
 23 24  1  0  0  0  0
 23 40  1  0  0  0  0
 24 41  1  0  0  0  0
M  END
$$$$
