
 OpenBabel01112422503D

 52 56  0  0  1  0  0  0  0  0999 V2000
    2.9519    1.2599    0.8506 N   0  0  0  0  0  0  0  0  0  0  0  0
    2.4568    0.0813    0.1131 C   0  0  2  0  0  0  0  0  0  0  0  0
    0.9164    0.0909    0.0759 C   0  0  0  0  0  0  0  0  0  0  0  0
    0.3898   -0.1000    1.3966 O   0  0  0  0  0  0  0  0  0  0  0  0
   -0.9704   -0.1292    1.5098 C   0  0  0  0  0  0  0  0  0  0  0  0
   -1.4922   -0.2670    2.7870 C   0  0  0  0  0  0  0  0  0  0  0  0
   -2.8151   -0.3126    3.0670 N   0  0  0  0  0  0  0  0  0  0  0  0
   -3.6610   -0.2036    2.0122 C   0  0  0  0  0  0  0  0  0  0  0  0
   -3.2671   -0.0623    0.6802 C   0  0  0  0  0  0  0  0  0  0  0  0
   -4.2244    0.0421   -0.4443 C   0  0  0  0  0  0  0  0  0  0  0  0
   -5.4597   -0.6259   -0.4313 C   0  0  0  0  0  0  0  0  0  0  0  0
   -6.3262   -0.5750   -1.5298 C   0  0  0  0  0  0  0  0  0  0  0  0
   -5.9709    0.1359   -2.6868 C   0  0  0  0  0  0  0  0  0  0  0  0
   -6.7702    0.1851   -3.8319 C   0  0  0  0  0  0  0  0  0  0  0  0
   -6.4457    0.8474   -4.9671 N   0  0  0  0  0  0  0  0  0  0  0  0
   -5.2683    1.5041   -4.9653 C   0  0  0  0  0  0  0  0  0  0  0  0
   -4.4019    1.5309   -3.8845 C   0  0  0  0  0  0  0  0  0  0  0  0
   -4.7517    0.8308   -2.7230 C   0  0  0  0  0  0  0  0  0  0  0  0
   -3.9089    0.7909   -1.5982 C   0  0  0  0  0  0  0  0  0  0  0  0
   -1.8789   -0.0405    0.4571 C   0  0  0  0  0  0  0  0  0  0  0  0
    2.9687   -1.2576    0.6928 C   0  0  0  0  0  0  0  0  0  0  0  0
    4.4633   -1.3441    0.7606 C   0  0  0  0  0  0  0  0  0  0  0  0
    5.3423   -1.2877   -0.3037 C   0  0  0  0  0  0  0  0  0  0  0  0
    6.6175   -1.3458    0.1899 N   0  0  0  0  0  0  0  0  0  0  0  0
    6.5928   -1.4584    1.5598 C   0  0  0  0  0  0  0  0  0  0  0  0
    7.6466   -1.5435    2.4769 C   0  0  0  0  0  0  0  0  0  0  0  0
    7.3197   -1.6569    3.8314 C   0  0  0  0  0  0  0  0  0  0  0  0
    5.9919   -1.6829    4.2499 C   0  0  0  0  0  0  0  0  0  0  0  0
    4.9512   -1.5897    3.3202 C   0  0  0  0  0  0  0  0  0  0  0  0
    5.2534   -1.4742    1.9472 C   0  0  0  0  0  0  0  0  0  0  0  0
    3.9686    1.1814    0.9495 H   0  0  0  0  0  0  0  0  0  0  0  0
    2.5886    1.2196    1.8029 H   0  0  0  0  0  0  0  0  0  0  0  0
    2.8145    0.1802   -0.9216 H   0  0  0  0  0  0  0  0  0  0  0  0
    0.5688    1.0489   -0.3323 H   0  0  0  0  0  0  0  0  0  0  0  0
    0.5828   -0.7258   -0.5767 H   0  0  0  0  0  0  0  0  0  0  0  0
   -0.8362   -0.3474    3.6493 H   0  0  0  0  0  0  0  0  0  0  0  0
   -4.7106   -0.2283    2.2937 H   0  0  0  0  0  0  0  0  0  0  0  0
   -5.7608   -1.2242    0.4265 H   0  0  0  0  0  0  0  0  0  0  0  0
   -7.2711   -1.1120   -1.4828 H   0  0  0  0  0  0  0  0  0  0  0  0
   -7.7244   -0.3336   -3.8731 H   0  0  0  0  0  0  0  0  0  0  0  0
   -5.0258    2.0241   -5.8878 H   0  0  0  0  0  0  0  0  0  0  0  0
   -3.4682    2.0786   -3.9577 H   0  0  0  0  0  0  0  0  0  0  0  0
   -2.9782    1.3554   -1.6357 H   0  0  0  0  0  0  0  0  0  0  0  0
   -1.5191    0.0329   -0.5629 H   0  0  0  0  0  0  0  0  0  0  0  0
    2.6011   -2.0855    0.0727 H   0  0  0  0  0  0  0  0  0  0  0  0
    2.5482   -1.4156    1.6932 H   0  0  0  0  0  0  0  0  0  0  0  0
    5.1686   -1.1879   -1.3670 H   0  0  0  0  0  0  0  0  0  0  0  0
    7.4601   -1.3038   -0.3662 H   0  0  0  0  0  0  0  0  0  0  0  0
    8.6824   -1.5227    2.1553 H   0  0  0  0  0  0  0  0  0  0  0  0
    8.1154   -1.7266    4.5692 H   0  0  0  0  0  0  0  0  0  0  0  0
    5.7588   -1.7750    5.3078 H   0  0  0  0  0  0  0  0  0  0  0  0
    3.9200   -1.6098    3.6602 H   0  0  0  0  0  0  0  0  0  0  0  0
  1 31  1  0  0  0  0
  1 32  1  0  0  0  0
  2 21  1  0  0  0  0
  2  3  1  0  0  0  0
  2  1  1  0  0  0  0
  2 33  1  6  0  0  0
  3  4  1  0  0  0  0
  3 34  1  0  0  0  0
  3 35  1  0  0  0  0
  4  5  1  0  0  0  0
  5  6  1  0  0  0  0
  5 20  2  0  0  0  0
  6  7  2  0  0  0  0
  6 36  1  0  0  0  0
  7  8  1  0  0  0  0
  8  9  2  0  0  0  0
  8 37  1  0  0  0  0
  9 10  1  0  0  0  0
  9 20  1  0  0  0  0
 10 11  1  0  0  0  0
 10 19  2  0  0  0  0
 11 12  2  0  0  0  0
 11 38  1  0  0  0  0
 12 13  1  0  0  0  0
 12 39  1  0  0  0  0
 13 14  1  0  0  0  0
 13 18  2  0  0  0  0
 14 15  2  0  0  0  0
 14 40  1  0  0  0  0
 15 16  1  0  0  0  0
 16 17  2  0  0  0  0
 16 41  1  0  0  0  0
 17 18  1  0  0  0  0
 17 42  1  0  0  0  0
 18 19  1  0  0  0  0
 19 43  1  0  0  0  0
 20 44  1  0  0  0  0
 21 22  1  0  0  0  0
 21 45  1  0  0  0  0
 21 46  1  0  0  0  0
 22 23  2  0  0  0  0
 22 30  1  0  0  0  0
 23 24  1  0  0  0  0
 23 47  1  0  0  0  0
 24 25  1  0  0  0  0
 24 48  1  0  0  0  0
 25 26  1  0  0  0  0
 25 30  2  0  0  0  0
 26 27  2  0  0  0  0
 26 49  1  0  0  0  0
 27 28  1  0  0  0  0
 27 50  1  0  0  0  0
 28 29  2  0  0  0  0
 28 51  1  0  0  0  0
 29 30  1  0  0  0  0
 29 52  1  0  0  0  0
M  END
$$$$
