
 OpenBabel01112422323D

 55 57  0  0  1  0  0  0  0  0999 V2000
    3.1609   -0.9951   -0.7958 C   0  0  0  0  0  0  0  0  0  0  0  0
    2.5546    0.1604    0.0076 C   0  0  0  0  0  0  0  0  0  0  0  0
    2.7382    1.4724   -0.7626 C   0  0  0  0  0  0  0  0  0  0  0  0
    3.0510    0.2011    1.4912 C   0  0  2  0  0  0  0  0  0  0  0  0
    2.2422    1.2472    2.3102 C   0  0  0  0  0  0  0  0  0  0  0  0
    0.8335    1.1041    2.1450 O   0  0  0  0  0  0  0  0  0  0  0  0
    4.4777    0.5214    1.5763 N   0  0  0  0  0  0  0  0  0  0  0  0
    5.1247    0.3811    2.8022 C   0  0  0  0  0  0  0  0  0  0  0  0
    4.6060   -0.4245    3.7603 N   0  0  0  0  0  0  0  0  0  0  0  0
    5.2717   -0.6070    4.9383 C   0  0  0  0  0  0  0  0  0  0  0  0
    4.7872   -1.5285    5.8840 N   0  0  0  0  0  0  0  0  0  0  0  0
    5.5400   -2.2926    6.7978 C   0  0  0  0  0  0  0  0  0  0  0  0
    5.0037   -2.6427    8.0386 C   0  0  0  0  0  0  0  0  0  0  0  0
    5.7995   -3.2709    9.0087 C   0  0  0  0  0  0  0  0  0  0  0  0
    7.1535   -3.5600    8.7598 C   0  0  0  0  0  0  0  0  0  0  0  0
    7.9213   -4.1770    9.8722 C   0  0  0  0  0  0  0  0  0  0  0  0
    7.3789   -4.8602   10.7253 O   0  0  0  0  0  0  0  0  0  0  0  0
    9.2286   -3.8531    9.9345 O   0  0  0  0  0  0  0  0  0  0  0  0
    7.6791   -3.2611    7.5025 C   0  0  0  0  0  0  0  0  0  0  0  0
    9.3092   -3.6099    7.0411 Cl  0  0  0  0  0  0  0  0  0  0  0  0
    6.8746   -2.6421    6.5402 C   0  0  0  0  0  0  0  0  0  0  0  0
    6.4204    0.1773    5.1590 C   0  0  0  0  0  0  0  0  0  0  0  0
    7.2629    0.3139    6.2465 N   0  0  0  0  0  0  0  0  0  0  0  0
    8.1612    1.1942    5.8757 C   0  0  0  0  0  0  0  0  0  0  0  0
    7.9439    1.6362    4.5967 N   0  0  0  0  0  0  0  0  0  0  0  0
    8.7223    2.6608    3.9163 C   0  0  0  0  0  0  0  0  0  0  0  0
    8.6607    3.9933    4.6688 C   0  0  0  0  0  0  0  0  0  0  0  0
   10.1729    2.2186    3.7166 C   0  0  0  0  0  0  0  0  0  0  0  0
    6.8403    0.9773    4.1141 C   0  0  0  0  0  0  0  0  0  0  0  0
    6.2724    1.0765    2.9048 N   0  0  0  0  0  0  0  0  0  0  0  0
    2.7581   -1.0026   -1.8160 H   0  0  0  0  0  0  0  0  0  0  0  0
    2.9113   -1.9583   -0.3395 H   0  0  0  0  0  0  0  0  0  0  0  0
    4.2490   -0.9190   -0.8735 H   0  0  0  0  0  0  0  0  0  0  0  0
    1.4741   -0.0368    0.0330 H   0  0  0  0  0  0  0  0  0  0  0  0
    3.7918    1.6685   -0.9829 H   0  0  0  0  0  0  0  0  0  0  0  0
    2.3316    2.3293   -0.2191 H   0  0  0  0  0  0  0  0  0  0  0  0
    2.2021    1.4236   -1.7183 H   0  0  0  0  0  0  0  0  0  0  0  0
    2.8537   -0.7960    1.9078 H   0  0  0  0  0  0  0  0  0  0  0  0
    2.4612    1.1685    3.3794 H   0  0  0  0  0  0  0  0  0  0  0  0
    2.5126    2.2670    2.0130 H   0  0  0  0  0  0  0  0  0  0  0  0
    0.6089    0.1805    2.3454 H   0  0  0  0  0  0  0  0  0  0  0  0
    5.0697    0.0731    0.8868 H   0  0  0  0  0  0  0  0  0  0  0  0
    3.8496   -1.8500    5.6874 H   0  0  0  0  0  0  0  0  0  0  0  0
    3.9775   -2.3824    8.2882 H   0  0  0  0  0  0  0  0  0  0  0  0
    5.3652   -3.5066    9.9807 H   0  0  0  0  0  0  0  0  0  0  0  0
    9.5640   -3.3348    9.1801 H   0  0  0  0  0  0  0  0  0  0  0  0
    7.3115   -2.4089    5.5715 H   0  0  0  0  0  0  0  0  0  0  0  0
    8.9768    1.5515    6.4920 H   0  0  0  0  0  0  0  0  0  0  0  0
    8.2697    2.8059    2.9282 H   0  0  0  0  0  0  0  0  0  0  0  0
    9.0791    3.9102    5.6788 H   0  0  0  0  0  0  0  0  0  0  0  0
    7.6255    4.3374    4.7692 H   0  0  0  0  0  0  0  0  0  0  0  0
    9.2262    4.7664    4.1390 H   0  0  0  0  0  0  0  0  0  0  0  0
   10.6862    2.0664    4.6730 H   0  0  0  0  0  0  0  0  0  0  0  0
   10.7330    2.9737    3.1554 H   0  0  0  0  0  0  0  0  0  0  0  0
   10.2223    1.2762    3.1607 H   0  0  0  0  0  0  0  0  0  0  0  0
  1  2  1  0  0  0  0
  1 31  1  0  0  0  0
  1 32  1  0  0  0  0
  1 33  1  0  0  0  0
  2  3  1  0  0  0  0
  2 34  1  0  0  0  0
  3 35  1  0  0  0  0
  3 36  1  0  0  0  0
  3 37  1  0  0  0  0
  4  7  1  0  0  0  0
  4  5  1  0  0  0  0
  4  2  1  0  0  0  0
  4 38  1  1  0  0  0
  5  6  1  0  0  0  0
  5 39  1  0  0  0  0
  5 40  1  0  0  0  0
  6 41  1  0  0  0  0
  7  8  1  0  0  0  0
  7 42  1  0  0  0  0
  8  9  1  0  0  0  0
  8 30  2  0  0  0  0
  9 10  2  0  0  0  0
 10 11  1  0  0  0  0
 10 22  1  0  0  0  0
 11 12  1  0  0  0  0
 11 43  1  0  0  0  0
 12 13  1  0  0  0  0
 12 21  2  0  0  0  0
 13 14  2  0  0  0  0
 13 44  1  0  0  0  0
 14 15  1  0  0  0  0
 14 45  1  0  0  0  0
 15 16  1  0  0  0  0
 15 19  2  0  0  0  0
 16 17  2  0  0  0  0
 16 18  1  0  0  0  0
 18 46  1  0  0  0  0
 19 20  1  0  0  0  0
 19 21  1  0  0  0  0
 21 47  1  0  0  0  0
 22 23  1  0  0  0  0
 22 29  2  0  0  0  0
 23 24  2  0  0  0  0
 24 25  1  0  0  0  0
 24 48  1  0  0  0  0
 25 26  1  0  0  0  0
 25 29  1  0  0  0  0
 26 27  1  0  0  0  0
 26 28  1  0  0  0  0
 26 49  1  0  0  0  0
 27 50  1  0  0  0  0
 27 51  1  0  0  0  0
 27 52  1  0  0  0  0
 28 53  1  0  0  0  0
 28 54  1  0  0  0  0
 28 55  1  0  0  0  0
 29 30  1  0  0  0  0
M  END
$$$$
