REMARK  Name = 
REMARK  12 active torsions:
REMARK  status: ('A' for Active; 'I' for Inactive)
REMARK    1  A    between atoms: C_1  and  O_2
REMARK    2  A    between atoms: O_2  and  C_3
REMARK    3  A    between atoms: C_3  and  C_5
REMARK    4  A    between atoms: C_5  and  C_6
REMARK    5  A    between atoms: C_10  and  N_11
REMARK    6  A    between atoms: C_12  and  C_14
REMARK    7  A    between atoms: C_14  and  C_15
REMARK    8  A    between atoms: C_15  and  N_16
REMARK    9  A    between atoms: N_16  and  C_17
REMARK   10  A    between atoms: N_16  and  C_18
REMARK   11  A    between atoms: N_21  and  C_22
REMARK   12  A    between atoms: C_29  and  C_30
REMARK                            x       y       z     vdW  Elec       q    Type
REMARK                         _______ _______ _______ _____ _____    ______ ____
ROOT
ATOM      1  C   UNL     1       0.528   0.091  -0.682  0.00  0.00    +0.000 C 
ATOM      2  C   UNL     1       0.536   1.352  -1.620  0.00  0.00    +0.000 C 
ATOM      3  C   UNL     1      -0.536   1.271  -2.714  0.00  0.00    +0.000 C 
ATOM      4  N   UNL     1      -0.197   0.106  -3.492  0.00  0.00    +0.000 N 
ATOM      5  C   UNL     1      -0.450  -1.139  -2.779  0.00  0.00    +0.000 C 
ATOM      6  C   UNL     1       0.479  -1.191  -1.556  0.00  0.00    +0.000 C 
ATOM      7  H   UNL     1       1.524   1.408  -2.085  0.00  0.00    +0.000 HD
ATOM      8  H   UNL     1       0.402   2.278  -1.048  0.00  0.00    +0.000 HD
ATOM      9  H   UNL     1      -0.617   2.176  -3.306  0.00  0.00    +0.000 HD
ATOM     10  H   UNL     1      -1.543   1.150  -2.303  0.00  0.00    +0.000 HD
ATOM     11  H   UNL     1      -0.262  -2.035  -3.381  0.00  0.00    +0.000 HD
ATOM     12  H   UNL     1      -1.497  -1.189  -2.455  0.00  0.00    +0.000 HD
ATOM     13  H   UNL     1       1.493  -1.386  -1.936  0.00  0.00    +0.000 HD
ATOM     14  H   UNL     1       0.167  -2.059  -0.973  0.00  0.00    +0.000 HD
ENDROOT
BRANCH   4  15
ATOM     15  C   UNL     1       0.021   0.127  -4.853  0.00  0.00    +0.000 A 
ATOM     16  N   UNL     1      -0.302  -1.018  -5.527  0.00  0.00    +0.000 NA
ATOM     17  C   UNL     1      -0.104  -1.116  -6.849  0.00  0.00    +0.000 A 
ATOM     18  N   UNL     1       0.411  -0.196  -7.661  0.00  0.00    +0.000 NA
ATOM     19  C   UNL     1       0.745   0.912  -6.992  0.00  0.00    +0.000 A 
ATOM     20  N   UNL     1       1.321   1.976  -7.615  0.00  0.00    +0.000 N 
ATOM     21  C   UNL     1       1.597   2.951  -6.701  0.00  0.00    +0.000 A 
ATOM     22  C   UNL     1       1.185   2.510  -5.458  0.00  0.00    +0.000 A 
ATOM     23  C   UNL     1       0.605   1.181  -5.629  0.00  0.00    +0.000 A 
ATOM     24  H   UNL     1      -0.392  -2.057  -7.307  0.00  0.00    +0.000 HD
ATOM     25  H   UNL     1       1.535   2.003  -8.599  0.00  0.00    +0.000 HD
ATOM     26  H   UNL     1       2.081   3.869  -7.002  0.00  0.00    +0.000 HD
BRANCH  22  27
ATOM     27  C   UNL     1       1.409   3.337  -4.240  0.00  0.00    +0.000 C 
ATOM     28  H   UNL     1       2.023   4.218  -4.476  0.00  0.00    +0.000 HD
ATOM     29  H   UNL     1       1.965   2.782  -3.490  0.00  0.00    +0.000 HD
ATOM     30  H   UNL     1       0.476   3.730  -3.830  0.00  0.00    +0.000 HD
ENDBRANCH  22  27
ENDBRANCH   4  15
BRANCH   1  32
ATOM     31  N   UNL     1      -0.820  -0.617   1.290  0.00  0.00    +0.000 N 
ATOM     32  C   UNL     1      -0.706   0.258   0.230  0.00  0.00    +0.000 C 
ATOM     33  O   UNL     1      -1.510   1.159  -0.004  0.00  0.00    +0.000 OA
ATOM     34  H   UNL     1       0.027  -1.128   1.533  0.00  0.00    +0.000 HD
BRANCH  31  39
ATOM     35  C   UNL     1      -2.545  -1.055   4.560  0.00  0.00    +0.000 A 
ATOM     36  C   UNL     1      -3.637  -0.189   4.411  0.00  0.00    +0.000 A 
ATOM     37  C   UNL     1      -3.862   0.441   3.196  0.00  0.00    +0.000 A 
ATOM     38  C   UNL     1      -2.985   0.242   2.135  0.00  0.00    +0.000 A 
ATOM     39  C   UNL     1      -1.826  -0.533   2.287  0.00  0.00    +0.000 A 
ATOM     40  C   UNL     1      -1.635  -1.210   3.498  0.00  0.00    +0.000 A 
ATOM     41  H   UNL     1      -4.317   0.002   5.236  0.00  0.00    +0.000 HD
ATOM     42  H   UNL     1      -4.717   1.104   3.065  0.00  0.00    +0.000 HD
ATOM     43  H   UNL     1      -3.230   0.733   1.203  0.00  0.00    +0.000 HD
ATOM     44  H   UNL     1      -0.759  -1.844   3.632  0.00  0.00    +0.000 HD
BRANCH  35  45
ATOM     45  C   UNL     1      -2.359  -1.781   5.870  0.00  0.00    +0.000 C 
ATOM     46  H   UNL     1      -3.348  -1.959   6.313  0.00  0.00    +0.000 HD
ATOM     47  H   UNL     1      -1.903  -2.760   5.687  0.00  0.00    +0.000 HD
BRANCH  45  48
ATOM     48  C   UNL     1      -1.519  -1.036   6.884  0.00  0.00    +0.000 C 
ATOM     49  O   UNL     1      -0.876  -0.015   6.688  0.00  0.00    +0.000 OA
BRANCH  48  50
ATOM     50  O   UNL     1      -1.570  -1.704   8.077  0.00  0.00    +0.000 OA
BRANCH  50  51
ATOM     51  C   UNL     1      -0.804  -1.090   9.114  0.00  0.00    +0.000 C 
ATOM     52  H   UNL     1      -0.939  -1.677  10.027  0.00  0.00    +0.000 HD
ATOM     53  H   UNL     1      -1.157  -0.071   9.302  0.00  0.00    +0.000 HD
ATOM     54  H   UNL     1       0.259  -1.093   8.854  0.00  0.00    +0.000 HD
ENDBRANCH  50  51
ENDBRANCH  48  50
ENDBRANCH  45  48
ENDBRANCH  35  45
ENDBRANCH  31  39
ENDBRANCH   1  32
BRANCH   1  55
ATOM     55  C   UNL     1       1.844   0.166   0.170  0.00  0.00    +0.000 C 
ATOM     56  H   UNL     1       1.833   1.165   0.632  0.00  0.00    +0.000 HD
ATOM     57  H   UNL     1       2.710   0.162  -0.507  0.00  0.00    +0.000 HD
BRANCH  55  58
ATOM     58  N   UNL     1       2.088  -0.798   1.276  0.00  0.00    +0.000 NA
BRANCH  58  59
ATOM     59  C   UNL     1       2.352  -2.176   0.855  0.00  0.00    +0.000 C 
ATOM     60  H   UNL     1       1.511  -2.622   0.332  0.00  0.00    +0.000 HD
ATOM     61  H   UNL     1       2.484  -2.808   1.742  0.00  0.00    +0.000 HD
ATOM     62  H   UNL     1       3.247  -2.267   0.229  0.00  0.00    +0.000 HD
ENDBRANCH  58  59
BRANCH  58  63
ATOM     63  C   UNL     1       3.280  -0.348   2.029  0.00  0.00    +0.000 C 
ATOM     64  H   UNL     1       3.173   0.685   2.375  0.00  0.00    +0.000 HD
ATOM     65  H   UNL     1       4.192  -0.410   1.420  0.00  0.00    +0.000 HD
ATOM     66  H   UNL     1       3.424  -0.968   2.921  0.00  0.00    +0.000 HD
ENDBRANCH  58  63
ENDBRANCH  55  58
ENDBRANCH   1  55
TORSDOF 12
