MODEL 1
REMARK VINA RESULT:    -9.097      0.000      0.000
REMARK INTER + INTRA:         -13.491
REMARK INTER:                 -13.617
REMARK INTRA:                   0.125
REMARK UNBOUND:                 0.125
REMARK  Name = 
REMARK  10 active torsions:
REMARK  status: ('A' for Active; 'I' for Inactive)
REMARK    1  A    between atoms: C_1  and  O_2
REMARK    2  A    between atoms: O_2  and  C_3
REMARK    3  A    between atoms: N_17  and  C_18
REMARK    4  A    between atoms: N_21  and  C_22
REMARK    5  A    between atoms: C_22  and  C_23
REMARK    6  A    between atoms: C_23  and  C_24
REMARK    7  A    between atoms: C_24  and  N_25
REMARK    8  A    between atoms: N_25  and  C_26
REMARK    9  A    between atoms: C_26  and  C_27
REMARK   10  A    between atoms: C_27  and  O_28
REMARK                            x       y       z     vdW  Elec       q    Type
REMARK                         _______ _______ _______ _____ _____    ______ ____
ROOT
ATOM      1  C   UNL     1      -8.411  -9.872  19.347  0.00  0.00    +0.000 A 
ATOM      2  C   UNL     1      -8.052  -8.839  20.205  0.00  0.00    +0.000 A 
ATOM      3  C   UNL     1      -8.505  -7.533  19.975  0.00  0.00    +0.000 A 
ATOM      4  C   UNL     1      -9.324  -7.261  18.863  0.00  0.00    +0.000 A 
ATOM      5  C   UNL     1     -10.027  -6.185  18.343  0.00  0.00    +0.000 A 
ATOM      6  C   UNL     1      -9.933  -4.889  18.881  0.00  0.00    +0.000 A 
ATOM      7  C   UNL     1     -10.840  -3.948  18.381  0.00  0.00    +0.000 A 
ATOM      8  C   UNL     1     -11.476  -4.083  17.149  0.00  0.00    +0.000 A 
ATOM      9  C   UNL     1     -11.402  -5.361  16.510  0.00  0.00    +0.000 A 
ATOM     10  C   UNL     1     -11.693  -5.427  15.140  0.00  0.00    +0.000 A 
ATOM     11  C   UNL     1     -11.463  -4.288  14.356  0.00  0.00    +0.000 A 
ATOM     12  C   UNL     1     -11.133  -3.120  15.044  0.00  0.00    +0.000 A 
ATOM     13  C   UNL     1      -9.928  -2.320  15.178  0.00  0.00    +0.000 A 
ATOM     14  C   UNL     1     -10.151  -1.419  16.198  0.00  0.00    +0.000 A 
ATOM     15  N   UNL     1     -11.513  -1.560  16.441  0.00  0.00    +0.000 N 
ATOM     16  C   UNL     1     -11.698  -2.948  16.321  0.00  0.00    +0.000 A 
ATOM     17  C   UNL     1     -10.750  -6.432  17.192  0.00  0.00    +0.000 A 
ATOM     18  N   UNL     1     -10.419  -7.755  16.933  0.00  0.00    +0.000 N 
ATOM     19  C   UNL     1      -9.643  -8.296  17.975  0.00  0.00    +0.000 A 
ATOM     20  C   UNL     1      -9.189  -9.609  18.213  0.00  0.00    +0.000 A 
ATOM     21  C   UNL     1     -10.677  -2.759  19.158  0.00  0.00    +0.000 C 
ATOM     22  O   UNL     1     -11.434  -1.826  19.427  0.00  0.00    +0.000 OA
ATOM     23  N   UNL     1      -9.439  -2.914  19.713  0.00  0.00    +0.000 N 
ATOM     24  C   UNL     1      -8.970  -4.203  19.678  0.00  0.00    +0.000 C 
ATOM     25  O   UNL     1      -7.859  -4.504  20.105  0.00  0.00    +0.000 OA
ATOM     26  H   UNL     1      -7.434  -9.003  21.081  0.00  0.00    +0.000 HD
ATOM     27  H   UNL     1      -8.239  -6.760  20.690  0.00  0.00    +0.000 HD
ATOM     28  H   UNL     1     -11.796  -6.356  14.609  0.00  0.00    +0.000 HD
ATOM     29  H   UNL     1     -11.299  -4.385  13.291  0.00  0.00    +0.000 HD
ATOM     30  H   UNL     1      -8.969  -2.517  14.704  0.00  0.00    +0.000 HD
ATOM     31  H   UNL     1      -9.572  -0.637  16.683  0.00  0.00    +0.000 HD
ATOM     32  H   UNL     1      -9.451 -10.428  17.552  0.00  0.00    +0.000 HD
ATOM     33  H   UNL     1      -8.758  -2.251  19.366  0.00  0.00    +0.000 HD
ENDROOT
BRANCH  15  34
ATOM     34  C   UNL     1     -12.398  -0.598  15.757  0.00  0.00    +0.000 C 
ATOM     35  H   UNL     1     -12.872  -1.106  14.910  0.00  0.00    +0.000 HD
ATOM     36  H   UNL     1     -11.823   0.272  15.434  0.00  0.00    +0.000 HD
ATOM     37  H   UNL     1     -13.175  -0.280  16.463  0.00  0.00    +0.000 HD
ENDBRANCH  15  34
BRANCH  18  38
ATOM     38  C   UNL     1     -10.878  -8.556  15.808  0.00  0.00    +0.000 C 
ATOM     39  H   UNL     1     -10.745  -7.939  14.910  0.00  0.00    +0.000 HD
ATOM     40  H   UNL     1     -11.977  -8.687  15.892  0.00  0.00    +0.000 HD
BRANCH  38  41
ATOM     41  C   UNL     1     -10.204  -9.920  15.623  0.00  0.00    +0.000 C 
ATOM     42  H   UNL     1     -10.941 -10.671  15.331  0.00  0.00    +0.000 HD
ATOM     43  H   UNL     1      -9.813 -10.230  16.602  0.00  0.00    +0.000 HD
BRANCH  41  44
ATOM     44  C   UNL     1      -9.062  -9.962  14.604  0.00  0.00    +0.000 C 
ATOM     45  H   UNL     1      -8.425  -9.078  14.719  0.00  0.00    +0.000 HD
ATOM     46  H   UNL     1      -9.465  -9.977  13.586  0.00  0.00    +0.000 HD
BRANCH  44  47
ATOM     47  N   UNL     1      -8.284 -11.187  14.853  0.00  0.00    +0.000 NA
ATOM     48  H   UNL     1      -7.732 -11.045  15.701  0.00  0.00    +0.000 HD
BRANCH  47  49
ATOM     49  C   UNL     1      -9.162 -12.348  15.079  0.00  0.00    +0.000 C 
ATOM     50  H   UNL     1      -9.930 -12.405  14.299  0.00  0.00    +0.000 HD
ATOM     51  H   UNL     1      -9.654 -12.242  16.053  0.00  0.00    +0.000 HD
BRANCH  49  52
ATOM     52  C   UNL     1      -8.351 -13.653  15.072  0.00  0.00    +0.000 C 
ATOM     53  H   UNL     1      -7.896 -13.852  16.048  0.00  0.00    +0.000 HD
ATOM     54  H   UNL     1      -7.544 -13.587  14.332  0.00  0.00    +0.000 HD
BRANCH  52  55
ATOM     55  O   UNL     1      -9.174 -14.761  14.719  0.00  0.00    +0.000 OA
ATOM     56  H   UNL     1      -9.652 -15.003  15.530  0.00  0.00    +0.000 HD
ENDBRANCH  52  55
ENDBRANCH  49  52
ENDBRANCH  47  49
ENDBRANCH  44  47
ENDBRANCH  41  44
ENDBRANCH  38  41
ENDBRANCH  18  38
BRANCH   1  57
ATOM     57  O   UNL     1      -8.065 -11.190  19.502  0.00  0.00    +0.000 OA
BRANCH  57  58
ATOM     58  C   UNL     1      -8.415 -12.077  18.445  0.00  0.00    +0.000 C 
ATOM     59  H   UNL     1      -9.231 -12.712  18.801  0.00  0.00    +0.000 HD
ATOM     60  H   UNL     1      -7.579 -12.731  18.174  0.00  0.00    +0.000 HD
ATOM     61  H   UNL     1      -8.782 -11.522  17.576  0.00  0.00    +0.000 HD
ENDBRANCH  57  58
ENDBRANCH   1  57
TORSDOF 10
ENDMDL
MODEL 2
REMARK VINA RESULT:    -8.712      2.218      4.490
REMARK INTER + INTRA:         -12.916
REMARK INTER:                 -12.154
REMARK INTRA:                  -0.762
REMARK UNBOUND:                 0.125
REMARK  Name = 
REMARK  10 active torsions:
REMARK  status: ('A' for Active; 'I' for Inactive)
REMARK    1  A    between atoms: C_1  and  O_2
REMARK    2  A    between atoms: O_2  and  C_3
REMARK    3  A    between atoms: N_17  and  C_18
REMARK    4  A    between atoms: N_21  and  C_22
REMARK    5  A    between atoms: C_22  and  C_23
REMARK    6  A    between atoms: C_23  and  C_24
REMARK    7  A    between atoms: C_24  and  N_25
REMARK    8  A    between atoms: N_25  and  C_26
REMARK    9  A    between atoms: C_26  and  C_27
REMARK   10  A    between atoms: C_27  and  O_28
REMARK                            x       y       z     vdW  Elec       q    Type
REMARK                         _______ _______ _______ _____ _____    ______ ____
ROOT
ATOM      1  C   UNL     1      -7.680  -3.525  22.089  0.00  0.00    +0.000 A 
ATOM      2  C   UNL     1      -8.288  -2.296  21.859  0.00  0.00    +0.000 A 
ATOM      3  C   UNL     1      -9.018  -2.072  20.685  0.00  0.00    +0.000 A 
ATOM      4  C   UNL     1      -9.134  -3.096  19.725  0.00  0.00    +0.000 A 
ATOM      5  C   UNL     1      -9.803  -3.314  18.531  0.00  0.00    +0.000 A 
ATOM      6  C   UNL     1     -10.538  -2.307  17.881  0.00  0.00    +0.000 A 
ATOM      7  C   UNL     1     -11.316  -2.717  16.792  0.00  0.00    +0.000 A 
ATOM      8  C   UNL     1     -11.070  -3.888  16.079  0.00  0.00    +0.000 A 
ATOM      9  C   UNL     1     -10.162  -4.830  16.659  0.00  0.00    +0.000 A 
ATOM     10  C   UNL     1      -9.612  -5.812  15.823  0.00  0.00    +0.000 A 
ATOM     11  C   UNL     1      -9.471  -5.521  14.460  0.00  0.00    +0.000 A 
ATOM     12  C   UNL     1     -10.061  -4.337  14.015  0.00  0.00    +0.000 A 
ATOM     13  C   UNL     1      -9.557  -3.058  13.547  0.00  0.00    +0.000 A 
ATOM     14  C   UNL     1     -10.631  -2.195  13.491  0.00  0.00    +0.000 A 
ATOM     15  N   UNL     1     -11.717  -3.041  13.685  0.00  0.00    +0.000 N 
ATOM     16  C   UNL     1     -11.238  -3.925  14.667  0.00  0.00    +0.000 A 
ATOM     17  C   UNL     1      -9.620  -4.555  17.951  0.00  0.00    +0.000 A 
ATOM     18  N   UNL     1      -8.709  -5.138  18.821  0.00  0.00    +0.000 N 
ATOM     19  C   UNL     1      -8.481  -4.316  19.941  0.00  0.00    +0.000 A 
ATOM     20  C   UNL     1      -7.750  -4.538  21.126  0.00  0.00    +0.000 A 
ATOM     21  C   UNL     1     -12.086  -1.585  16.381  0.00  0.00    +0.000 C 
ATOM     22  O   UNL     1     -13.164  -1.476  15.796  0.00  0.00    +0.000 OA
ATOM     23  N   UNL     1     -11.405  -0.530  16.916  0.00  0.00    +0.000 N 
ATOM     24  C   UNL     1     -10.526  -0.881  17.910  0.00  0.00    +0.000 C 
ATOM     25  O   UNL     1      -9.812  -0.054  18.470  0.00  0.00    +0.000 OA
ATOM     26  H   UNL     1      -8.237  -1.483  22.575  0.00  0.00    +0.000 HD
ATOM     27  H   UNL     1      -9.514  -1.114  20.558  0.00  0.00    +0.000 HD
ATOM     28  H   UNL     1      -9.033  -6.639  16.195  0.00  0.00    +0.000 HD
ATOM     29  H   UNL     1      -8.736  -6.046  13.864  0.00  0.00    +0.000 HD
ATOM     30  H   UNL     1      -8.511  -2.777  13.446  0.00  0.00    +0.000 HD
ATOM     31  H   UNL     1     -10.773  -1.150  13.228  0.00  0.00    +0.000 HD
ATOM     32  H   UNL     1      -7.263  -5.487  21.322  0.00  0.00    +0.000 HD
ATOM     33  H   UNL     1     -10.975   0.066  16.220  0.00  0.00    +0.000 HD
ENDROOT
BRANCH  15  34
ATOM     34  C   UNL     1     -12.387  -3.528  12.464  0.00  0.00    +0.000 C 
ATOM     35  H   UNL     1     -12.953  -4.430  12.717  0.00  0.00    +0.000 HD
ATOM     36  H   UNL     1     -11.646  -3.724  11.686  0.00  0.00    +0.000 HD
ATOM     37  H   UNL     1     -13.082  -2.754  12.119  0.00  0.00    +0.000 HD
ENDBRANCH  15  34
BRANCH  18  38
ATOM     38  C   UNL     1      -8.125  -6.464  18.698  0.00  0.00    +0.000 C 
ATOM     39  H   UNL     1      -7.242  -6.480  19.349  0.00  0.00    +0.000 HD
ATOM     40  H   UNL     1      -7.714  -6.576  17.673  0.00  0.00    +0.000 HD
BRANCH  38  41
ATOM     41  C   UNL     1      -9.046  -7.646  19.020  0.00  0.00    +0.000 C 
ATOM     42  H   UNL     1      -9.237  -8.236  18.121  0.00  0.00    +0.000 HD
ATOM     43  H   UNL     1     -10.015  -7.233  19.336  0.00  0.00    +0.000 HD
BRANCH  41  44
ATOM     44  C   UNL     1      -8.544  -8.600  20.108  0.00  0.00    +0.000 C 
ATOM     45  H   UNL     1      -9.038  -8.375  21.060  0.00  0.00    +0.000 HD
ATOM     46  H   UNL     1      -7.462  -8.490  20.236  0.00  0.00    +0.000 HD
BRANCH  44  47
ATOM     47  N   UNL     1      -8.862  -9.973  19.682  0.00  0.00    +0.000 NA
ATOM     48  H   UNL     1      -9.797 -10.203  20.023  0.00  0.00    +0.000 HD
BRANCH  47  49
ATOM     49  C   UNL     1      -8.877 -10.093  18.214  0.00  0.00    +0.000 C 
ATOM     50  H   UNL     1      -8.000  -9.602  17.780  0.00  0.00    +0.000 HD
ATOM     51  H   UNL     1      -9.781  -9.611  17.825  0.00  0.00    +0.000 HD
BRANCH  49  52
ATOM     52  C   UNL     1      -8.881 -11.570  17.789  0.00  0.00    +0.000 C 
ATOM     53  H   UNL     1      -8.018 -11.812  17.160  0.00  0.00    +0.000 HD
ATOM     54  H   UNL     1      -9.789 -11.790  17.213  0.00  0.00    +0.000 HD
BRANCH  52  55
ATOM     55  O   UNL     1      -8.871 -12.426  18.927  0.00  0.00    +0.000 OA
ATOM     56  H   UNL     1      -8.700 -11.848  19.690  0.00  0.00    +0.000 HD
ENDBRANCH  52  55
ENDBRANCH  49  52
ENDBRANCH  47  49
ENDBRANCH  44  47
ENDBRANCH  41  44
ENDBRANCH  38  41
ENDBRANCH  18  38
BRANCH   1  57
ATOM     57  O   UNL     1      -6.984  -3.868  23.220  0.00  0.00    +0.000 OA
BRANCH  57  58
ATOM     58  C   UNL     1      -7.730  -3.977  24.428  0.00  0.00    +0.000 C 
ATOM     59  H   UNL     1      -7.790  -5.038  24.686  0.00  0.00    +0.000 HD
ATOM     60  H   UNL     1      -8.753  -3.606  24.304  0.00  0.00    +0.000 HD
ATOM     61  H   UNL     1      -7.219  -3.464  25.249  0.00  0.00    +0.000 HD
ENDBRANCH  57  58
ENDBRANCH   1  57
TORSDOF 10
ENDMDL
MODEL 3
REMARK VINA RESULT:    -8.570      2.733      5.487
REMARK INTER + INTRA:         -12.704
REMARK INTER:                 -12.405
REMARK INTRA:                  -0.299
REMARK UNBOUND:                 0.125
REMARK  Name = 
REMARK  10 active torsions:
REMARK  status: ('A' for Active; 'I' for Inactive)
REMARK    1  A    between atoms: C_1  and  O_2
REMARK    2  A    between atoms: O_2  and  C_3
REMARK    3  A    between atoms: N_17  and  C_18
REMARK    4  A    between atoms: N_21  and  C_22
REMARK    5  A    between atoms: C_22  and  C_23
REMARK    6  A    between atoms: C_23  and  C_24
REMARK    7  A    between atoms: C_24  and  N_25
REMARK    8  A    between atoms: N_25  and  C_26
REMARK    9  A    between atoms: C_26  and  C_27
REMARK   10  A    between atoms: C_27  and  O_28
REMARK                            x       y       z     vdW  Elec       q    Type
REMARK                         _______ _______ _______ _____ _____    ______ ____
ROOT
ATOM      1  C   UNL     1      -9.403  -6.876  16.060  0.00  0.00    +0.000 A 
ATOM      2  C   UNL     1     -10.300  -5.843  15.818  0.00  0.00    +0.000 A 
ATOM      3  C   UNL     1     -10.383  -4.753  16.693  0.00  0.00    +0.000 A 
ATOM      4  C   UNL     1      -9.558  -4.705  17.833  0.00  0.00    +0.000 A 
ATOM      5  C   UNL     1      -9.270  -3.817  18.858  0.00  0.00    +0.000 A 
ATOM      6  C   UNL     1      -9.979  -2.615  19.038  0.00  0.00    +0.000 A 
ATOM      7  C   UNL     1      -9.458  -1.729  19.988  0.00  0.00    +0.000 A 
ATOM      8  C   UNL     1      -8.609  -2.130  21.017  0.00  0.00    +0.000 A 
ATOM      9  C   UNL     1      -8.040  -3.440  20.925  0.00  0.00    +0.000 A 
ATOM     10  C   UNL     1      -7.503  -4.005  22.091  0.00  0.00    +0.000 A 
ATOM     11  C   UNL     1      -8.029  -3.605  23.326  0.00  0.00    +0.000 A 
ATOM     12  C   UNL     1      -8.924  -2.535  23.301  0.00  0.00    +0.000 A 
ATOM     13  C   UNL     1     -10.353  -2.393  23.523  0.00  0.00    +0.000 A 
ATOM     14  C   UNL     1     -10.704  -1.127  23.105  0.00  0.00    +0.000 A 
ATOM     15  N   UNL     1      -9.472  -0.519  22.895  0.00  0.00    +0.000 N 
ATOM     16  C   UNL     1      -8.721  -1.553  22.313  0.00  0.00    +0.000 A 
ATOM     17  C   UNL     1      -8.313  -4.226  19.765  0.00  0.00    +0.000 A 
ATOM     18  N   UNL     1      -8.025  -5.505  19.309  0.00  0.00    +0.000 N 
ATOM     19  C   UNL     1      -8.690  -5.772  18.097  0.00  0.00    +0.000 A 
ATOM     20  C   UNL     1      -8.607  -6.864  17.211  0.00  0.00    +0.000 A 
ATOM     21  C   UNL     1     -10.228  -0.528  19.904  0.00  0.00    +0.000 C 
ATOM     22  O   UNL     1      -9.978   0.646  20.178  0.00  0.00    +0.000 OA
ATOM     23  N   UNL     1     -11.375  -0.933  19.284  0.00  0.00    +0.000 N 
ATOM     24  C   UNL     1     -11.265  -2.142  18.643  0.00  0.00    +0.000 C 
ATOM     25  O   UNL     1     -12.215  -2.663  18.067  0.00  0.00    +0.000 OA
ATOM     26  H   UNL     1     -10.946  -5.830  14.946  0.00  0.00    +0.000 HD
ATOM     27  H   UNL     1     -11.066  -3.944  16.450  0.00  0.00    +0.000 HD
ATOM     28  H   UNL     1      -6.936  -4.919  22.089  0.00  0.00    +0.000 HD
ATOM     29  H   UNL     1      -7.943  -4.251  24.189  0.00  0.00    +0.000 HD
ATOM     30  H   UNL     1     -11.045  -3.190  23.784  0.00  0.00    +0.000 HD
ATOM     31  H   UNL     1     -11.629  -0.558  23.049  0.00  0.00    +0.000 HD
ATOM     32  H   UNL     1      -7.918  -7.685  17.385  0.00  0.00    +0.000 HD
ATOM     33  H   UNL     1     -12.192  -0.891  19.880  0.00  0.00    +0.000 HD
ENDROOT
BRANCH  15  34
ATOM     34  C   UNL     1      -8.945   0.286  24.014  0.00  0.00    +0.000 C 
ATOM     35  H   UNL     1      -8.641   1.263  23.624  0.00  0.00    +0.000 HD
ATOM     36  H   UNL     1      -8.111  -0.235  24.487  0.00  0.00    +0.000 HD
ATOM     37  H   UNL     1      -9.749   0.428  24.746  0.00  0.00    +0.000 HD
ENDBRANCH  15  34
BRANCH  18  38
ATOM     38  C   UNL     1      -7.084  -6.442  19.903  0.00  0.00    +0.000 C 
ATOM     39  H   UNL     1      -6.895  -6.091  20.925  0.00  0.00    +0.000 HD
ATOM     40  H   UNL     1      -6.106  -6.334  19.390  0.00  0.00    +0.000 HD
BRANCH  38  41
ATOM     41  C   UNL     1      -7.505  -7.915  19.915  0.00  0.00    +0.000 C 
ATOM     42  H   UNL     1      -6.742  -8.525  20.403  0.00  0.00    +0.000 HD
ATOM     43  H   UNL     1      -7.554  -8.253  18.869  0.00  0.00    +0.000 HD
BRANCH  41  44
ATOM     44  C   UNL     1      -8.847  -8.216  20.589  0.00  0.00    +0.000 C 
ATOM     45  H   UNL     1      -9.627  -7.567  20.176  0.00  0.00    +0.000 HD
ATOM     46  H   UNL     1      -8.775  -8.040  21.667  0.00  0.00    +0.000 HD
BRANCH  44  47
ATOM     47  N   UNL     1      -9.171  -9.629  20.333  0.00  0.00    +0.000 NA
ATOM     48  H   UNL     1     -10.025  -9.662  19.774  0.00  0.00    +0.000 HD
BRANCH  47  49
ATOM     49  C   UNL     1      -8.106 -10.297  19.565  0.00  0.00    +0.000 C 
ATOM     50  H   UNL     1      -7.533 -10.970  20.212  0.00  0.00    +0.000 HD
ATOM     51  H   UNL     1      -7.429  -9.538  19.156  0.00  0.00    +0.000 HD
BRANCH  49  52
ATOM     52  C   UNL     1      -8.700 -11.110  18.405  0.00  0.00    +0.000 C 
ATOM     53  H   UNL     1      -8.062 -11.074  17.517  0.00  0.00    +0.000 HD
ATOM     54  H   UNL     1      -9.683 -10.706  18.130  0.00  0.00    +0.000 HD
BRANCH  52  55
ATOM     55  O   UNL     1      -8.882 -12.472  18.780  0.00  0.00    +0.000 OA
ATOM     56  H   UNL     1      -8.696 -12.510  19.734  0.00  0.00    +0.000 HD
ENDBRANCH  52  55
ENDBRANCH  49  52
ENDBRANCH  47  49
ENDBRANCH  44  47
ENDBRANCH  41  44
ENDBRANCH  38  41
ENDBRANCH  18  38
BRANCH   1  57
ATOM     57  O   UNL     1      -9.205  -7.964  15.247  0.00  0.00    +0.000 OA
BRANCH  57  58
ATOM     58  C   UNL     1      -9.919  -9.151  15.574  0.00  0.00    +0.000 C 
ATOM     59  H   UNL     1     -10.326  -9.561  14.645  0.00  0.00    +0.000 HD
ATOM     60  H   UNL     1     -10.761  -8.944  16.244  0.00  0.00    +0.000 HD
ATOM     61  H   UNL     1      -9.248  -9.903  16.002  0.00  0.00    +0.000 HD
ENDBRANCH  57  58
ENDBRANCH   1  57
TORSDOF 10
ENDMDL
MODEL 4
REMARK VINA RESULT:    -8.505      3.143      8.729
REMARK INTER + INTRA:         -12.605
REMARK INTER:                 -11.602
REMARK INTRA:                  -1.003
REMARK UNBOUND:                 0.125
REMARK  Name = 
REMARK  10 active torsions:
REMARK  status: ('A' for Active; 'I' for Inactive)
REMARK    1  A    between atoms: C_1  and  O_2
REMARK    2  A    between atoms: O_2  and  C_3
REMARK    3  A    between atoms: N_17  and  C_18
REMARK    4  A    between atoms: N_21  and  C_22
REMARK    5  A    between atoms: C_22  and  C_23
REMARK    6  A    between atoms: C_23  and  C_24
REMARK    7  A    between atoms: C_24  and  N_25
REMARK    8  A    between atoms: N_25  and  C_26
REMARK    9  A    between atoms: C_26  and  C_27
REMARK   10  A    between atoms: C_27  and  O_28
REMARK                            x       y       z     vdW  Elec       q    Type
REMARK                         _______ _______ _______ _____ _____    ______ ____
ROOT
ATOM      1  C   UNL     1     -12.087   0.771  16.128  0.00  0.00    +0.000 A 
ATOM      2  C   UNL     1     -12.547  -0.239  15.291  0.00  0.00    +0.000 A 
ATOM      3  C   UNL     1     -12.252  -1.581  15.567  0.00  0.00    +0.000 A 
ATOM      4  C   UNL     1     -11.477  -1.911  16.696  0.00  0.00    +0.000 A 
ATOM      5  C   UNL     1     -11.050  -3.055  17.350  0.00  0.00    +0.000 A 
ATOM      6  C   UNL     1     -11.262  -4.346  16.833  0.00  0.00    +0.000 A 
ATOM      7  C   UNL     1     -10.952  -5.410  17.688  0.00  0.00    +0.000 A 
ATOM      8  C   UNL     1     -10.080  -5.291  18.767  0.00  0.00    +0.000 A 
ATOM      9  C   UNL     1      -9.712  -3.968  19.169  0.00  0.00    +0.000 A 
ATOM     10  C   UNL     1      -8.577  -3.820  19.978  0.00  0.00    +0.000 A 
ATOM     11  C   UNL     1      -7.562  -4.781  19.882  0.00  0.00    +0.000 A 
ATOM     12  C   UNL     1      -7.850  -5.910  19.114  0.00  0.00    +0.000 A 
ATOM     13  C   UNL     1      -7.389  -6.420  17.835  0.00  0.00    +0.000 A 
ATOM     14  C   UNL     1      -8.230  -7.455  17.484  0.00  0.00    +0.000 A 
ATOM     15  N   UNL     1      -8.967  -7.660  18.645  0.00  0.00    +0.000 N 
ATOM     16  C   UNL     1      -9.187  -6.348  19.096  0.00  0.00    +0.000 A 
ATOM     17  C   UNL     1     -10.305  -2.856  18.497  0.00  0.00    +0.000 A 
ATOM     18  N   UNL     1     -10.200  -1.472  18.525  0.00  0.00    +0.000 N 
ATOM     19  C   UNL     1     -10.977  -0.885  17.508  0.00  0.00    +0.000 A 
ATOM     20  C   UNL     1     -11.281   0.463  17.230  0.00  0.00    +0.000 A 
ATOM     21  C   UNL     1     -11.378  -6.607  17.032  0.00  0.00    +0.000 C 
ATOM     22  O   UNL     1     -11.718  -7.713  17.452  0.00  0.00    +0.000 OA
ATOM     23  N   UNL     1     -11.470  -6.233  15.722  0.00  0.00    +0.000 N 
ATOM     24  C   UNL     1     -11.514  -4.875  15.533  0.00  0.00    +0.000 C 
ATOM     25  O   UNL     1     -11.563  -4.374  14.413  0.00  0.00    +0.000 OA
ATOM     26  H   UNL     1     -13.157  -0.035  14.418  0.00  0.00    +0.000 HD
ATOM     27  H   UNL     1     -12.662  -2.346  14.914  0.00  0.00    +0.000 HD
ATOM     28  H   UNL     1      -8.305  -2.887  20.439  0.00  0.00    +0.000 HD
ATOM     29  H   UNL     1      -6.548  -4.532  20.166  0.00  0.00    +0.000 HD
ATOM     30  H   UNL     1      -6.649  -5.956  17.187  0.00  0.00    +0.000 HD
ATOM     31  H   UNL     1      -8.316  -8.131  16.637  0.00  0.00    +0.000 HD
ATOM     32  H   UNL     1     -10.926   1.267  17.866  0.00  0.00    +0.000 HD
ATOM     33  H   UNL     1     -10.783  -6.678  15.128  0.00  0.00    +0.000 HD
ENDROOT
BRANCH  15  34
ATOM     34  C   UNL     1      -8.477  -8.718  19.548  0.00  0.00    +0.000 C 
ATOM     35  H   UNL     1      -9.108  -8.731  20.442  0.00  0.00    +0.000 HD
ATOM     36  H   UNL     1      -7.429  -8.539  19.798  0.00  0.00    +0.000 HD
ATOM     37  H   UNL     1      -8.568  -9.682  19.032  0.00  0.00    +0.000 HD
ENDBRANCH  15  34
BRANCH  18  38
ATOM     38  C   UNL     1      -9.489  -0.681  19.517  0.00  0.00    +0.000 C 
ATOM     39  H   UNL     1      -9.403   0.333  19.105  0.00  0.00    +0.000 HD
ATOM     40  H   UNL     1      -8.443  -1.044  19.576  0.00  0.00    +0.000 HD
BRANCH  38  41
ATOM     41  C   UNL     1     -10.104  -0.635  20.919  0.00  0.00    +0.000 C 
ATOM     42  H   UNL     1      -9.994   0.362  21.351  0.00  0.00    +0.000 HD
ATOM     43  H   UNL     1      -9.525  -1.319  21.556  0.00  0.00    +0.000 HD
BRANCH  41  44
ATOM     44  C   UNL     1     -11.584  -1.022  21.008  0.00  0.00    +0.000 C 
ATOM     45  H   UNL     1     -11.956  -1.303  20.017  0.00  0.00    +0.000 HD
ATOM     46  H   UNL     1     -12.173  -0.177  21.380  0.00  0.00    +0.000 HD
BRANCH  44  47
ATOM     47  N   UNL     1     -11.696  -2.159  21.936  0.00  0.00    +0.000 NA
ATOM     48  H   UNL     1     -11.626  -3.021  21.392  0.00  0.00    +0.000 HD
BRANCH  47  49
ATOM     49  C   UNL     1     -10.602  -2.161  22.922  0.00  0.00    +0.000 C 
ATOM     50  H   UNL     1     -10.150  -1.166  22.995  0.00  0.00    +0.000 HD
ATOM     51  H   UNL     1      -9.834  -2.875  22.603  0.00  0.00    +0.000 HD
BRANCH  49  52
ATOM     52  C   UNL     1     -11.119  -2.575  24.308  0.00  0.00    +0.000 C 
ATOM     53  H   UNL     1     -11.426  -1.708  24.901  0.00  0.00    +0.000 HD
ATOM     54  H   UNL     1     -10.327  -3.097  24.861  0.00  0.00    +0.000 HD
BRANCH  52  55
ATOM     55  O   UNL     1     -12.225  -3.465  24.193  0.00  0.00    +0.000 OA
ATOM     56  H   UNL     1     -13.019  -2.907  24.259  0.00  0.00    +0.000 HD
ENDBRANCH  52  55
ENDBRANCH  49  52
ENDBRANCH  47  49
ENDBRANCH  44  47
ENDBRANCH  41  44
ENDBRANCH  38  41
ENDBRANCH  18  38
BRANCH   1  57
ATOM     57  O   UNL     1     -12.356   2.108  15.981  0.00  0.00    +0.000 OA
BRANCH  57  58
ATOM     58  C   UNL     1     -12.877   2.526  14.723  0.00  0.00    +0.000 C 
ATOM     59  H   UNL     1     -12.222   2.127  13.944  0.00  0.00    +0.000 HD
ATOM     60  H   UNL     1     -12.878   3.618  14.631  0.00  0.00    +0.000 HD
ATOM     61  H   UNL     1     -13.877   2.113  14.560  0.00  0.00    +0.000 HD
ENDBRANCH  57  58
ENDBRANCH   1  57
TORSDOF 10
ENDMDL
MODEL 5
REMARK VINA RESULT:    -8.420      2.403      4.556
REMARK INTER + INTRA:         -12.478
REMARK INTER:                 -11.437
REMARK INTRA:                  -1.042
REMARK UNBOUND:                 0.125
REMARK  Name = 
REMARK  10 active torsions:
REMARK  status: ('A' for Active; 'I' for Inactive)
REMARK    1  A    between atoms: C_1  and  O_2
REMARK    2  A    between atoms: O_2  and  C_3
REMARK    3  A    between atoms: N_17  and  C_18
REMARK    4  A    between atoms: N_21  and  C_22
REMARK    5  A    between atoms: C_22  and  C_23
REMARK    6  A    between atoms: C_23  and  C_24
REMARK    7  A    between atoms: C_24  and  N_25
REMARK    8  A    between atoms: N_25  and  C_26
REMARK    9  A    between atoms: C_26  and  C_27
REMARK   10  A    between atoms: C_27  and  O_28
REMARK                            x       y       z     vdW  Elec       q    Type
REMARK                         _______ _______ _______ _____ _____    ______ ____
ROOT
ATOM      1  C   UNL     1      -8.007  -3.303  21.993  0.00  0.00    +0.000 A 
ATOM      2  C   UNL     1      -8.628  -2.080  21.771  0.00  0.00    +0.000 A 
ATOM      3  C   UNL     1      -9.332  -1.845  20.583  0.00  0.00    +0.000 A 
ATOM      4  C   UNL     1      -9.407  -2.852  19.601  0.00  0.00    +0.000 A 
ATOM      5  C   UNL     1     -10.041  -3.058  18.386  0.00  0.00    +0.000 A 
ATOM      6  C   UNL     1     -10.776  -2.050  17.736  0.00  0.00    +0.000 A 
ATOM      7  C   UNL     1     -11.519  -2.452  16.620  0.00  0.00    +0.000 A 
ATOM      8  C   UNL     1     -11.235  -3.605  15.892  0.00  0.00    +0.000 A 
ATOM      9  C   UNL     1     -10.327  -4.543  16.477  0.00  0.00    +0.000 A 
ATOM     10  C   UNL     1      -9.740  -5.500  15.637  0.00  0.00    +0.000 A 
ATOM     11  C   UNL     1      -9.569  -5.180  14.284  0.00  0.00    +0.000 A 
ATOM     12  C   UNL     1     -10.167  -3.998  13.847  0.00  0.00    +0.000 A 
ATOM     13  C   UNL     1      -9.672  -2.702  13.416  0.00  0.00    +0.000 A 
ATOM     14  C   UNL     1     -10.759  -1.855  13.349  0.00  0.00    +0.000 A 
ATOM     15  N   UNL     1     -11.835  -2.723  13.499  0.00  0.00    +0.000 N 
ATOM     16  C   UNL     1     -11.367  -3.617  14.476  0.00  0.00    +0.000 A 
ATOM     17  C   UNL     1      -9.823  -4.284  17.788  0.00  0.00    +0.000 A 
ATOM     18  N   UNL     1      -8.925  -4.869  18.670  0.00  0.00    +0.000 N 
ATOM     19  C   UNL     1      -8.739  -4.065  19.811  0.00  0.00    +0.000 A 
ATOM     20  C   UNL     1      -8.035  -4.299  21.009  0.00  0.00    +0.000 A 
ATOM     21  C   UNL     1     -12.297  -1.325  16.211  0.00  0.00    +0.000 C 
ATOM     22  O   UNL     1     -13.361  -1.222  15.600  0.00  0.00    +0.000 OA
ATOM     23  N   UNL     1     -11.647  -0.270  16.783  0.00  0.00    +0.000 N 
ATOM     24  C   UNL     1     -10.788  -0.625  17.792  0.00  0.00    +0.000 C 
ATOM     25  O   UNL     1     -10.102   0.202  18.386  0.00  0.00    +0.000 OA
ATOM     26  H   UNL     1      -8.609  -1.280  22.503  0.00  0.00    +0.000 HD
ATOM     27  H   UNL     1      -9.840  -0.893  20.462  0.00  0.00    +0.000 HD
ATOM     28  H   UNL     1      -9.157  -6.324  16.008  0.00  0.00    +0.000 HD
ATOM     29  H   UNL     1      -8.810  -5.682  13.698  0.00  0.00    +0.000 HD
ATOM     30  H   UNL     1      -8.629  -2.402  13.347  0.00  0.00    +0.000 HD
ATOM     31  H   UNL     1     -10.911  -0.807  13.101  0.00  0.00    +0.000 HD
ATOM     32  H   UNL     1      -7.538  -5.244  21.200  0.00  0.00    +0.000 HD
ATOM     33  H   UNL     1     -11.210   0.347  16.110  0.00  0.00    +0.000 HD
ENDROOT
BRANCH  15  34
ATOM     34  C   UNL     1     -12.465  -3.197  12.252  0.00  0.00    +0.000 C 
ATOM     35  H   UNL     1     -11.676  -3.529  11.570  0.00  0.00    +0.000 HD
ATOM     36  H   UNL     1     -13.067  -2.399  11.813  0.00  0.00    +0.000 HD
ATOM     37  H   UNL     1     -13.111  -4.049  12.494  0.00  0.00    +0.000 HD
ENDBRANCH  15  34
BRANCH  18  38
ATOM     38  C   UNL     1      -8.316  -6.184  18.537  0.00  0.00    +0.000 C 
ATOM     39  H   UNL     1      -7.452  -6.199  19.213  0.00  0.00    +0.000 HD
ATOM     40  H   UNL     1      -7.874  -6.268  17.523  0.00  0.00    +0.000 HD
BRANCH  38  41
ATOM     41  C   UNL     1      -9.227  -7.386  18.808  0.00  0.00    +0.000 C 
ATOM     42  H   UNL     1     -10.262  -7.060  18.926  0.00  0.00    +0.000 HD
ATOM     43  H   UNL     1      -8.923  -7.819  19.772  0.00  0.00    +0.000 HD
BRANCH  41  44
ATOM     44  C   UNL     1      -9.201  -8.490  17.746  0.00  0.00    +0.000 C 
ATOM     45  H   UNL     1      -8.970  -9.453  18.214  0.00  0.00    +0.000 HD
ATOM     46  H   UNL     1      -8.438  -8.270  16.992  0.00  0.00    +0.000 HD
BRANCH  44  47
ATOM     47  N   UNL     1     -10.530  -8.536  17.115  0.00  0.00    +0.000 NA
ATOM     48  H   UNL     1     -10.822  -7.576  16.921  0.00  0.00    +0.000 HD
BRANCH  47  49
ATOM     49  C   UNL     1     -10.496  -9.262  15.835  0.00  0.00    +0.000 C 
ATOM     50  H   UNL     1     -11.226  -8.840  15.135  0.00  0.00    +0.000 HD
ATOM     51  H   UNL     1     -10.744 -10.315  16.013  0.00  0.00    +0.000 HD
BRANCH  49  52
ATOM     52  C   UNL     1      -9.099  -9.183  15.201  0.00  0.00    +0.000 C 
ATOM     53  H   UNL     1      -8.503 -10.074  15.421  0.00  0.00    +0.000 HD
ATOM     54  H   UNL     1      -8.559  -8.312  15.594  0.00  0.00    +0.000 HD
BRANCH  52  55
ATOM     55  O   UNL     1      -9.190  -9.033  13.787  0.00  0.00    +0.000 OA
ATOM     56  H   UNL     1      -8.540  -8.348  13.553  0.00  0.00    +0.000 HD
ENDBRANCH  52  55
ENDBRANCH  49  52
ENDBRANCH  47  49
ENDBRANCH  44  47
ENDBRANCH  41  44
ENDBRANCH  38  41
ENDBRANCH  18  38
BRANCH   1  57
ATOM     57  O   UNL     1      -7.334  -3.657  23.135  0.00  0.00    +0.000 OA
BRANCH  57  58
ATOM     58  C   UNL     1      -8.099  -3.747  24.332  0.00  0.00    +0.000 C 
ATOM     59  H   UNL     1      -7.536  -3.245  25.124  0.00  0.00    +0.000 HD
ATOM     60  H   UNL     1      -8.248  -4.788  24.638  0.00  0.00    +0.000 HD
ATOM     61  H   UNL     1      -9.055  -3.225  24.223  0.00  0.00    +0.000 HD
ENDBRANCH  57  58
ENDBRANCH   1  57
TORSDOF 10
ENDMDL
MODEL 6
REMARK VINA RESULT:    -8.280      2.377      4.774
REMARK INTER + INTRA:         -12.269
REMARK INTER:                 -11.069
REMARK INTRA:                  -1.199
REMARK UNBOUND:                 0.125
REMARK  Name = 
REMARK  10 active torsions:
REMARK  status: ('A' for Active; 'I' for Inactive)
REMARK    1  A    between atoms: C_1  and  O_2
REMARK    2  A    between atoms: O_2  and  C_3
REMARK    3  A    between atoms: N_17  and  C_18
REMARK    4  A    between atoms: N_21  and  C_22
REMARK    5  A    between atoms: C_22  and  C_23
REMARK    6  A    between atoms: C_23  and  C_24
REMARK    7  A    between atoms: C_24  and  N_25
REMARK    8  A    between atoms: N_25  and  C_26
REMARK    9  A    between atoms: C_26  and  C_27
REMARK   10  A    between atoms: C_27  and  O_28
REMARK                            x       y       z     vdW  Elec       q    Type
REMARK                         _______ _______ _______ _____ _____    ______ ____
ROOT
ATOM      1  C   UNL     1      -9.341  -8.375  17.311  0.00  0.00    +0.000 A 
ATOM      2  C   UNL     1      -8.673  -7.999  18.470  0.00  0.00    +0.000 A 
ATOM      3  C   UNL     1      -8.775  -6.690  18.958  0.00  0.00    +0.000 A 
ATOM      4  C   UNL     1      -9.554  -5.742  18.266  0.00  0.00    +0.000 A 
ATOM      5  C   UNL     1      -9.974  -4.433  18.439  0.00  0.00    +0.000 A 
ATOM      6  C   UNL     1      -9.509  -3.623  19.491  0.00  0.00    +0.000 A 
ATOM      7  C   UNL     1     -10.160  -2.395  19.656  0.00  0.00    +0.000 A 
ATOM      8  C   UNL     1     -10.878  -1.771  18.639  0.00  0.00    +0.000 A 
ATOM      9  C   UNL     1     -11.182  -2.550  17.477  0.00  0.00    +0.000 A 
ATOM     10  C   UNL     1     -11.556  -1.870  16.310  0.00  0.00    +0.000 A 
ATOM     11  C   UNL     1     -11.077  -0.567  16.117  0.00  0.00    +0.000 A 
ATOM     12  C   UNL     1     -10.410   0.013  17.197  0.00  0.00    +0.000 A 
ATOM     13  C   UNL     1      -9.031   0.377  17.470  0.00  0.00    +0.000 A 
ATOM     14  C   UNL     1      -8.949   0.680  18.812  0.00  0.00    +0.000 A 
ATOM     15  N   UNL     1     -10.283   0.719  19.201  0.00  0.00    +0.000 N 
ATOM     16  C   UNL     1     -10.836  -0.357  18.486  0.00  0.00    +0.000 A 
ATOM     17  C   UNL     1     -10.801  -3.926  17.456  0.00  0.00    +0.000 A 
ATOM     18  N   UNL     1     -10.848  -4.983  16.558  0.00  0.00    +0.000 N 
ATOM     19  C   UNL     1     -10.186  -6.114  17.072  0.00  0.00    +0.000 A 
ATOM     20  C   UNL     1     -10.084  -7.434  16.588  0.00  0.00    +0.000 A 
ATOM     21  C   UNL     1      -9.643  -1.808  20.853  0.00  0.00    +0.000 C 
ATOM     22  O   UNL     1     -10.109  -0.998  21.654  0.00  0.00    +0.000 OA
ATOM     23  N   UNL     1      -8.462  -2.465  21.040  0.00  0.00    +0.000 N 
ATOM     24  C   UNL     1      -8.355  -3.633  20.328  0.00  0.00    +0.000 C 
ATOM     25  O   UNL     1      -7.341  -4.326  20.360  0.00  0.00    +0.000 OA
ATOM     26  H   UNL     1      -8.073  -8.697  19.044  0.00  0.00    +0.000 HD
ATOM     27  H   UNL     1      -8.273  -6.443  19.889  0.00  0.00    +0.000 HD
ATOM     28  H   UNL     1     -11.933  -2.372  15.437  0.00  0.00    +0.000 HD
ATOM     29  H   UNL     1     -11.005  -0.156  15.120  0.00  0.00    +0.000 HD
ATOM     30  H   UNL     1      -8.187   0.248  16.795  0.00  0.00    +0.000 HD
ATOM     31  H   UNL     1      -8.156   0.983  19.492  0.00  0.00    +0.000 HD
ATOM     32  H   UNL     1     -10.592  -7.746  15.682  0.00  0.00    +0.000 HD
ATOM     33  H   UNL     1      -7.649  -1.873  20.926  0.00  0.00    +0.000 HD
ENDROOT
BRANCH  15  34
ATOM     34  C   UNL     1     -10.918   2.050  19.212  0.00  0.00    +0.000 C 
ATOM     35  H   UNL     1     -10.696   2.531  20.170  0.00  0.00    +0.000 HD
ATOM     36  H   UNL     1     -11.994   1.951  19.052  0.00  0.00    +0.000 HD
ATOM     37  H   UNL     1     -10.483   2.648  18.402  0.00  0.00    +0.000 HD
ENDBRANCH  15  34
BRANCH  18  38
ATOM     38  C   UNL     1     -11.566  -5.010  15.293  0.00  0.00    +0.000 C 
ATOM     39  H   UNL     1     -12.515  -4.485  15.460  0.00  0.00    +0.000 HD
ATOM     40  H   UNL     1     -11.865  -6.057  15.078  0.00  0.00    +0.000 HD
BRANCH  38  41
ATOM     41  C   UNL     1     -10.835  -4.419  14.083  0.00  0.00    +0.000 C 
ATOM     42  H   UNL     1     -10.858  -3.328  14.120  0.00  0.00    +0.000 HD
ATOM     43  H   UNL     1     -11.395  -4.713  13.183  0.00  0.00    +0.000 HD
BRANCH  41  44
ATOM     44  C   UNL     1      -9.376  -4.851  13.912  0.00  0.00    +0.000 C 
ATOM     45  H   UNL     1      -9.301  -5.615  13.130  0.00  0.00    +0.000 HD
ATOM     46  H   UNL     1      -8.994  -5.268  14.850  0.00  0.00    +0.000 HD
BRANCH  44  47
ATOM     47  N   UNL     1      -8.596  -3.660  13.539  0.00  0.00    +0.000 NA
ATOM     48  H   UNL     1      -8.041  -3.891  12.712  0.00  0.00    +0.000 HD
BRANCH  47  49
ATOM     49  C   UNL     1      -9.471  -2.528  13.190  0.00  0.00    +0.000 C 
ATOM     50  H   UNL     1     -10.342  -2.499  13.854  0.00  0.00    +0.000 HD
ATOM     51  H   UNL     1      -9.818  -2.648  12.157  0.00  0.00    +0.000 HD
BRANCH  49  52
ATOM     52  C   UNL     1      -8.713  -1.197  13.308  0.00  0.00    +0.000 C 
ATOM     53  H   UNL     1      -9.398  -0.345  13.361  0.00  0.00    +0.000 HD
ATOM     54  H   UNL     1      -8.068  -1.057  12.432  0.00  0.00    +0.000 HD
BRANCH  52  55
ATOM     55  O   UNL     1      -7.882  -1.187  14.465  0.00  0.00    +0.000 OA
ATOM     56  H   UNL     1      -7.067  -0.728  14.199  0.00  0.00    +0.000 HD
ENDBRANCH  52  55
ENDBRANCH  49  52
ENDBRANCH  47  49
ENDBRANCH  44  47
ENDBRANCH  41  44
ENDBRANCH  38  41
ENDBRANCH  18  38
BRANCH   1  57
ATOM     57  O   UNL     1      -9.350  -9.636  16.772  0.00  0.00    +0.000 OA
BRANCH  57  58
ATOM     58  C   UNL     1      -9.083 -10.717  17.659  0.00  0.00    +0.000 C 
ATOM     59  H   UNL     1      -8.311 -10.389  18.360  0.00  0.00    +0.000 HD
ATOM     60  H   UNL     1      -8.696 -11.592  17.124  0.00  0.00    +0.000 HD
ATOM     61  H   UNL     1      -9.974 -10.972  18.241  0.00  0.00    +0.000 HD
ENDBRANCH  57  58
ENDBRANCH   1  57
TORSDOF 10
ENDMDL
MODEL 7
REMARK VINA RESULT:    -8.174      2.851      4.525
REMARK INTER + INTRA:         -12.111
REMARK INTER:                 -11.430
REMARK INTRA:                  -0.680
REMARK UNBOUND:                 0.125
REMARK  Name = 
REMARK  10 active torsions:
REMARK  status: ('A' for Active; 'I' for Inactive)
REMARK    1  A    between atoms: C_1  and  O_2
REMARK    2  A    between atoms: O_2  and  C_3
REMARK    3  A    between atoms: N_17  and  C_18
REMARK    4  A    between atoms: N_21  and  C_22
REMARK    5  A    between atoms: C_22  and  C_23
REMARK    6  A    between atoms: C_23  and  C_24
REMARK    7  A    between atoms: C_24  and  N_25
REMARK    8  A    between atoms: N_25  and  C_26
REMARK    9  A    between atoms: C_26  and  C_27
REMARK   10  A    between atoms: C_27  and  O_28
REMARK                            x       y       z     vdW  Elec       q    Type
REMARK                         _______ _______ _______ _____ _____    ______ ____
ROOT
ATOM      1  C   UNL     1      -9.042  -8.266  18.070  0.00  0.00    +0.000 A 
ATOM      2  C   UNL     1      -8.347  -7.758  19.161  0.00  0.00    +0.000 A 
ATOM      3  C   UNL     1      -8.478  -6.411  19.522  0.00  0.00    +0.000 A 
ATOM      4  C   UNL     1      -9.313  -5.561  18.772  0.00  0.00    +0.000 A 
ATOM      5  C   UNL     1      -9.772  -4.255  18.833  0.00  0.00    +0.000 A 
ATOM      6  C   UNL     1      -9.299  -3.331  19.782  0.00  0.00    +0.000 A 
ATOM      7  C   UNL     1      -9.987  -2.113  19.852  0.00  0.00    +0.000 A 
ATOM      8  C   UNL     1     -10.761  -1.615  18.806  0.00  0.00    +0.000 A 
ATOM      9  C   UNL     1     -11.078  -2.514  17.739  0.00  0.00    +0.000 A 
ATOM     10  C   UNL     1     -11.516  -1.964  16.526  0.00  0.00    +0.000 A 
ATOM     11  C   UNL     1     -11.090  -0.673  16.190  0.00  0.00    +0.000 A 
ATOM     12  C   UNL     1     -10.406   0.032  17.181  0.00  0.00    +0.000 A 
ATOM     13  C   UNL     1      -9.032   0.463  17.364  0.00  0.00    +0.000 A 
ATOM     14  C   UNL     1      -8.913   0.900  18.667  0.00  0.00    +0.000 A 
ATOM     15  N   UNL     1     -10.234   0.935  19.100  0.00  0.00    +0.000 N 
ATOM     16  C   UNL     1     -10.774  -0.223  18.516  0.00  0.00    +0.000 A 
ATOM     17  C   UNL     1     -10.650  -3.873  17.837  0.00  0.00    +0.000 A 
ATOM     18  N   UNL     1     -10.691  -5.015  17.049  0.00  0.00    +0.000 N 
ATOM     19  C   UNL     1      -9.973  -6.068  17.645  0.00  0.00    +0.000 A 
ATOM     20  C   UNL     1      -9.842  -7.425  17.288  0.00  0.00    +0.000 A 
ATOM     21  C   UNL     1      -9.449  -1.396  20.965  0.00  0.00    +0.000 C 
ATOM     22  O   UNL     1      -9.914  -0.525  21.701  0.00  0.00    +0.000 OA
ATOM     23  N   UNL     1      -8.239  -1.994  21.170  0.00  0.00    +0.000 N 
ATOM     24  C   UNL     1      -8.117  -3.222  20.572  0.00  0.00    +0.000 C 
ATOM     25  O   UNL     1      -7.079  -3.876  20.632  0.00  0.00    +0.000 OA
ATOM     26  H   UNL     1      -7.703  -8.377  19.777  0.00  0.00    +0.000 HD
ATOM     27  H   UNL     1      -7.953  -6.058  20.405  0.00  0.00    +0.000 HD
ATOM     28  H   UNL     1     -11.906  -2.561  15.721  0.00  0.00    +0.000 HD
ATOM     29  H   UNL     1     -11.067  -0.360  15.154  0.00  0.00    +0.000 HD
ATOM     30  H   UNL     1      -8.208   0.295  16.674  0.00  0.00    +0.000 HD
ATOM     31  H   UNL     1      -8.109   1.293  19.283  0.00  0.00    +0.000 HD
ATOM     32  H   UNL     1     -10.370  -7.841  16.436  0.00  0.00    +0.000 HD
ATOM     33  H   UNL     1      -7.453  -1.391  20.967  0.00  0.00    +0.000 HD
ENDROOT
BRANCH  15  34
ATOM     34  C   UNL     1     -10.914   2.241  19.006  0.00  0.00    +0.000 C 
ATOM     35  H   UNL     1     -10.156   3.029  19.051  0.00  0.00    +0.000 HD
ATOM     36  H   UNL     1     -11.645   2.339  19.812  0.00  0.00    +0.000 HD
ATOM     37  H   UNL     1     -11.429   2.293  18.039  0.00  0.00    +0.000 HD
ENDBRANCH  15  34
BRANCH  18  38
ATOM     38  C   UNL     1     -11.452  -5.189  15.821  0.00  0.00    +0.000 C 
ATOM     39  H   UNL     1     -12.389  -4.632  15.951  0.00  0.00    +0.000 HD
ATOM     40  H   UNL     1     -11.770  -6.249  15.749  0.00  0.00    +0.000 HD
BRANCH  38  41
ATOM     41  C   UNL     1     -10.756  -4.765  14.523  0.00  0.00    +0.000 C 
ATOM     42  H   UNL     1     -10.356  -5.639  14.004  0.00  0.00    +0.000 HD
ATOM     43  H   UNL     1      -9.893  -4.142  14.799  0.00  0.00    +0.000 HD
BRANCH  41  44
ATOM     44  C   UNL     1     -11.623  -3.987  13.529  0.00  0.00    +0.000 C 
ATOM     45  H   UNL     1     -11.469  -2.910  13.662  0.00  0.00    +0.000 HD
ATOM     46  H   UNL     1     -12.682  -4.215  13.693  0.00  0.00    +0.000 HD
BRANCH  44  47
ATOM     47  N   UNL     1     -11.226  -4.395  12.172  0.00  0.00    +0.000 NA
ATOM     48  H   UNL     1     -11.504  -5.370  12.040  0.00  0.00    +0.000 HD
BRANCH  47  49
ATOM     49  C   UNL     1     -11.909  -3.592  11.144  0.00  0.00    +0.000 C 
ATOM     50  H   UNL     1     -11.441  -2.605  11.056  0.00  0.00    +0.000 HD
ATOM     51  H   UNL     1     -12.959  -3.461  11.430  0.00  0.00    +0.000 HD
BRANCH  49  52
ATOM     52  C   UNL     1     -11.851  -4.291   9.778  0.00  0.00    +0.000 C 
ATOM     53  H   UNL     1     -11.287  -3.705   9.046  0.00  0.00    +0.000 HD
ATOM     54  H   UNL     1     -12.867  -4.430   9.386  0.00  0.00    +0.000 HD
BRANCH  52  55
ATOM     55  O   UNL     1     -11.251  -5.578   9.891  0.00  0.00    +0.000 OA
ATOM     56  H   UNL     1     -10.617  -5.639   9.157  0.00  0.00    +0.000 HD
ENDBRANCH  52  55
ENDBRANCH  49  52
ENDBRANCH  47  49
ENDBRANCH  44  47
ENDBRANCH  41  44
ENDBRANCH  38  41
ENDBRANCH  18  38
BRANCH   1  57
ATOM     57  O   UNL     1      -9.026  -9.575  17.657  0.00  0.00    +0.000 OA
BRANCH  57  58
ATOM     58  C   UNL     1     -10.004  -9.960  16.698  0.00  0.00    +0.000 C 
ATOM     59  H   UNL     1     -10.905  -9.371  16.888  0.00  0.00    +0.000 HD
ATOM     60  H   UNL     1     -10.270 -11.018  16.797  0.00  0.00    +0.000 HD
ATOM     61  H   UNL     1      -9.666  -9.731  15.683  0.00  0.00    +0.000 HD
ENDBRANCH  57  58
ENDBRANCH   1  57
TORSDOF 10
ENDMDL
MODEL 8
REMARK VINA RESULT:    -7.939      3.106      8.692
REMARK INTER + INTRA:         -11.759
REMARK INTER:                 -10.743
REMARK INTRA:                  -1.015
REMARK UNBOUND:                 0.125
REMARK  Name = 
REMARK  10 active torsions:
REMARK  status: ('A' for Active; 'I' for Inactive)
REMARK    1  A    between atoms: C_1  and  O_2
REMARK    2  A    between atoms: O_2  and  C_3
REMARK    3  A    between atoms: N_17  and  C_18
REMARK    4  A    between atoms: N_21  and  C_22
REMARK    5  A    between atoms: C_22  and  C_23
REMARK    6  A    between atoms: C_23  and  C_24
REMARK    7  A    between atoms: C_24  and  N_25
REMARK    8  A    between atoms: N_25  and  C_26
REMARK    9  A    between atoms: C_26  and  C_27
REMARK   10  A    between atoms: C_27  and  O_28
REMARK                            x       y       z     vdW  Elec       q    Type
REMARK                         _______ _______ _______ _____ _____    ______ ____
ROOT
ATOM      1  C   UNL     1     -10.625   1.099  19.544  0.00  0.00    +0.000 A 
ATOM      2  C   UNL     1     -11.366   0.684  18.444  0.00  0.00    +0.000 A 
ATOM      3  C   UNL     1     -11.340  -0.655  18.033  0.00  0.00    +0.000 A 
ATOM      4  C   UNL     1     -10.552  -1.588  18.734  0.00  0.00    +0.000 A 
ATOM      5  C   UNL     1     -10.320  -2.955  18.719  0.00  0.00    +0.000 A 
ATOM      6  C   UNL     1     -10.851  -3.801  17.729  0.00  0.00    +0.000 A 
ATOM      7  C   UNL     1     -10.698  -5.175  17.946  0.00  0.00    +0.000 A 
ATOM      8  C   UNL     1      -9.723  -5.709  18.787  0.00  0.00    +0.000 A 
ATOM      9  C   UNL     1      -9.044  -4.803  19.661  0.00  0.00    +0.000 A 
ATOM     10  C   UNL     1      -7.833  -5.222  20.230  0.00  0.00    +0.000 A 
ATOM     11  C   UNL     1      -7.061  -6.160  19.532  0.00  0.00    +0.000 A 
ATOM     12  C   UNL     1      -7.655  -6.737  18.408  0.00  0.00    +0.000 A 
ATOM     13  C   UNL     1      -7.435  -6.643  16.975  0.00  0.00    +0.000 A 
ATOM     14  C   UNL     1      -8.507  -7.254  16.359  0.00  0.00    +0.000 A 
ATOM     15  N   UNL     1      -9.159  -7.872  17.420  0.00  0.00    +0.000 N 
ATOM     16  C   UNL     1      -9.051  -6.914  18.441  0.00  0.00    +0.000 A 
ATOM     17  C   UNL     1      -9.446  -3.433  19.676  0.00  0.00    +0.000 A 
ATOM     18  N   UNL     1      -9.046  -2.258  20.299  0.00  0.00    +0.000 N 
ATOM     19  C   UNL     1      -9.771  -1.154  19.812  0.00  0.00    +0.000 A 
ATOM     20  C   UNL     1      -9.803   0.193  20.224  0.00  0.00    +0.000 A 
ATOM     21  C   UNL     1     -11.429  -5.843  16.916  0.00  0.00    +0.000 C 
ATOM     22  O   UNL     1     -11.958  -6.954  16.852  0.00  0.00    +0.000 OA
ATOM     23  N   UNL     1     -11.560  -4.886  15.952  0.00  0.00    +0.000 N 
ATOM     24  C   UNL     1     -11.331  -3.609  16.400  0.00  0.00    +0.000 C 
ATOM     25  O   UNL     1     -11.376  -2.638  15.650  0.00  0.00    +0.000 OA
ATOM     26  H   UNL     1     -11.997   1.364  17.881  0.00  0.00    +0.000 HD
ATOM     27  H   UNL     1     -11.964  -0.952  17.195  0.00  0.00    +0.000 HD
ATOM     28  H   UNL     1      -7.327  -4.669  21.000  0.00  0.00    +0.000 HD
ATOM     29  H   UNL     1      -5.996  -6.226  19.707  0.00  0.00    +0.000 HD
ATOM     30  H   UNL     1      -6.677  -6.040  16.479  0.00  0.00    +0.000 HD
ATOM     31  H   UNL     1      -8.815  -7.428  15.331  0.00  0.00    +0.000 HD
ATOM     32  H   UNL     1      -9.227   0.539  21.076  0.00  0.00    +0.000 HD
ATOM     33  H   UNL     1     -11.043  -5.092  15.107  0.00  0.00    +0.000 HD
ENDROOT
BRANCH  15  34
ATOM     34  C   UNL     1      -8.825  -9.291  17.649  0.00  0.00    +0.000 C 
ATOM     35  H   UNL     1      -9.431  -9.658  18.484  0.00  0.00    +0.000 HD
ATOM     36  H   UNL     1      -7.757  -9.393  17.852  0.00  0.00    +0.000 HD
ATOM     37  H   UNL     1      -9.080  -9.857  16.745  0.00  0.00    +0.000 HD
ENDBRANCH  15  34
BRANCH  18  38
ATOM     38  C   UNL     1      -8.093  -2.143  21.392  0.00  0.00    +0.000 C 
ATOM     39  H   UNL     1      -7.808  -1.084  21.449  0.00  0.00    +0.000 HD
ATOM     40  H   UNL     1      -7.157  -2.664  21.102  0.00  0.00    +0.000 HD
BRANCH  38  41
ATOM     41  C   UNL     1      -8.563  -2.643  22.762  0.00  0.00    +0.000 C 
ATOM     42  H   UNL     1      -7.845  -3.354  23.175  0.00  0.00    +0.000 HD
ATOM     43  H   UNL     1      -9.500  -3.197  22.607  0.00  0.00    +0.000 HD
BRANCH  41  44
ATOM     44  C   UNL     1      -8.806  -1.559  23.816  0.00  0.00    +0.000 C 
ATOM     45  H   UNL     1      -8.117  -0.722  23.657  0.00  0.00    +0.000 HD
ATOM     46  H   UNL     1      -8.644  -1.965  24.819  0.00  0.00    +0.000 HD
BRANCH  44  47
ATOM     47  N   UNL     1     -10.200  -1.104  23.679  0.00  0.00    +0.000 NA
ATOM     48  H   UNL     1     -10.259  -0.508  22.851  0.00  0.00    +0.000 HD
BRANCH  47  49
ATOM     49  C   UNL     1     -11.121  -2.236  23.483  0.00  0.00    +0.000 C 
ATOM     50  H   UNL     1     -10.681  -2.975  22.805  0.00  0.00    +0.000 HD
ATOM     51  H   UNL     1     -12.056  -1.867  23.046  0.00  0.00    +0.000 HD
BRANCH  49  52
ATOM     52  C   UNL     1     -11.436  -2.920  24.823  0.00  0.00    +0.000 C 
ATOM     53  H   UNL     1     -11.648  -2.190  25.610  0.00  0.00    +0.000 HD
ATOM     54  H   UNL     1     -10.578  -3.523  25.145  0.00  0.00    +0.000 HD
BRANCH  52  55
ATOM     55  O   UNL     1     -12.555  -3.793  24.697  0.00  0.00    +0.000 OA
ATOM     56  H   UNL     1     -12.964  -3.575  23.841  0.00  0.00    +0.000 HD
ENDBRANCH  52  55
ENDBRANCH  49  52
ENDBRANCH  47  49
ENDBRANCH  44  47
ENDBRANCH  41  44
ENDBRANCH  38  41
ENDBRANCH  18  38
BRANCH   1  57
ATOM     57  O   UNL     1     -10.613   2.370  20.060  0.00  0.00    +0.000 OA
BRANCH  57  58
ATOM     58  C   UNL     1     -11.876   2.956  20.358  0.00  0.00    +0.000 C 
ATOM     59  H   UNL     1     -12.495   2.188  20.829  0.00  0.00    +0.000 HD
ATOM     60  H   UNL     1     -12.391   3.288  19.450  0.00  0.00    +0.000 HD
ATOM     61  H   UNL     1     -11.765   3.777  21.073  0.00  0.00    +0.000 HD
ENDBRANCH  57  58
ENDBRANCH   1  57
TORSDOF 10
ENDMDL
MODEL 9
REMARK VINA RESULT:    -7.702      5.119      7.930
REMARK INTER + INTRA:         -11.404
REMARK INTER:                 -10.337
REMARK INTRA:                  -1.067
REMARK UNBOUND:                 0.125
REMARK  Name = 
REMARK  10 active torsions:
REMARK  status: ('A' for Active; 'I' for Inactive)
REMARK    1  A    between atoms: C_1  and  O_2
REMARK    2  A    between atoms: O_2  and  C_3
REMARK    3  A    between atoms: N_17  and  C_18
REMARK    4  A    between atoms: N_21  and  C_22
REMARK    5  A    between atoms: C_22  and  C_23
REMARK    6  A    between atoms: C_23  and  C_24
REMARK    7  A    between atoms: C_24  and  N_25
REMARK    8  A    between atoms: N_25  and  C_26
REMARK    9  A    between atoms: C_26  and  C_27
REMARK   10  A    between atoms: C_27  and  O_28
REMARK                            x       y       z     vdW  Elec       q    Type
REMARK                         _______ _______ _______ _____ _____    ______ ____
ROOT
ATOM      1  C   UNL     1      -7.560  -2.988  21.914  0.00  0.00    +0.000 A 
ATOM      2  C   UNL     1      -7.377  -2.191  23.038  0.00  0.00    +0.000 A 
ATOM      3  C   UNL     1      -8.174  -1.058  23.244  0.00  0.00    +0.000 A 
ATOM      4  C   UNL     1      -9.165  -0.717  22.303  0.00  0.00    +0.000 A 
ATOM      5  C   UNL     1     -10.178   0.220  22.171  0.00  0.00    +0.000 A 
ATOM      6  C   UNL     1     -10.355   1.276  23.083  0.00  0.00    +0.000 A 
ATOM      7  C   UNL     1     -11.527   2.027  22.936  0.00  0.00    +0.000 A 
ATOM      8  C   UNL     1     -12.252   2.081  21.747  0.00  0.00    +0.000 A 
ATOM      9  C   UNL     1     -11.931   1.118  20.739  0.00  0.00    +0.000 A 
ATOM     10  C   UNL     1     -12.359   1.372  19.428  0.00  0.00    +0.000 A 
ATOM     11  C   UNL     1     -12.527   2.705  19.031  0.00  0.00    +0.000 A 
ATOM     12  C   UNL     1     -12.426   3.668  20.036  0.00  0.00    +0.000 A 
ATOM     13  C   UNL     1     -11.460   4.700  20.369  0.00  0.00    +0.000 A 
ATOM     14  C   UNL     1     -11.781   5.166  21.627  0.00  0.00    +0.000 A 
ATOM     15  N   UNL     1     -13.021   4.583  21.863  0.00  0.00    +0.000 N 
ATOM     16  C   UNL     1     -12.857   3.297  21.324  0.00  0.00    +0.000 A 
ATOM     17  C   UNL     1     -10.948   0.123  21.028  0.00  0.00    +0.000 A 
ATOM     18  N   UNL     1     -10.322  -0.918  20.357  0.00  0.00    +0.000 N 
ATOM     19  C   UNL     1      -9.313  -1.497  21.149  0.00  0.00    +0.000 A 
ATOM     20  C   UNL     1      -8.512  -2.639  20.948  0.00  0.00    +0.000 A 
ATOM     21  C   UNL     1     -11.581   2.935  24.038  0.00  0.00    +0.000 C 
ATOM     22  O   UNL     1     -12.513   3.497  24.613  0.00  0.00    +0.000 OA
ATOM     23  N   UNL     1     -10.287   2.981  24.470  0.00  0.00    +0.000 N 
ATOM     24  C   UNL     1      -9.511   1.944  24.018  0.00  0.00    +0.000 C 
ATOM     25  O   UNL     1      -8.316   1.858  24.288  0.00  0.00    +0.000 OA
ATOM     26  H   UNL     1      -6.636  -2.421  23.796  0.00  0.00    +0.000 HD
ATOM     27  H   UNL     1      -8.031  -0.482  24.154  0.00  0.00    +0.000 HD
ATOM     28  H   UNL     1     -12.285   0.647  18.638  0.00  0.00    +0.000 HD
ATOM     29  H   UNL     1     -12.474   2.972  17.984  0.00  0.00    +0.000 HD
ATOM     30  H   UNL     1     -10.547   4.927  19.822  0.00  0.00    +0.000 HD
ATOM     31  H   UNL     1     -11.368   5.904  22.309  0.00  0.00    +0.000 HD
ATOM     32  H   UNL     1      -8.634  -3.271  20.075  0.00  0.00    +0.000 HD
ATOM     33  H   UNL     1      -9.846   3.880  24.323  0.00  0.00    +0.000 HD
ENDROOT
BRANCH  15  34
ATOM     34  C   UNL     1     -14.199   5.412  21.547  0.00  0.00    +0.000 C 
ATOM     35  H   UNL     1     -14.591   5.827  22.481  0.00  0.00    +0.000 HD
ATOM     36  H   UNL     1     -14.949   4.811  21.028  0.00  0.00    +0.000 HD
ATOM     37  H   UNL     1     -13.879   6.235  20.896  0.00  0.00    +0.000 HD
ENDBRANCH  15  34
BRANCH  18  38
ATOM     38  C   UNL     1     -10.694  -1.454  19.057  0.00  0.00    +0.000 C 
ATOM     39  H   UNL     1      -9.764  -1.556  18.483  0.00  0.00    +0.000 HD
ATOM     40  H   UNL     1     -11.273  -0.683  18.508  0.00  0.00    +0.000 HD
BRANCH  38  41
ATOM     41  C   UNL     1     -11.466  -2.778  19.061  0.00  0.00    +0.000 C 
ATOM     42  H   UNL     1     -12.502  -2.615  18.756  0.00  0.00    +0.000 HD
ATOM     43  H   UNL     1     -11.499  -3.138  20.100  0.00  0.00    +0.000 HD
BRANCH  41  44
ATOM     44  C   UNL     1     -10.887  -3.886  18.178  0.00  0.00    +0.000 C 
ATOM     45  H   UNL     1      -9.797  -3.788  18.121  0.00  0.00    +0.000 HD
ATOM     46  H   UNL     1     -11.300  -3.818  17.166  0.00  0.00    +0.000 HD
BRANCH  44  47
ATOM     47  N   UNL     1     -11.252  -5.178  18.782  0.00  0.00    +0.000 NA
ATOM     48  H   UNL     1     -12.136  -5.482  18.371  0.00  0.00    +0.000 HD
BRANCH  47  49
ATOM     49  C   UNL     1     -10.244  -6.213  18.494  0.00  0.00    +0.000 C 
ATOM     50  H   UNL     1     -10.243  -6.460  17.427  0.00  0.00    +0.000 HD
ATOM     51  H   UNL     1     -10.486  -7.117  19.066  0.00  0.00    +0.000 HD
BRANCH  49  52
ATOM     52  C   UNL     1      -8.841  -5.733  18.894  0.00  0.00    +0.000 C 
ATOM     53  H   UNL     1      -8.736  -4.650  18.784  0.00  0.00    +0.000 HD
ATOM     54  H   UNL     1      -8.087  -6.211  18.255  0.00  0.00    +0.000 HD
BRANCH  52  55
ATOM     55  O   UNL     1      -8.549  -6.085  20.244  0.00  0.00    +0.000 OA
ATOM     56  H   UNL     1      -8.061  -6.924  20.198  0.00  0.00    +0.000 HD
ENDBRANCH  52  55
ENDBRANCH  49  52
ENDBRANCH  47  49
ENDBRANCH  44  47
ENDBRANCH  41  44
ENDBRANCH  38  41
ENDBRANCH  18  38
BRANCH   1  57
ATOM     57  O   UNL     1      -6.872  -4.142  21.638  0.00  0.00    +0.000 OA
BRANCH  57  58
ATOM     58  C   UNL     1      -5.493  -4.007  21.310  0.00  0.00    +0.000 C 
ATOM     59  H   UNL     1      -5.350  -4.408  20.303  0.00  0.00    +0.000 HD
ATOM     60  H   UNL     1      -4.859  -4.584  21.992  0.00  0.00    +0.000 HD
ATOM     61  H   UNL     1      -5.199  -2.953  21.293  0.00  0.00    +0.000 HD
ENDBRANCH  57  58
ENDBRANCH   1  57
TORSDOF 10
ENDMDL
