
 OpenBabel01112422343D

 50 55  0  0  0  0  0  0  0  0999 V2000
    1.0682   -0.5407   -0.3731 C   0  0  0  0  0  0  0  0  0  0  0  0
    2.4224   -0.1738   -0.1129 O   0  0  0  0  0  0  0  0  0  0  0  0
    2.9714   -0.7823    0.9873 C   0  0  0  0  0  0  0  0  0  0  0  0
    2.5897   -2.0342    1.4476 C   0  0  0  0  0  0  0  0  0  0  0  0
    3.1707   -2.5714    2.5998 C   0  0  0  0  0  0  0  0  0  0  0  0
    4.1249   -1.8253    3.3248 C   0  0  0  0  0  0  0  0  0  0  0  0
    4.7890   -1.9286    4.5384 C   0  0  0  0  0  0  0  0  0  0  0  0
    4.7048   -3.0442    5.4009 C   0  0  0  0  0  0  0  0  0  0  0  0
    5.1180   -2.8405    6.7299 C   0  0  0  0  0  0  0  0  0  0  0  0
    6.0587   -1.8814    7.1022 C   0  0  0  0  0  0  0  0  0  0  0  0
    6.3551   -0.9028    6.0750 C   0  0  0  0  0  0  0  0  0  0  0  0
    7.5628   -0.2185    6.1417 C   0  0  0  0  0  0  0  0  0  0  0  0
    8.6098   -0.8024    6.8465 C   0  0  0  0  0  0  0  0  0  0  0  0
    8.3720   -2.0438    7.4560 C   0  0  0  0  0  0  0  0  0  0  0  0
    8.4192   -3.4415    6.9756 C   0  0  0  0  0  0  0  0  0  0  0  0
    7.8131   -4.2113    7.9640 C   0  0  0  0  0  0  0  0  0  0  0  0
    7.4677   -3.2451    8.9098 N   0  0  0  0  0  0  0  0  0  0  0  0
    8.4317   -3.1077   10.0294 C   0  0  0  0  0  0  0  0  0  0  0  0
    7.0975   -2.1572    8.0673 C   0  0  0  0  0  0  0  0  0  0  0  0
    5.5900   -0.8614    4.8706 C   0  0  0  0  0  0  0  0  0  0  0  0
    5.5504   -0.0840    3.6991 N   0  0  0  0  0  0  0  0  0  0  0  0
    6.3073    1.1477    3.5001 C   0  0  0  0  0  0  0  0  0  0  0  0
    7.6953    1.0643    2.8558 C   0  0  0  0  0  0  0  0  0  0  0  0
    8.2806    2.3693    2.7769 O   0  0  0  0  0  0  0  0  0  0  0  0
    4.5588   -0.5808    2.8248 C   0  0  0  0  0  0  0  0  0  0  0  0
    3.9961   -0.0695    1.6283 C   0  0  0  0  0  0  0  0  0  0  0  0
    4.6910   -4.0178    7.4415 C   0  0  0  0  0  0  0  0  0  0  0  0
    4.1271   -4.1689    8.4893 O   0  0  0  0  0  0  0  0  0  0  0  0
    4.7929   -4.9879    6.4583 N   0  0  0  0  0  0  0  0  0  0  0  0
    4.4865   -4.4476    5.2229 C   0  0  0  0  0  0  0  0  0  0  0  0
    4.2596   -5.1434    4.2416 O   0  0  0  0  0  0  0  0  0  0  0  0
    0.7087    0.0712   -1.2061 H   0  0  0  0  0  0  0  0  0  0  0  0
    0.4319   -0.3379    0.4952 H   0  0  0  0  0  0  0  0  0  0  0  0
    0.9877   -1.5864   -0.6800 H   0  0  0  0  0  0  0  0  0  0  0  0
    1.8431   -2.6195    0.9255 H   0  0  0  0  0  0  0  0  0  0  0  0
    2.8335   -3.5431    2.9493 H   0  0  0  0  0  0  0  0  0  0  0  0
    7.8021    0.6469    5.5472 H   0  0  0  0  0  0  0  0  0  0  0  0
    9.5767   -0.3250    6.9108 H   0  0  0  0  0  0  0  0  0  0  0  0
    8.7194   -3.7911    5.9985 H   0  0  0  0  0  0  0  0  0  0  0  0
    7.6110   -5.2607    8.1427 H   0  0  0  0  0  0  0  0  0  0  0  0
    8.3774   -4.0113   10.6409 H   0  0  0  0  0  0  0  0  0  0  0  0
    8.2229   -2.2054   10.6040 H   0  0  0  0  0  0  0  0  0  0  0  0
    9.4493   -3.0440    9.6091 H   0  0  0  0  0  0  0  0  0  0  0  0
    6.4102    1.6302    4.4765 H   0  0  0  0  0  0  0  0  0  0  0  0
    5.6977    1.8293    2.8946 H   0  0  0  0  0  0  0  0  0  0  0  0
    7.6589    0.6544    1.8400 H   0  0  0  0  0  0  0  0  0  0  0  0
    8.3873    0.4558    3.4496 H   0  0  0  0  0  0  0  0  0  0  0  0
    7.9615    2.7934    1.9605 H   0  0  0  0  0  0  0  0  0  0  0  0
    4.2932    0.8822    1.2020 H   0  0  0  0  0  0  0  0  0  0  0  0
    5.7681   -5.2620    6.4025 H   0  0  0  0  0  0  0  0  0  0  0  0
  1  2  1  0  0  0  0
  1 32  1  0  0  0  0
  1 33  1  0  0  0  0
  1 34  1  0  0  0  0
  2  3  1  0  0  0  0
  3  4  1  0  0  0  0
  3 26  2  0  0  0  0
  4  5  2  0  0  0  0
  4 35  1  0  0  0  0
  5  6  1  0  0  0  0
  5 36  1  0  0  0  0
  6  7  1  0  0  0  0
  6 25  2  0  0  0  0
  7  8  1  0  0  0  0
  7 20  2  0  0  0  0
  8  9  2  0  0  0  0
  8 30  1  0  0  0  0
  9 10  1  0  0  0  0
  9 27  1  0  0  0  0
 10 11  1  0  0  0  0
 10 19  2  0  0  0  0
 11 12  2  0  0  0  0
 11 20  1  0  0  0  0
 12 13  1  0  0  0  0
 12 37  1  0  0  0  0
 13 14  2  0  0  0  0
 13 38  1  0  0  0  0
 14 15  1  0  0  0  0
 14 19  1  0  0  0  0
 15 16  2  0  0  0  0
 15 39  1  0  0  0  0
 16 17  1  0  0  0  0
 16 40  1  0  0  0  0
 17 18  1  0  0  0  0
 17 19  1  0  0  0  0
 18 41  1  0  0  0  0
 18 42  1  0  0  0  0
 18 43  1  0  0  0  0
 20 21  1  0  0  0  0
 21 22  1  0  0  0  0
 21 25  1  0  0  0  0
 22 23  1  0  0  0  0
 22 44  1  0  0  0  0
 22 45  1  0  0  0  0
 23 24  1  0  0  0  0
 23 46  1  0  0  0  0
 23 47  1  0  0  0  0
 24 48  1  0  0  0  0
 25 26  1  0  0  0  0
 26 49  1  0  0  0  0
 27 28  2  0  0  0  0
 27 29  1  0  0  0  0
 29 30  1  0  0  0  0
 29 50  1  0  0  0  0
 30 31  2  0  0  0  0
M  END
$$$$
