MODEL 1
REMARK VINA RESULT:    -7.462      0.000      0.000
REMARK INTER + INTRA:         -10.407
REMARK INTER:                  -9.644
REMARK INTRA:                  -0.763
REMARK UNBOUND:                -0.763
REMARK  Name = 
REMARK  7 active torsions:
REMARK  status: ('A' for Active; 'I' for Inactive)
REMARK    1  A    between atoms: C_1  and  O_2
REMARK    2  A    between atoms: O_2  and  C_3
REMARK    3  A    between atoms: C_4  and  N_5
REMARK    4  A    between atoms: N_5  and  C_6
REMARK    5  A    between atoms: N_5  and  S_7
REMARK    6  A    between atoms: S_7  and  C_8
REMARK    7  A    between atoms: C_14  and  C_15
REMARK                            x       y       z     vdW  Elec       q    Type
REMARK                         _______ _______ _______ _____ _____    ______ ____
ROOT
ATOM      1  C   UNL     1     -10.846   3.840  24.305  0.00  0.00    +0.000 C 
ATOM      2  C   UNL     1     -10.267   3.657  25.728  0.00  0.00    +0.000 C 
ATOM      3  C   UNL     1      -9.847   2.222  25.996  0.00  0.00    +0.000 C 
ATOM      4  C   UNL     1      -8.894   1.762  24.891  0.00  0.00    +0.000 C 
ATOM      5  O   UNL     1      -8.629   2.769  23.909  0.00  0.00    +0.000 OA
ATOM      6  C   UNL     1      -9.769   3.382  23.251  0.00  0.00    +0.000 C 
ATOM      7  N   UNL     1     -10.293   2.481  22.226  0.00  0.00    +0.000 N 
ATOM      8  C   UNL     1     -11.211   2.704  21.179  0.00  0.00    +0.000 A 
ATOM      9  C   UNL     1     -11.507   3.800  20.351  0.00  0.00    +0.000 A 
ATOM     10  C   UNL     1     -12.698   3.781  19.615  0.00  0.00    +0.000 A 
ATOM     11  C   UNL     1     -13.614   2.746  19.752  0.00  0.00    +0.000 A 
ATOM     12  C   UNL     1     -13.223   1.556  20.360  0.00  0.00    +0.000 A 
ATOM     13  C   UNL     1     -11.929   1.473  20.901  0.00  0.00    +0.000 A 
ATOM     14  C   UNL     1     -11.043   0.467  21.282  0.00  0.00    +0.000 A 
ATOM     15  C   UNL     1     -10.786  -0.739  20.628  0.00  0.00    +0.000 A 
ATOM     16  C   UNL     1      -9.704  -1.484  21.162  0.00  0.00    +0.000 A 
ATOM     17  C   UNL     1      -9.178  -0.928  22.351  0.00  0.00    +0.000 A 
ATOM     18  C   UNL     1      -8.745  -1.639  23.499  0.00  0.00    +0.000 A 
ATOM     19  C   UNL     1      -8.217  -2.916  23.761  0.00  0.00    +0.000 A 
ATOM     20  C   UNL     1      -8.203  -3.405  25.072  0.00  0.00    +0.000 A 
ATOM     21  C   UNL     1      -8.777  -2.679  26.112  0.00  0.00    +0.000 A 
ATOM     22  C   UNL     1      -9.179  -1.355  25.923  0.00  0.00    +0.000 A 
ATOM     23  C   UNL     1      -9.044  -0.793  24.643  0.00  0.00    +0.000 A 
ATOM     24  N   UNL     1      -9.223   0.531  24.225  0.00  0.00    +0.000 N 
ATOM     25  C   UNL     1      -9.422   0.317  22.906  0.00  0.00    +0.000 A 
ATOM     26  C   UNL     1     -10.215   1.142  22.165  0.00  0.00    +0.000 A 
ATOM     27  C   UNL     1      -9.398  -2.540  20.267  0.00  0.00    +0.000 C 
ATOM     28  O   UNL     1      -8.545  -3.422  20.266  0.00  0.00    +0.000 OA
ATOM     29  N   UNL     1     -10.305  -2.354  19.216  0.00  0.00    +0.000 N 
ATOM     30  C   UNL     1     -11.179  -1.192  19.306  0.00  0.00    +0.000 C 
ATOM     31  H   UNL     1     -10.954   4.925  24.176  0.00  0.00    +0.000 HD
ATOM     32  H   UNL     1      -9.331   4.237  25.720  0.00  0.00    +0.000 HD
ATOM     33  H   UNL     1      -9.316   2.155  26.953  0.00  0.00    +0.000 HD
ATOM     34  H   UNL     1     -10.689   1.536  26.114  0.00  0.00    +0.000 HD
ATOM     35  H   UNL     1      -7.921   1.561  25.360  0.00  0.00    +0.000 HD
ATOM     36  H   UNL     1     -10.816   4.619  20.233  0.00  0.00    +0.000 HD
ATOM     37  H   UNL     1     -12.926   4.614  18.956  0.00  0.00    +0.000 HD
ATOM     38  H   UNL     1     -14.609   2.838  19.326  0.00  0.00    +0.000 HD
ATOM     39  H   UNL     1     -13.918   0.724  20.442  0.00  0.00    +0.000 HD
ATOM     40  H   UNL     1      -7.819  -3.521  22.949  0.00  0.00    +0.000 HD
ATOM     41  H   UNL     1      -7.783  -4.388  25.272  0.00  0.00    +0.000 HD
ATOM     42  H   UNL     1      -8.893  -3.139  27.090  0.00  0.00    +0.000 HD
ATOM     43  H   UNL     1      -9.626  -0.800  26.744  0.00  0.00    +0.000 HD
ATOM     44  H   UNL     1     -10.311  -3.002  18.445  0.00  0.00    +0.000 HD
ATOM     45  H   UNL     1     -12.225  -1.484  19.219  0.00  0.00    +0.000 HD
ATOM     46  H   UNL     1     -10.887  -0.454  18.550  0.00  0.00    +0.000 HD
ENDROOT
BRANCH   6  47
ATOM     47  C   UNL     1      -9.095   4.599  22.593  0.00  0.00    +0.000 C 
ATOM     48  H   UNL     1      -9.841   5.360  22.332  0.00  0.00    +0.000 HD
ATOM     49  H   UNL     1      -8.559   4.358  21.678  0.00  0.00    +0.000 HD
ATOM     50  H   UNL     1      -8.395   5.084  23.285  0.00  0.00    +0.000 HD
ENDBRANCH   6  47
BRANCH   1  51
ATOM     51  O   UNL     1     -12.197   3.396  24.091  0.00  0.00    +0.000 OA
BRANCH  51  52
ATOM     52  C   UNL     1     -13.238   4.296  23.759  0.00  0.00    +0.000 C 
ATOM     53  H   UNL     1     -13.157   5.239  24.295  0.00  0.00    +0.000 HD
ATOM     54  H   UNL     1     -13.144   4.536  22.697  0.00  0.00    +0.000 HD
ATOM     55  H   UNL     1     -14.234   3.907  23.929  0.00  0.00    +0.000 HD
ENDBRANCH  51  52
ENDBRANCH   1  51
BRANCH   2  56
ATOM     56  N   UNL     1     -11.092   4.299  26.803  0.00  0.00    +0.000 NA
BRANCH  56  57
ATOM     57  C   UNL     1     -11.316   3.571  28.060  0.00  0.00    +0.000 C 
ATOM     58  H   UNL     1     -10.370   3.187  28.444  0.00  0.00    +0.000 HD
ATOM     59  H   UNL     1     -11.931   2.680  27.922  0.00  0.00    +0.000 HD
ATOM     60  H   UNL     1     -11.814   4.200  28.800  0.00  0.00    +0.000 HD
ENDBRANCH  56  57
BRANCH  56  61
ATOM     61  S   UNL     1     -11.056   5.992  26.916  0.00  0.00    +0.000 S 
ATOM     62  O   UNL     1      -9.761   6.449  26.467  0.00  0.00    +0.000 OA
ATOM     63  O   UNL     1     -12.279   6.498  26.335  0.00  0.00    +0.000 OA
BRANCH  61  64
ATOM     64  C   UNL     1     -11.121   6.225  28.682  0.00  0.00    +0.000 C 
ATOM     65  H   UNL     1     -10.136   6.520  29.050  0.00  0.00    +0.000 HD
ATOM     66  H   UNL     1     -11.433   5.290  29.147  0.00  0.00    +0.000 HD
ATOM     67  H   UNL     1     -11.839   7.020  28.897  0.00  0.00    +0.000 HD
ENDBRANCH  61  64
ENDBRANCH  56  61
ENDBRANCH   2  56
TORSDOF 7
ENDMDL
MODEL 2
REMARK VINA RESULT:    -7.240      4.887      6.898
REMARK INTER + INTRA:         -10.119
REMARK INTER:                  -9.371
REMARK INTRA:                  -0.748
REMARK UNBOUND:                -0.763
REMARK  Name = 
REMARK  7 active torsions:
REMARK  status: ('A' for Active; 'I' for Inactive)
REMARK    1  A    between atoms: C_1  and  O_2
REMARK    2  A    between atoms: O_2  and  C_3
REMARK    3  A    between atoms: C_4  and  N_5
REMARK    4  A    between atoms: N_5  and  C_6
REMARK    5  A    between atoms: N_5  and  S_7
REMARK    6  A    between atoms: S_7  and  C_8
REMARK    7  A    between atoms: C_14  and  C_15
REMARK                            x       y       z     vdW  Elec       q    Type
REMARK                         _______ _______ _______ _____ _____    ______ ____
ROOT
ATOM      1  C   UNL     1     -11.625   0.276  17.252  0.00  0.00    +0.000 C 
ATOM      2  C   UNL     1     -11.738   1.241  18.456  0.00  0.00    +0.000 C 
ATOM      3  C   UNL     1     -11.306   0.586  19.758  0.00  0.00    +0.000 C 
ATOM      4  C   UNL     1      -9.904  -0.002  19.584  0.00  0.00    +0.000 C 
ATOM      5  O   UNL     1      -9.353   0.210  18.279  0.00  0.00    +0.000 OA
ATOM      6  C   UNL     1     -10.138  -0.229  17.139  0.00  0.00    +0.000 C 
ATOM      7  N   UNL     1     -10.017  -1.679  16.985  0.00  0.00    +0.000 N 
ATOM      8  C   UNL     1     -10.379  -2.529  15.919  0.00  0.00    +0.000 A 
ATOM      9  C   UNL     1     -10.405  -2.392  14.520  0.00  0.00    +0.000 A 
ATOM     10  C   UNL     1     -11.117  -3.334  13.768  0.00  0.00    +0.000 A 
ATOM     11  C   UNL     1     -11.853  -4.338  14.382  0.00  0.00    +0.000 A 
ATOM     12  C   UNL     1     -11.634  -4.632  15.725  0.00  0.00    +0.000 A 
ATOM     13  C   UNL     1     -10.728  -3.836  16.446  0.00  0.00    +0.000 A 
ATOM     14  C   UNL     1      -9.991  -3.937  17.625  0.00  0.00    +0.000 A 
ATOM     15  C   UNL     1      -9.313  -5.053  18.116  0.00  0.00    +0.000 A 
ATOM     16  C   UNL     1      -8.507  -4.803  19.255  0.00  0.00    +0.000 A 
ATOM     17  C   UNL     1      -8.655  -3.492  19.765  0.00  0.00    +0.000 A 
ATOM     18  C   UNL     1      -8.705  -3.115  21.132  0.00  0.00    +0.000 A 
ATOM     19  C   UNL     1      -8.195  -3.620  22.342  0.00  0.00    +0.000 A 
ATOM     20  C   UNL     1      -8.716  -3.165  23.558  0.00  0.00    +0.000 A 
ATOM     21  C   UNL     1      -9.788  -2.277  23.588  0.00  0.00    +0.000 A 
ATOM     22  C   UNL     1     -10.226  -1.644  22.423  0.00  0.00    +0.000 A 
ATOM     23  C   UNL     1      -9.597  -1.970  21.211  0.00  0.00    +0.000 A 
ATOM     24  N   UNL     1      -9.734  -1.383  19.946  0.00  0.00    +0.000 N 
ATOM     25  C   UNL     1      -9.282  -2.403  19.184  0.00  0.00    +0.000 A 
ATOM     26  C   UNL     1      -9.750  -2.604  17.920  0.00  0.00    +0.000 A 
ATOM     27  C   UNL     1      -7.695  -5.940  19.493  0.00  0.00    +0.000 C 
ATOM     28  O   UNL     1      -6.830  -6.198  20.324  0.00  0.00    +0.000 OA
ATOM     29  N   UNL     1      -8.040  -6.813  18.453  0.00  0.00    +0.000 N 
ATOM     30  C   UNL     1      -9.000  -6.317  17.477  0.00  0.00    +0.000 C 
ATOM     31  H   UNL     1     -11.801   0.901  16.367  0.00  0.00    +0.000 HD
ATOM     32  H   UNL     1     -10.984   2.018  18.258  0.00  0.00    +0.000 HD
ATOM     33  H   UNL     1     -11.264   1.331  20.561  0.00  0.00    +0.000 HD
ATOM     34  H   UNL     1     -12.014  -0.159  20.127  0.00  0.00    +0.000 HD
ATOM     35  H   UNL     1      -9.234   0.539  20.265  0.00  0.00    +0.000 HD
ATOM     36  H   UNL     1      -9.846  -1.617  14.021  0.00  0.00    +0.000 HD
ATOM     37  H   UNL     1     -11.125  -3.249  12.685  0.00  0.00    +0.000 HD
ATOM     38  H   UNL     1     -12.549  -4.938  13.801  0.00  0.00    +0.000 HD
ATOM     39  H   UNL     1     -12.177  -5.440  16.209  0.00  0.00    +0.000 HD
ATOM     40  H   UNL     1      -7.397  -4.361  22.333  0.00  0.00    +0.000 HD
ATOM     41  H   UNL     1      -8.311  -3.550  24.491  0.00  0.00    +0.000 HD
ATOM     42  H   UNL     1     -10.276  -2.055  24.534  0.00  0.00    +0.000 HD
ATOM     43  H   UNL     1     -11.064  -0.953  22.462  0.00  0.00    +0.000 HD
ATOM     44  H   UNL     1      -7.612  -7.724  18.407  0.00  0.00    +0.000 HD
ATOM     45  H   UNL     1      -9.845  -6.999  17.382  0.00  0.00    +0.000 HD
ATOM     46  H   UNL     1      -8.494  -6.144  16.520  0.00  0.00    +0.000 HD
ENDROOT
BRANCH   6  47
ATOM     47  C   UNL     1      -9.400   0.489  15.995  0.00  0.00    +0.000 C 
ATOM     48  H   UNL     1      -8.321   0.298  16.051  0.00  0.00    +0.000 HD
ATOM     49  H   UNL     1      -9.530   1.568  16.002  0.00  0.00    +0.000 HD
ATOM     50  H   UNL     1      -9.725   0.109  15.018  0.00  0.00    +0.000 HD
ENDBRANCH   6  47
BRANCH   1  51
ATOM     51  O   UNL     1     -12.661  -0.710  17.109  0.00  0.00    +0.000 OA
BRANCH  51  52
ATOM     52  C   UNL     1     -13.461  -0.795  15.944  0.00  0.00    +0.000 C 
ATOM     53  H   UNL     1     -13.765   0.184  15.579  0.00  0.00    +0.000 HD
ATOM     54  H   UNL     1     -12.850  -1.242  15.155  0.00  0.00    +0.000 HD
ATOM     55  H   UNL     1     -14.354  -1.394  16.059  0.00  0.00    +0.000 HD
ENDBRANCH  51  52
ENDBRANCH   1  51
BRANCH   2  56
ATOM     56  N   UNL     1     -13.036   1.989  18.511  0.00  0.00    +0.000 NA
BRANCH  56  57
ATOM     57  C   UNL     1     -13.688   2.190  19.813  0.00  0.00    +0.000 C 
ATOM     58  H   UNL     1     -13.136   2.926  20.399  0.00  0.00    +0.000 HD
ATOM     59  H   UNL     1     -13.674   1.290  20.430  0.00  0.00    +0.000 HD
ATOM     60  H   UNL     1     -14.732   2.487  19.692  0.00  0.00    +0.000 HD
ENDBRANCH  56  57
BRANCH  56  61
ATOM     61  S   UNL     1     -13.294   3.200  17.350  0.00  0.00    +0.000 S 
ATOM     62  O   UNL     1     -12.018   3.789  17.017  0.00  0.00    +0.000 OA
ATOM     63  O   UNL     1     -14.165   2.655  16.333  0.00  0.00    +0.000 OA
BRANCH  61  64
ATOM     64  C   UNL     1     -14.206   4.403  18.299  0.00  0.00    +0.000 C 
ATOM     65  H   UNL     1     -15.116   4.680  17.764  0.00  0.00    +0.000 HD
ATOM     66  H   UNL     1     -13.576   5.280  18.450  0.00  0.00    +0.000 HD
ATOM     67  H   UNL     1     -14.473   3.953  19.257  0.00  0.00    +0.000 HD
ENDBRANCH  61  64
ENDBRANCH  56  61
ENDBRANCH   2  56
TORSDOF 7
ENDMDL
MODEL 3
REMARK VINA RESULT:    -7.127      4.533      7.021
REMARK INTER + INTRA:          -9.973
REMARK INTER:                  -9.218
REMARK INTRA:                  -0.754
REMARK UNBOUND:                -0.763
REMARK  Name = 
REMARK  7 active torsions:
REMARK  status: ('A' for Active; 'I' for Inactive)
REMARK    1  A    between atoms: C_1  and  O_2
REMARK    2  A    between atoms: O_2  and  C_3
REMARK    3  A    between atoms: C_4  and  N_5
REMARK    4  A    between atoms: N_5  and  C_6
REMARK    5  A    between atoms: N_5  and  S_7
REMARK    6  A    between atoms: S_7  and  C_8
REMARK    7  A    between atoms: C_14  and  C_15
REMARK                            x       y       z     vdW  Elec       q    Type
REMARK                         _______ _______ _______ _____ _____    ______ ____
ROOT
ATOM      1  C   UNL     1     -11.815   0.691  16.811  0.00  0.00    +0.000 C 
ATOM      2  C   UNL     1     -12.052   1.936  17.699  0.00  0.00    +0.000 C 
ATOM      3  C   UNL     1     -11.655   1.691  19.146  0.00  0.00    +0.000 C 
ATOM      4  C   UNL     1     -10.213   1.181  19.192  0.00  0.00    +0.000 C 
ATOM      5  O   UNL     1      -9.604   1.071  17.901  0.00  0.00    +0.000 OA
ATOM      6  C   UNL     1     -10.297   0.283  16.896  0.00  0.00    +0.000 C 
ATOM      7  N   UNL     1     -10.082  -1.141  17.150  0.00  0.00    +0.000 N 
ATOM      8  C   UNL     1     -10.333  -2.272  16.346  0.00  0.00    +0.000 A 
ATOM      9  C   UNL     1     -10.289  -2.522  14.963  0.00  0.00    +0.000 A 
ATOM     10  C   UNL     1     -10.901  -3.682  14.472  0.00  0.00    +0.000 A 
ATOM     11  C   UNL     1     -11.610  -4.533  15.310  0.00  0.00    +0.000 A 
ATOM     12  C   UNL     1     -11.448  -4.434  16.690  0.00  0.00    +0.000 A 
ATOM     13  C   UNL     1     -10.632  -3.409  17.197  0.00  0.00    +0.000 A 
ATOM     14  C   UNL     1      -9.958  -3.133  18.386  0.00  0.00    +0.000 A 
ATOM     15  C   UNL     1      -9.243  -4.022  19.189  0.00  0.00    +0.000 A 
ATOM     16  C   UNL     1      -8.518  -3.415  20.245  0.00  0.00    +0.000 A 
ATOM     17  C   UNL     1      -8.772  -2.029  20.370  0.00  0.00    +0.000 A 
ATOM     18  C   UNL     1      -8.920  -1.301  21.578  0.00  0.00    +0.000 A 
ATOM     19  C   UNL     1      -8.449  -1.421  22.898  0.00  0.00    +0.000 A 
ATOM     20  C   UNL     1      -9.062  -0.691  23.923  0.00  0.00    +0.000 A 
ATOM     21  C   UNL     1     -10.185   0.092  23.668  0.00  0.00    +0.000 A 
ATOM     22  C   UNL     1     -10.594   0.351  22.358  0.00  0.00    +0.000 A 
ATOM     23  C   UNL     1      -9.881  -0.245  21.307  0.00  0.00    +0.000 A 
ATOM     24  N   UNL     1      -9.982  -0.034  19.926  0.00  0.00    +0.000 N 
ATOM     25  C   UNL     1      -9.429  -1.187  19.489  0.00  0.00    +0.000 A 
ATOM     26  C   UNL     1      -9.813  -1.756  18.312  0.00  0.00    +0.000 A 
ATOM     27  C   UNL     1      -7.654  -4.383  20.816  0.00  0.00    +0.000 C 
ATOM     28  O   UNL     1      -6.823  -4.344  21.717  0.00  0.00    +0.000 OA
ATOM     29  N   UNL     1      -7.889  -5.528  20.043  0.00  0.00    +0.000 N 
ATOM     30  C   UNL     1      -8.821  -5.387  18.933  0.00  0.00    +0.000 C 
ATOM     31  H   UNL     1     -11.978   1.039  15.782  0.00  0.00    +0.000 HD
ATOM     32  H   UNL     1     -11.336   2.682  17.324  0.00  0.00    +0.000 HD
ATOM     33  H   UNL     1     -11.702   2.628  19.715  0.00  0.00    +0.000 HD
ATOM     34  H   UNL     1     -12.337   1.025  19.678  0.00  0.00    +0.000 HD
ATOM     35  H   UNL     1      -9.616   1.933  19.723  0.00  0.00    +0.000 HD
ATOM     36  H   UNL     1      -9.750  -1.873  14.291  0.00  0.00    +0.000 HD
ATOM     37  H   UNL     1     -10.854  -3.894  13.408  0.00  0.00    +0.000 HD
ATOM     38  H   UNL     1     -12.235  -5.316  14.890  0.00  0.00    +0.000 HD
ATOM     39  H   UNL     1     -11.968  -5.118  17.356  0.00  0.00    +0.000 HD
ATOM     40  H   UNL     1      -7.609  -2.076  23.123  0.00  0.00    +0.000 HD
ATOM     41  H   UNL     1      -8.688  -0.778  24.940  0.00  0.00    +0.000 HD
ATOM     42  H   UNL     1     -10.738   0.526  24.498  0.00  0.00    +0.000 HD
ATOM     43  H   UNL     1     -11.473   0.965  22.175  0.00  0.00    +0.000 HD
ATOM     44  H   UNL     1      -7.406  -6.384  20.265  0.00  0.00    +0.000 HD
ATOM     45  H   UNL     1      -9.617  -6.127  18.997  0.00  0.00    +0.000 HD
ATOM     46  H   UNL     1      -8.274  -5.443  17.986  0.00  0.00    +0.000 HD
ENDROOT
BRANCH   6  47
ATOM     47  C   UNL     1      -9.540   0.715  15.627  0.00  0.00    +0.000 C 
ATOM     48  H   UNL     1      -8.670   0.070  15.458  0.00  0.00    +0.000 HD
ATOM     49  H   UNL     1      -9.172   1.738  15.667  0.00  0.00    +0.000 HD
ATOM     50  H   UNL     1     -10.174   0.611  14.737  0.00  0.00    +0.000 HD
ENDBRANCH   6  47
BRANCH   1  51
ATOM     51  O   UNL     1     -12.781  -0.369  16.906  0.00  0.00    +0.000 OA
BRANCH  51  52
ATOM     52  C   UNL     1     -13.523  -0.810  15.783  0.00  0.00    +0.000 C 
ATOM     53  H   UNL     1     -13.024  -1.614  15.247  0.00  0.00    +0.000 HD
ATOM     54  H   UNL     1     -14.466  -1.224  16.151  0.00  0.00    +0.000 HD
ATOM     55  H   UNL     1     -13.754  -0.032  15.067  0.00  0.00    +0.000 HD
ENDBRANCH  51  52
ENDBRANCH   1  51
BRANCH   2  56
ATOM     56  N   UNL     1     -13.393   2.575  17.498  0.00  0.00    +0.000 NA
BRANCH  56  57
ATOM     57  C   UNL     1     -14.139   3.052  18.672  0.00  0.00    +0.000 C 
ATOM     58  H   UNL     1     -13.668   2.689  19.587  0.00  0.00    +0.000 HD
ATOM     59  H   UNL     1     -15.153   2.649  18.714  0.00  0.00    +0.000 HD
ATOM     60  H   UNL     1     -14.220   4.140  18.675  0.00  0.00    +0.000 HD
ENDBRANCH  56  57
BRANCH  56  61
ATOM     61  S   UNL     1     -13.648   3.428  16.053  0.00  0.00    +0.000 S 
ATOM     62  O   UNL     1     -12.393   4.016  15.646  0.00  0.00    +0.000 OA
ATOM     63  O   UNL     1     -14.407   2.575  15.167  0.00  0.00    +0.000 OA
BRANCH  61  64
ATOM     64  C   UNL     1     -14.701   4.754  16.613  0.00  0.00    +0.000 C 
ATOM     65  H   UNL     1     -14.440   5.022  17.639  0.00  0.00    +0.000 HD
ATOM     66  H   UNL     1     -15.738   4.423  16.562  0.00  0.00    +0.000 HD
ATOM     67  H   UNL     1     -14.540   5.617  15.963  0.00  0.00    +0.000 HD
ENDBRANCH  61  64
ENDBRANCH  56  61
ENDBRANCH   2  56
TORSDOF 7
ENDMDL
MODEL 4
REMARK VINA RESULT:    -7.088      2.513      6.235
REMARK INTER + INTRA:          -9.923
REMARK INTER:                  -9.326
REMARK INTRA:                  -0.596
REMARK UNBOUND:                -0.763
REMARK  Name = 
REMARK  7 active torsions:
REMARK  status: ('A' for Active; 'I' for Inactive)
REMARK    1  A    between atoms: C_1  and  O_2
REMARK    2  A    between atoms: O_2  and  C_3
REMARK    3  A    between atoms: C_4  and  N_5
REMARK    4  A    between atoms: N_5  and  C_6
REMARK    5  A    between atoms: N_5  and  S_7
REMARK    6  A    between atoms: S_7  and  C_8
REMARK    7  A    between atoms: C_14  and  C_15
REMARK                            x       y       z     vdW  Elec       q    Type
REMARK                         _______ _______ _______ _____ _____    ______ ____
ROOT
ATOM      1  C   UNL     1     -10.144   0.085  23.129  0.00  0.00    +0.000 C 
ATOM      2  C   UNL     1     -11.038   1.275  22.710  0.00  0.00    +0.000 C 
ATOM      3  C   UNL     1     -11.377   1.244  21.229  0.00  0.00    +0.000 C 
ATOM      4  C   UNL     1     -11.980  -0.118  20.880  0.00  0.00    +0.000 C 
ATOM      5  O   UNL     1     -12.085  -1.001  22.001  0.00  0.00    +0.000 OA
ATOM      6  C   UNL     1     -10.879  -1.260  22.767  0.00  0.00    +0.000 C 
ATOM      7  N   UNL     1     -10.036  -2.220  22.055  0.00  0.00    +0.000 N 
ATOM      8  C   UNL     1      -8.912  -2.957  22.479  0.00  0.00    +0.000 A 
ATOM      9  C   UNL     1      -8.522  -3.537  23.699  0.00  0.00    +0.000 A 
ATOM     10  C   UNL     1      -7.189  -3.937  23.855  0.00  0.00    +0.000 A 
ATOM     11  C   UNL     1      -6.245  -3.699  22.866  0.00  0.00    +0.000 A 
ATOM     12  C   UNL     1      -6.662  -3.365  21.579  0.00  0.00    +0.000 A 
ATOM     13  C   UNL     1      -8.037  -3.192  21.345  0.00  0.00    +0.000 A 
ATOM     14  C   UNL     1      -8.892  -3.182  20.245  0.00  0.00    +0.000 A 
ATOM     15  C   UNL     1      -8.866  -4.025  19.133  0.00  0.00    +0.000 A 
ATOM     16  C   UNL     1      -9.973  -3.886  18.258  0.00  0.00    +0.000 A 
ATOM     17  C   UNL     1     -10.826  -2.813  18.605  0.00  0.00    +0.000 A 
ATOM     18  C   UNL     1     -11.463  -1.914  17.712  0.00  0.00    +0.000 A 
ATOM     19  C   UNL     1     -11.919  -1.959  16.382  0.00  0.00    +0.000 A 
ATOM     20  C   UNL     1     -12.213  -0.768  15.709  0.00  0.00    +0.000 A 
ATOM     21  C   UNL     1     -11.984   0.467  16.310  0.00  0.00    +0.000 A 
ATOM     22  C   UNL     1     -11.672   0.555  17.668  0.00  0.00    +0.000 A 
ATOM     23  C   UNL     1     -11.537  -0.635  18.400  0.00  0.00    +0.000 A 
ATOM     24  N   UNL     1     -11.383  -0.824  19.779  0.00  0.00    +0.000 N 
ATOM     25  C   UNL     1     -10.844  -2.063  19.769  0.00  0.00    +0.000 A 
ATOM     26  C   UNL     1      -9.972  -2.465  20.736  0.00  0.00    +0.000 A 
ATOM     27  C   UNL     1      -9.949  -4.954  17.326  0.00  0.00    +0.000 C 
ATOM     28  O   UNL     1     -10.689  -5.285  16.406  0.00  0.00    +0.000 OA
ATOM     29  N   UNL     1      -8.831  -5.703  17.714  0.00  0.00    +0.000 N 
ATOM     30  C   UNL     1      -8.118  -5.246  18.899  0.00  0.00    +0.000 C 
ATOM     31  H   UNL     1     -10.108   0.125  24.226  0.00  0.00    +0.000 HD
ATOM     32  H   UNL     1     -11.992   1.098  23.230  0.00  0.00    +0.000 HD
ATOM     33  H   UNL     1     -12.121   2.016  20.995  0.00  0.00    +0.000 HD
ATOM     34  H   UNL     1     -10.531   1.490  20.584  0.00  0.00    +0.000 HD
ATOM     35  H   UNL     1     -13.016   0.055  20.558  0.00  0.00    +0.000 HD
ATOM     36  H   UNL     1      -9.235  -3.727  24.485  0.00  0.00    +0.000 HD
ATOM     37  H   UNL     1      -6.883  -4.405  24.786  0.00  0.00    +0.000 HD
ATOM     38  H   UNL     1      -5.188  -3.838  23.075  0.00  0.00    +0.000 HD
ATOM     39  H   UNL     1      -5.935  -3.211  20.786  0.00  0.00    +0.000 HD
ATOM     40  H   UNL     1     -12.045  -2.915  15.878  0.00  0.00    +0.000 HD
ATOM     41  H   UNL     1     -12.576  -0.807  14.685  0.00  0.00    +0.000 HD
ATOM     42  H   UNL     1     -12.072   1.377  15.721  0.00  0.00    +0.000 HD
ATOM     43  H   UNL     1     -11.496   1.527  18.124  0.00  0.00    +0.000 HD
ATOM     44  H   UNL     1      -8.573  -6.521  17.185  0.00  0.00    +0.000 HD
ATOM     45  H   UNL     1      -7.060  -5.095  18.683  0.00  0.00    +0.000 HD
ATOM     46  H   UNL     1      -8.279  -5.953  19.720  0.00  0.00    +0.000 HD
ENDROOT
BRANCH   6  47
ATOM     47  C   UNL     1     -11.478  -1.913  24.026  0.00  0.00    +0.000 C 
ATOM     48  H   UNL     1     -11.147  -2.955  24.115  0.00  0.00    +0.000 HD
ATOM     49  H   UNL     1     -12.565  -1.927  24.034  0.00  0.00    +0.000 HD
ATOM     50  H   UNL     1     -11.133  -1.405  24.935  0.00  0.00    +0.000 HD
ENDBRANCH   6  47
BRANCH   1  51
ATOM     51  O   UNL     1      -8.747   0.173  22.800  0.00  0.00    +0.000 OA
BRANCH  51  52
ATOM     52  C   UNL     1      -7.737   0.096  23.789  0.00  0.00    +0.000 C 
ATOM     53  H   UNL     1      -6.818   0.589  23.481  0.00  0.00    +0.000 HD
ATOM     54  H   UNL     1      -8.095   0.634  24.671  0.00  0.00    +0.000 HD
ATOM     55  H   UNL     1      -7.484  -0.912  24.090  0.00  0.00    +0.000 HD
ENDBRANCH  51  52
ENDBRANCH   1  51
BRANCH   2  56
ATOM     56  N   UNL     1     -10.569   2.598  23.237  0.00  0.00    +0.000 NA
BRANCH  56  57
ATOM     57  C   UNL     1      -9.636   3.397  22.428  0.00  0.00    +0.000 C 
ATOM     58  H   UNL     1     -10.190   4.020  21.725  0.00  0.00    +0.000 HD
ATOM     59  H   UNL     1      -8.998   2.778  21.795  0.00  0.00    +0.000 HD
ATOM     60  H   UNL     1      -8.982   4.002  23.059  0.00  0.00    +0.000 HD
ENDBRANCH  56  57
BRANCH  56  61
ATOM     61  S   UNL     1     -11.632   3.470  24.231  0.00  0.00    +0.000 S 
ATOM     62  O   UNL     1     -12.978   3.021  23.960  0.00  0.00    +0.000 OA
ATOM     63  O   UNL     1     -11.088   3.463  25.571  0.00  0.00    +0.000 OA
BRANCH  61  64
ATOM     64  C   UNL     1     -11.472   5.113  23.557  0.00  0.00    +0.000 C 
ATOM     65  H   UNL     1     -10.417   5.343  23.398  0.00  0.00    +0.000 HD
ATOM     66  H   UNL     1     -11.912   5.823  24.257  0.00  0.00    +0.000 HD
ATOM     67  H   UNL     1     -11.996   5.142  22.599  0.00  0.00    +0.000 HD
ENDBRANCH  61  64
ENDBRANCH  56  61
ENDBRANCH   2  56
TORSDOF 7
ENDMDL
MODEL 5
REMARK VINA RESULT:    -7.007      3.990      6.657
REMARK INTER + INTRA:          -9.818
REMARK INTER:                  -9.147
REMARK INTRA:                  -0.671
REMARK UNBOUND:                -0.763
REMARK  Name = 
REMARK  7 active torsions:
REMARK  status: ('A' for Active; 'I' for Inactive)
REMARK    1  A    between atoms: C_1  and  O_2
REMARK    2  A    between atoms: O_2  and  C_3
REMARK    3  A    between atoms: C_4  and  N_5
REMARK    4  A    between atoms: N_5  and  C_6
REMARK    5  A    between atoms: N_5  and  S_7
REMARK    6  A    between atoms: S_7  and  C_8
REMARK    7  A    between atoms: C_14  and  C_15
REMARK                            x       y       z     vdW  Elec       q    Type
REMARK                         _______ _______ _______ _____ _____    ______ ____
ROOT
ATOM      1  C   UNL     1     -10.714   0.301  20.257  0.00  0.00    +0.000 C 
ATOM      2  C   UNL     1     -10.068  -0.821  21.103  0.00  0.00    +0.000 C 
ATOM      3  C   UNL     1     -10.147  -2.174  20.415  0.00  0.00    +0.000 C 
ATOM      4  C   UNL     1      -9.554  -2.059  19.010  0.00  0.00    +0.000 C 
ATOM      5  O   UNL     1      -9.075  -0.747  18.696  0.00  0.00    +0.000 OA
ATOM      6  C   UNL     1     -10.000   0.361  18.855  0.00  0.00    +0.000 C 
ATOM      7  N   UNL     1     -10.925   0.399  17.723  0.00  0.00    +0.000 N 
ATOM      8  C   UNL     1     -11.827   1.396  17.298  0.00  0.00    +0.000 A 
ATOM      9  C   UNL     1     -11.820   2.802  17.325  0.00  0.00    +0.000 A 
ATOM     10  C   UNL     1     -13.022   3.483  17.097  0.00  0.00    +0.000 A 
ATOM     11  C   UNL     1     -14.217   2.797  16.927  0.00  0.00    +0.000 A 
ATOM     12  C   UNL     1     -14.197   1.433  16.649  0.00  0.00    +0.000 A 
ATOM     13  C   UNL     1     -12.957   0.770  16.636  0.00  0.00    +0.000 A 
ATOM     14  C   UNL     1     -12.440  -0.419  16.127  0.00  0.00    +0.000 A 
ATOM     15  C   UNL     1     -12.701  -1.004  14.886  0.00  0.00    +0.000 A 
ATOM     16  C   UNL     1     -11.892  -2.126  14.578  0.00  0.00    +0.000 A 
ATOM     17  C   UNL     1     -11.065  -2.529  15.653  0.00  0.00    +0.000 A 
ATOM     18  C   UNL     1     -10.772  -3.861  16.043  0.00  0.00    +0.000 A 
ATOM     19  C   UNL     1     -10.696  -5.111  15.404  0.00  0.00    +0.000 A 
ATOM     20  C   UNL     1     -10.695  -6.283  16.168  0.00  0.00    +0.000 A 
ATOM     21  C   UNL     1     -10.849  -6.233  17.551  0.00  0.00    +0.000 A 
ATOM     22  C   UNL     1     -10.783  -5.017  18.235  0.00  0.00    +0.000 A 
ATOM     23  C   UNL     1     -10.617  -3.841  17.489  0.00  0.00    +0.000 A 
ATOM     24  N   UNL     1     -10.371  -2.532  17.925  0.00  0.00    +0.000 N 
ATOM     25  C   UNL     1     -10.790  -1.857  16.832  0.00  0.00    +0.000 A 
ATOM     26  C   UNL     1     -11.328  -0.609  16.933  0.00  0.00    +0.000 A 
ATOM     27  C   UNL     1     -12.083  -2.461  13.214  0.00  0.00    +0.000 C 
ATOM     28  O   UNL     1     -11.599  -3.317  12.481  0.00  0.00    +0.000 OA
ATOM     29  N   UNL     1     -12.988  -1.491  12.763  0.00  0.00    +0.000 N 
ATOM     30  C   UNL     1     -13.384  -0.470  13.723  0.00  0.00    +0.000 C 
ATOM     31  H   UNL     1     -10.451   1.236  20.771  0.00  0.00    +0.000 HD
ATOM     32  H   UNL     1      -8.997  -0.568  21.123  0.00  0.00    +0.000 HD
ATOM     33  H   UNL     1      -9.560  -2.916  20.972  0.00  0.00    +0.000 HD
ATOM     34  H   UNL     1     -11.154  -2.595  20.397  0.00  0.00    +0.000 HD
ATOM     35  H   UNL     1      -8.664  -2.701  18.975  0.00  0.00    +0.000 HD
ATOM     36  H   UNL     1     -10.905   3.357  17.460  0.00  0.00    +0.000 HD
ATOM     37  H   UNL     1     -13.022   4.569  17.095  0.00  0.00    +0.000 HD
ATOM     38  H   UNL     1     -15.161   3.334  16.944  0.00  0.00    +0.000 HD
ATOM     39  H   UNL     1     -15.123   0.891  16.478  0.00  0.00    +0.000 HD
ATOM     40  H   UNL     1     -10.635  -5.168  14.318  0.00  0.00    +0.000 HD
ATOM     41  H   UNL     1     -10.624  -7.247  15.671  0.00  0.00    +0.000 HD
ATOM     42  H   UNL     1     -11.000  -7.154  18.110  0.00  0.00    +0.000 HD
ATOM     43  H   UNL     1     -10.906  -4.994  19.315  0.00  0.00    +0.000 HD
ATOM     44  H   UNL     1     -13.314  -1.521  11.810  0.00  0.00    +0.000 HD
ATOM     45  H   UNL     1     -14.468  -0.422  13.815  0.00  0.00    +0.000 HD
ATOM     46  H   UNL     1     -12.947   0.493  13.435  0.00  0.00    +0.000 HD
ENDROOT
BRANCH   6  47
ATOM     47  C   UNL     1      -9.028   1.553  18.784  0.00  0.00    +0.000 C 
ATOM     48  H   UNL     1      -9.404   2.317  18.093  0.00  0.00    +0.000 HD
ATOM     49  H   UNL     1      -8.032   1.283  18.444  0.00  0.00    +0.000 HD
ATOM     50  H   UNL     1      -8.937   2.045  19.761  0.00  0.00    +0.000 HD
ENDBRANCH   6  47
BRANCH   1  51
ATOM     51  O   UNL     1     -12.150   0.374  20.261  0.00  0.00    +0.000 OA
BRANCH  51  52
ATOM     52  C   UNL     1     -12.845   1.451  20.861  0.00  0.00    +0.000 C 
ATOM     53  H   UNL     1     -12.191   2.289  21.093  0.00  0.00    +0.000 HD
ATOM     54  H   UNL     1     -13.574   1.822  20.135  0.00  0.00    +0.000 HD
ATOM     55  H   UNL     1     -13.377   1.190  21.767  0.00  0.00    +0.000 HD
ENDBRANCH  51  52
ENDBRANCH   1  51
BRANCH   2  56
ATOM     56  N   UNL     1     -10.480  -0.805  22.544  0.00  0.00    +0.000 NA
BRANCH  56  57
ATOM     57  C   UNL     1     -11.508  -1.751  23.002  0.00  0.00    +0.000 C 
ATOM     58  H   UNL     1     -11.793  -2.418  22.187  0.00  0.00    +0.000 HD
ATOM     59  H   UNL     1     -12.439  -1.253  23.280  0.00  0.00    +0.000 HD
ATOM     60  H   UNL     1     -11.167  -2.317  23.871  0.00  0.00    +0.000 HD
ENDBRANCH  56  57
BRANCH  56  61
ATOM     61  S   UNL     1      -9.312  -0.357  23.691  0.00  0.00    +0.000 S 
ATOM     62  O   UNL     1      -9.186   1.081  23.672  0.00  0.00    +0.000 OA
ATOM     63  O   UNL     1      -9.597  -1.076  24.913  0.00  0.00    +0.000 OA
BRANCH  61  64
ATOM     64  C   UNL     1      -7.832  -1.032  22.961  0.00  0.00    +0.000 C 
ATOM     65  H   UNL     1      -7.715  -2.074  23.265  0.00  0.00    +0.000 HD
ATOM     66  H   UNL     1      -6.977  -0.443  23.296  0.00  0.00    +0.000 HD
ATOM     67  H   UNL     1      -7.932  -0.982  21.875  0.00  0.00    +0.000 HD
ENDBRANCH  61  64
ENDBRANCH  56  61
ENDBRANCH   2  56
TORSDOF 7
ENDMDL
MODEL 6
REMARK VINA RESULT:    -6.895      4.229      6.048
REMARK INTER + INTRA:          -9.674
REMARK INTER:                  -8.917
REMARK INTRA:                  -0.757
REMARK UNBOUND:                -0.763
REMARK  Name = 
REMARK  7 active torsions:
REMARK  status: ('A' for Active; 'I' for Inactive)
REMARK    1  A    between atoms: C_1  and  O_2
REMARK    2  A    between atoms: O_2  and  C_3
REMARK    3  A    between atoms: C_4  and  N_5
REMARK    4  A    between atoms: N_5  and  C_6
REMARK    5  A    between atoms: N_5  and  S_7
REMARK    6  A    between atoms: S_7  and  C_8
REMARK    7  A    between atoms: C_14  and  C_15
REMARK                            x       y       z     vdW  Elec       q    Type
REMARK                         _______ _______ _______ _____ _____    ______ ____
ROOT
ATOM      1  C   UNL     1     -11.778   1.418  17.766  0.00  0.00    +0.000 C 
ATOM      2  C   UNL     1     -11.986   2.288  19.029  0.00  0.00    +0.000 C 
ATOM      3  C   UNL     1     -11.664   1.530  20.306  0.00  0.00    +0.000 C 
ATOM      4  C   UNL     1     -10.255   0.944  20.202  0.00  0.00    +0.000 C 
ATOM      5  O   UNL     1      -9.598   1.252  18.967  0.00  0.00    +0.000 OA
ATOM      6  C   UNL     1     -10.288   0.909  17.736  0.00  0.00    +0.000 C 
ATOM      7  N   UNL     1     -10.160  -0.525  17.480  0.00  0.00    +0.000 N 
ATOM      8  C   UNL     1     -10.436  -1.287  16.325  0.00  0.00    +0.000 A 
ATOM      9  C   UNL     1     -10.346  -1.042  14.944  0.00  0.00    +0.000 A 
ATOM     10  C   UNL     1     -10.996  -1.916  14.065  0.00  0.00    +0.000 A 
ATOM     11  C   UNL     1     -11.784  -2.959  14.537  0.00  0.00    +0.000 A 
ATOM     12  C   UNL     1     -11.676  -3.357  15.867  0.00  0.00    +0.000 A 
ATOM     13  C   UNL     1     -10.830  -2.627  16.718  0.00  0.00    +0.000 A 
ATOM     14  C   UNL     1     -10.193  -2.826  17.942  0.00  0.00    +0.000 A 
ATOM     15  C   UNL     1      -9.560  -3.983  18.399  0.00  0.00    +0.000 A 
ATOM     16  C   UNL     1      -8.850  -3.829  19.616  0.00  0.00    +0.000 A 
ATOM     17  C   UNL     1      -9.036  -2.561  20.213  0.00  0.00    +0.000 A 
ATOM     18  C   UNL     1      -9.196  -2.290  21.596  0.00  0.00    +0.000 A 
ATOM     19  C   UNL     1      -8.789  -2.892  22.800  0.00  0.00    +0.000 A 
ATOM     20  C   UNL     1      -9.406  -2.527  24.001  0.00  0.00    +0.000 A 
ATOM     21  C   UNL     1     -10.474  -1.634  24.013  0.00  0.00    +0.000 A 
ATOM     22  C   UNL     1     -10.813  -0.909  22.869  0.00  0.00    +0.000 A 
ATOM     23  C   UNL     1     -10.088  -1.146  21.690  0.00  0.00    +0.000 A 
ATOM     24  N   UNL     1     -10.120  -0.462  20.469  0.00  0.00    +0.000 N 
ATOM     25  C   UNL     1      -9.609  -1.424  19.668  0.00  0.00    +0.000 A 
ATOM     26  C   UNL     1      -9.973  -1.522  18.359  0.00  0.00    +0.000 A 
ATOM     27  C   UNL     1      -8.063  -4.989  19.830  0.00  0.00    +0.000 C 
ATOM     28  O   UNL     1      -7.270  -5.319  20.706  0.00  0.00    +0.000 OA
ATOM     29  N   UNL     1      -8.325  -5.776  18.701  0.00  0.00    +0.000 N 
ATOM     30  C   UNL     1      -9.200  -5.197  17.691  0.00  0.00    +0.000 C 
ATOM     31  H   UNL     1     -11.879   2.111  16.921  0.00  0.00    +0.000 HD
ATOM     32  H   UNL     1     -11.216   3.071  18.953  0.00  0.00    +0.000 HD
ATOM     33  H   UNL     1     -11.687   2.211  21.166  0.00  0.00    +0.000 HD
ATOM     34  H   UNL     1     -12.402   0.766  20.557  0.00  0.00    +0.000 HD
ATOM     35  H   UNL     1      -9.642   1.425  20.975  0.00  0.00    +0.000 HD
ATOM     36  H   UNL     1      -9.746  -0.236  14.553  0.00  0.00    +0.000 HD
ATOM     37  H   UNL     1     -10.916  -1.748  12.995  0.00  0.00    +0.000 HD
ATOM     38  H   UNL     1     -12.431  -3.505  13.856  0.00  0.00    +0.000 HD
ATOM     39  H   UNL     1     -12.259  -4.195  16.240  0.00  0.00    +0.000 HD
ATOM     40  H   UNL     1      -7.995  -3.637  22.799  0.00  0.00    +0.000 HD
ATOM     41  H   UNL     1      -9.081  -2.986  24.932  0.00  0.00    +0.000 HD
ATOM     42  H   UNL     1     -11.038  -1.481  24.930  0.00  0.00    +0.000 HD
ATOM     43  H   UNL     1     -11.650  -0.215  22.893  0.00  0.00    +0.000 HD
ATOM     44  H   UNL     1      -7.898  -6.684  18.619  0.00  0.00    +0.000 HD
ATOM     45  H   UNL     1     -10.037  -5.861  17.474  0.00  0.00    +0.000 HD
ATOM     46  H   UNL     1      -8.617  -4.955  16.795  0.00  0.00    +0.000 HD
ENDROOT
BRANCH   6  47
ATOM     47  C   UNL     1      -9.457   1.706  16.715  0.00  0.00    +0.000 C 
ATOM     48  H   UNL     1      -9.788   2.751  16.679  0.00  0.00    +0.000 HD
ATOM     49  H   UNL     1      -9.524   1.319  15.701  0.00  0.00    +0.000 HD
ATOM     50  H   UNL     1      -8.398   1.732  17.004  0.00  0.00    +0.000 HD
ENDBRANCH   6  47
BRANCH   1  51
ATOM     51  O   UNL     1     -12.802   0.455  17.463  0.00  0.00    +0.000 OA
BRANCH  51  52
ATOM     52  C   UNL     1     -13.584   0.538  16.286  0.00  0.00    +0.000 C 
ATOM     53  H   UNL     1     -13.900  -0.439  15.930  0.00  0.00    +0.000 HD
ATOM     54  H   UNL     1     -14.498   1.086  16.534  0.00  0.00    +0.000 HD
ATOM     55  H   UNL     1     -13.100   1.047  15.463  0.00  0.00    +0.000 HD
ENDBRANCH  51  52
ENDBRANCH   1  51
BRANCH   2  56
ATOM     56  N   UNL     1     -13.282   3.042  19.035  0.00  0.00    +0.000 NA
BRANCH  56  57
ATOM     57  C   UNL     1     -14.168   2.927  20.203  0.00  0.00    +0.000 C 
ATOM     58  H   UNL     1     -15.006   2.268  19.974  0.00  0.00    +0.000 HD
ATOM     59  H   UNL     1     -14.637   3.877  20.466  0.00  0.00    +0.000 HD
ATOM     60  H   UNL     1     -13.622   2.578  21.082  0.00  0.00    +0.000 HD
ENDBRANCH  56  57
BRANCH  56  61
ATOM     61  S   UNL     1     -13.338   4.516  18.197  0.00  0.00    +0.000 S 
ATOM     62  O   UNL     1     -13.565   4.236  16.799  0.00  0.00    +0.000 OA
ATOM     63  O   UNL     1     -14.198   5.412  18.939  0.00  0.00    +0.000 OA
BRANCH  61  64
ATOM     64  C   UNL     1     -11.652   5.074  18.363  0.00  0.00    +0.000 C 
ATOM     65  H   UNL     1     -11.404   5.184  19.420  0.00  0.00    +0.000 HD
ATOM     66  H   UNL     1     -11.548   6.030  17.850  0.00  0.00    +0.000 HD
ATOM     67  H   UNL     1     -10.997   4.324  17.914  0.00  0.00    +0.000 HD
ENDBRANCH  61  64
ENDBRANCH  56  61
ENDBRANCH   2  56
TORSDOF 7
ENDMDL
MODEL 7
REMARK VINA RESULT:    -6.482      3.577      6.731
REMARK INTER + INTRA:          -9.140
REMARK INTER:                  -8.438
REMARK INTRA:                  -0.702
REMARK UNBOUND:                -0.763
REMARK  Name = 
REMARK  7 active torsions:
REMARK  status: ('A' for Active; 'I' for Inactive)
REMARK    1  A    between atoms: C_1  and  O_2
REMARK    2  A    between atoms: O_2  and  C_3
REMARK    3  A    between atoms: C_4  and  N_5
REMARK    4  A    between atoms: N_5  and  C_6
REMARK    5  A    between atoms: N_5  and  S_7
REMARK    6  A    between atoms: S_7  and  C_8
REMARK    7  A    between atoms: C_14  and  C_15
REMARK                            x       y       z     vdW  Elec       q    Type
REMARK                         _______ _______ _______ _____ _____    ______ ____
ROOT
ATOM      1  C   UNL     1     -11.518   1.790  18.832  0.00  0.00    +0.000 C 
ATOM      2  C   UNL     1     -11.432   0.584  17.868  0.00  0.00    +0.000 C 
ATOM      3  C   UNL     1     -10.635  -0.566  18.458  0.00  0.00    +0.000 C 
ATOM      4  C   UNL     1     -11.212  -0.928  19.828  0.00  0.00    +0.000 C 
ATOM      5  O   UNL     1     -12.336  -0.125  20.204  0.00  0.00    +0.000 OA
ATOM      6  C   UNL     1     -12.167   1.317  20.187  0.00  0.00    +0.000 C 
ATOM      7  N   UNL     1     -11.429   1.744  21.375  0.00  0.00    +0.000 N 
ATOM      8  C   UNL     1     -11.227   3.025  21.928  0.00  0.00    +0.000 A 
ATOM      9  C   UNL     1     -12.003   4.195  22.003  0.00  0.00    +0.000 A 
ATOM     10  C   UNL     1     -11.374   5.395  22.356  0.00  0.00    +0.000 A 
ATOM     11  C   UNL     1     -10.000   5.458  22.551  0.00  0.00    +0.000 A 
ATOM     12  C   UNL     1      -9.274   4.283  22.728  0.00  0.00    +0.000 A 
ATOM     13  C   UNL     1      -9.948   3.055  22.613  0.00  0.00    +0.000 A 
ATOM     14  C   UNL     1      -9.736   1.733  23.001  0.00  0.00    +0.000 A 
ATOM     15  C   UNL     1      -9.214   1.270  24.209  0.00  0.00    +0.000 A 
ATOM     16  C   UNL     1      -9.280  -0.136  24.383  0.00  0.00    +0.000 A 
ATOM     17  C   UNL     1      -9.736  -0.818  23.231  0.00  0.00    +0.000 A 
ATOM     18  C   UNL     1      -9.247  -2.050  22.727  0.00  0.00    +0.000 A 
ATOM     19  C   UNL     1      -8.634  -3.195  23.268  0.00  0.00    +0.000 A 
ATOM     20  C   UNL     1      -7.982  -4.099  22.421  0.00  0.00    +0.000 A 
ATOM     21  C   UNL     1      -7.862  -3.841  21.058  0.00  0.00    +0.000 A 
ATOM     22  C   UNL     1      -8.574  -2.798  20.461  0.00  0.00    +0.000 A 
ATOM     23  C   UNL     1      -9.368  -1.980  21.280  0.00  0.00    +0.000 A 
ATOM     24  N   UNL     1     -10.284  -0.981  20.925  0.00  0.00    +0.000 N 
ATOM     25  C   UNL     1     -10.319  -0.295  22.089  0.00  0.00    +0.000 A 
ATOM     26  C   UNL     1     -10.551   1.047  22.113  0.00  0.00    +0.000 A 
ATOM     27  C   UNL     1      -8.955  -0.441  25.728  0.00  0.00    +0.000 C 
ATOM     28  O   UNL     1      -8.901  -1.488  26.365  0.00  0.00    +0.000 OA
ATOM     29  N   UNL     1      -8.736   0.816  26.306  0.00  0.00    +0.000 N 
ATOM     30  C   UNL     1      -8.951   1.975  25.450  0.00  0.00    +0.000 C 
ATOM     31  H   UNL     1     -12.243   2.475  18.372  0.00  0.00    +0.000 HD
ATOM     32  H   UNL     1     -12.467   0.215  17.797  0.00  0.00    +0.000 HD
ATOM     33  H   UNL     1     -10.711  -1.450  17.813  0.00  0.00    +0.000 HD
ATOM     34  H   UNL     1      -9.562  -0.371  18.510  0.00  0.00    +0.000 HD
ATOM     35  H   UNL     1     -11.605  -1.950  19.759  0.00  0.00    +0.000 HD
ATOM     36  H   UNL     1     -13.070   4.173  21.850  0.00  0.00    +0.000 HD
ATOM     37  H   UNL     1     -11.968   6.300  22.437  0.00  0.00    +0.000 HD
ATOM     38  H   UNL     1      -9.505   6.421  22.634  0.00  0.00    +0.000 HD
ATOM     39  H   UNL     1      -8.204   4.319  22.918  0.00  0.00    +0.000 HD
ATOM     40  H   UNL     1      -8.668  -3.380  24.340  0.00  0.00    +0.000 HD
ATOM     41  H   UNL     1      -7.520  -4.989  22.841  0.00  0.00    +0.000 HD
ATOM     42  H   UNL     1      -7.224  -4.473  20.445  0.00  0.00    +0.000 HD
ATOM     43  H   UNL     1      -8.470  -2.609  19.396  0.00  0.00    +0.000 HD
ATOM     44  H   UNL     1      -8.460   0.877  27.273  0.00  0.00    +0.000 HD
ATOM     45  H   UNL     1      -8.069   2.614  25.430  0.00  0.00    +0.000 HD
ATOM     46  H   UNL     1      -9.848   2.512  25.778  0.00  0.00    +0.000 HD
ENDROOT
BRANCH   6  47
ATOM     47  C   UNL     1     -13.634   1.775  20.281  0.00  0.00    +0.000 C 
ATOM     48  H   UNL     1     -14.018   2.049  19.291  0.00  0.00    +0.000 HD
ATOM     49  H   UNL     1     -13.780   2.638  20.926  0.00  0.00    +0.000 HD
ATOM     50  H   UNL     1     -14.277   0.962  20.643  0.00  0.00    +0.000 HD
ENDBRANCH   6  47
BRANCH   1  51
ATOM     51  O   UNL     1     -10.357   2.633  18.925  0.00  0.00    +0.000 OA
BRANCH  51  52
ATOM     52  C   UNL     1     -10.364   3.973  18.467  0.00  0.00    +0.000 C 
ATOM     53  H   UNL     1     -11.125   4.574  18.959  0.00  0.00    +0.000 HD
ATOM     54  H   UNL     1      -9.401   4.418  18.733  0.00  0.00    +0.000 HD
ATOM     55  H   UNL     1     -10.500   4.078  17.399  0.00  0.00    +0.000 HD
ENDBRANCH  51  52
ENDBRANCH   1  51
BRANCH   2  56
ATOM     56  N   UNL     1     -11.077   0.960  16.460  0.00  0.00    +0.000 NA
BRANCH  56  57
ATOM     57  C   UNL     1      -9.730   0.652  15.959  0.00  0.00    +0.000 C 
ATOM     58  H   UNL     1      -9.516   1.248  15.070  0.00  0.00    +0.000 HD
ATOM     59  H   UNL     1      -9.638  -0.382  15.618  0.00  0.00    +0.000 HD
ATOM     60  H   UNL     1      -8.974   0.810  16.730  0.00  0.00    +0.000 HD
ENDBRANCH  56  57
BRANCH  56  61
ATOM     61  S   UNL     1     -12.322   0.958  15.308  0.00  0.00    +0.000 S 
ATOM     62  O   UNL     1     -13.138   2.131  15.519  0.00  0.00    +0.000 OA
ATOM     63  O   UNL     1     -11.730   0.671  14.020  0.00  0.00    +0.000 OA
BRANCH  61  64
ATOM     64  C   UNL     1     -13.276  -0.456  15.828  0.00  0.00    +0.000 C 
ATOM     65  H   UNL     1     -13.651  -0.293  16.841  0.00  0.00    +0.000 HD
ATOM     66  H   UNL     1     -12.638  -1.338  15.799  0.00  0.00    +0.000 HD
ATOM     67  H   UNL     1     -14.121  -0.569  15.145  0.00  0.00    +0.000 HD
ENDBRANCH  61  64
ENDBRANCH  56  61
ENDBRANCH   2  56
TORSDOF 7
ENDMDL
MODEL 8
REMARK VINA RESULT:    -6.240      3.527      7.231
REMARK INTER + INTRA:          -8.827
REMARK INTER:                  -8.150
REMARK INTRA:                  -0.677
REMARK UNBOUND:                -0.763
REMARK  Name = 
REMARK  7 active torsions:
REMARK  status: ('A' for Active; 'I' for Inactive)
REMARK    1  A    between atoms: C_1  and  O_2
REMARK    2  A    between atoms: O_2  and  C_3
REMARK    3  A    between atoms: C_4  and  N_5
REMARK    4  A    between atoms: N_5  and  C_6
REMARK    5  A    between atoms: N_5  and  S_7
REMARK    6  A    between atoms: S_7  and  C_8
REMARK    7  A    between atoms: C_14  and  C_15
REMARK                            x       y       z     vdW  Elec       q    Type
REMARK                         _______ _______ _______ _____ _____    ______ ____
ROOT
ATOM      1  C   UNL     1     -11.517   1.349  17.989  0.00  0.00    +0.000 C 
ATOM      2  C   UNL     1     -11.429  -0.187  17.826  0.00  0.00    +0.000 C 
ATOM      3  C   UNL     1     -10.734  -0.849  19.003  0.00  0.00    +0.000 C 
ATOM      4  C   UNL     1     -11.419  -0.417  20.300  0.00  0.00    +0.000 C 
ATOM      5  O   UNL     1     -12.523   0.472  20.096  0.00  0.00    +0.000 OA
ATOM      6  C   UNL     1     -12.278   1.679  19.327  0.00  0.00    +0.000 C 
ATOM      7  N   UNL     1     -11.600   2.669  20.163  0.00  0.00    +0.000 N 
ATOM      8  C   UNL     1     -11.369   4.046  19.963  0.00  0.00    +0.000 A 
ATOM      9  C   UNL     1     -12.086   5.081  19.338  0.00  0.00    +0.000 A 
ATOM     10  C   UNL     1     -11.421   6.278  19.049  0.00  0.00    +0.000 A 
ATOM     11  C   UNL     1     -10.062   6.425  19.296  0.00  0.00    +0.000 A 
ATOM     12  C   UNL     1      -9.411   5.520  20.131  0.00  0.00    +0.000 A 
ATOM     13  C   UNL     1     -10.138   4.427  20.632  0.00  0.00    +0.000 A 
ATOM     14  C   UNL     1     -10.022   3.516  21.680  0.00  0.00    +0.000 A 
ATOM     15  C   UNL     1      -9.606   3.767  22.988  0.00  0.00    +0.000 A 
ATOM     16  C   UNL     1      -9.757   2.673  23.878  0.00  0.00    +0.000 A 
ATOM     17  C   UNL     1     -10.170   1.484  23.233  0.00  0.00    +0.000 A 
ATOM     18  C   UNL     1      -9.712   0.169  23.505  0.00  0.00    +0.000 A 
ATOM     19  C   UNL     1      -9.197  -0.514  24.622  0.00  0.00    +0.000 A 
ATOM     20  C   UNL     1      -8.539  -1.735  24.445  0.00  0.00    +0.000 A 
ATOM     21  C   UNL     1      -8.314  -2.248  23.170  0.00  0.00    +0.000 A 
ATOM     22  C   UNL     1      -8.930  -1.680  22.052  0.00  0.00    +0.000 A 
ATOM     23  C   UNL     1      -9.733  -0.544  22.239  0.00  0.00    +0.000 A 
ATOM     24  N   UNL     1     -10.571   0.117  21.331  0.00  0.00    +0.000 N 
ATOM     25  C   UNL     1     -10.647   1.319  21.943  0.00  0.00    +0.000 A 
ATOM     26  C   UNL     1     -10.810   2.469  21.229  0.00  0.00    +0.000 A 
ATOM     27  C   UNL     1      -9.538   3.132  25.201  0.00  0.00    +0.000 C 
ATOM     28  O   UNL     1      -9.581   2.588  26.299  0.00  0.00    +0.000 OA
ATOM     29  N   UNL     1      -9.293   4.501  25.036  0.00  0.00    +0.000 N 
ATOM     30  C   UNL     1      -9.390   5.024  23.680  0.00  0.00    +0.000 C 
ATOM     31  H   UNL     1     -12.173   1.687  17.175  0.00  0.00    +0.000 HD
ATOM     32  H   UNL     1     -12.475  -0.528  17.876  0.00  0.00    +0.000 HD
ATOM     33  H   UNL     1     -10.813  -1.941  18.924  0.00  0.00    +0.000 HD
ATOM     34  H   UNL     1      -9.658  -0.665  19.033  0.00  0.00    +0.000 HD
ATOM     35  H   UNL     1     -11.860  -1.315  20.754  0.00  0.00    +0.000 HD
ATOM     36  H   UNL     1     -13.140   4.989  19.131  0.00  0.00    +0.000 HD
ATOM     37  H   UNL     1     -11.971   7.091  18.586  0.00  0.00    +0.000 HD
ATOM     38  H   UNL     1      -9.523   7.279  18.894  0.00  0.00    +0.000 HD
ATOM     39  H   UNL     1      -8.356   5.644  20.362  0.00  0.00    +0.000 HD
ATOM     40  H   UNL     1      -9.312  -0.096  25.620  0.00  0.00    +0.000 HD
ATOM     41  H   UNL     1      -8.152  -2.266  25.312  0.00  0.00    +0.000 HD
ATOM     42  H   UNL     1      -7.670  -3.115  23.043  0.00  0.00    +0.000 HD
ATOM     43  H   UNL     1      -8.745  -2.091  21.063  0.00  0.00    +0.000 HD
ATOM     44  H   UNL     1      -9.079   5.068  25.841  0.00  0.00    +0.000 HD
ATOM     45  H   UNL     1      -8.477   5.546  23.397  0.00  0.00    +0.000 HD
ATOM     46  H   UNL     1     -10.278   5.660  23.595  0.00  0.00    +0.000 HD
ENDROOT
BRANCH   6  47
ATOM     47  C   UNL     1     -13.722   2.129  19.040  0.00  0.00    +0.000 C 
ATOM     48  H   UNL     1     -14.393   1.263  18.987  0.00  0.00    +0.000 HD
ATOM     49  H   UNL     1     -13.832   2.669  18.103  0.00  0.00    +0.000 HD
ATOM     50  H   UNL     1     -14.106   2.762  19.850  0.00  0.00    +0.000 HD
ENDBRANCH   6  47
BRANCH   1  51
ATOM     51  O   UNL     1     -10.322   2.101  17.716  0.00  0.00    +0.000 OA
BRANCH  51  52
ATOM     52  C   UNL     1     -10.233   2.997  16.624  0.00  0.00    +0.000 C 
ATOM     53  H   UNL     1      -9.257   2.970  16.145  0.00  0.00    +0.000 HD
ATOM     54  H   UNL     1     -10.956   2.674  15.870  0.00  0.00    +0.000 HD
ATOM     55  H   UNL     1     -10.447   4.028  16.875  0.00  0.00    +0.000 HD
ENDBRANCH  51  52
ENDBRANCH   1  51
BRANCH   2  56
ATOM     56  N   UNL     1     -10.962  -0.625  16.470  0.00  0.00    +0.000 NA
BRANCH  56  57
ATOM     57  C   UNL     1      -9.535  -0.915  16.268  0.00  0.00    +0.000 C 
ATOM     58  H   UNL     1      -9.393  -1.980  16.077  0.00  0.00    +0.000 HD
ATOM     59  H   UNL     1      -8.939  -0.720  17.162  0.00  0.00    +0.000 HD
ATOM     60  H   UNL     1      -9.118  -0.311  15.459  0.00  0.00    +0.000 HD
ENDBRANCH  56  57
BRANCH  56  61
ATOM     61  S   UNL     1     -12.048  -1.510  15.512  0.00  0.00    +0.000 S 
ATOM     62  O   UNL     1     -13.388  -1.069  15.821  0.00  0.00    +0.000 OA
ATOM     63  O   UNL     1     -11.543  -1.506  14.157  0.00  0.00    +0.000 OA
BRANCH  61  64
ATOM     64  C   UNL     1     -11.855  -3.148  16.190  0.00  0.00    +0.000 C 
ATOM     65  H   UNL     1     -11.390  -3.799  15.448  0.00  0.00    +0.000 HD
ATOM     66  H   UNL     1     -12.838  -3.530  16.465  0.00  0.00    +0.000 HD
ATOM     67  H   UNL     1     -11.209  -3.081  17.068  0.00  0.00    +0.000 HD
ENDBRANCH  61  64
ENDBRANCH  56  61
ENDBRANCH   2  56
TORSDOF 7
ENDMDL
MODEL 9
REMARK VINA RESULT:    -6.152      4.630      7.152
REMARK INTER + INTRA:          -8.713
REMARK INTER:                  -8.028
REMARK INTRA:                  -0.686
REMARK UNBOUND:                -0.763
REMARK  Name = 
REMARK  7 active torsions:
REMARK  status: ('A' for Active; 'I' for Inactive)
REMARK    1  A    between atoms: C_1  and  O_2
REMARK    2  A    between atoms: O_2  and  C_3
REMARK    3  A    between atoms: C_4  and  N_5
REMARK    4  A    between atoms: N_5  and  C_6
REMARK    5  A    between atoms: N_5  and  S_7
REMARK    6  A    between atoms: S_7  and  C_8
REMARK    7  A    between atoms: C_14  and  C_15
REMARK                            x       y       z     vdW  Elec       q    Type
REMARK                         _______ _______ _______ _____ _____    ______ ____
ROOT
ATOM      1  C   UNL     1     -11.863   1.571  18.715  0.00  0.00    +0.000 C 
ATOM      2  C   UNL     1     -11.297   0.720  19.876  0.00  0.00    +0.000 C 
ATOM      3  C   UNL     1     -11.210  -0.754  19.516  0.00  0.00    +0.000 C 
ATOM      4  C   UNL     1     -10.422  -0.908  18.214  0.00  0.00    +0.000 C 
ATOM      5  O   UNL     1      -9.963   0.336  17.673  0.00  0.00    +0.000 OA
ATOM      6  C   UNL     1     -10.952   1.374  17.445  0.00  0.00    +0.000 C 
ATOM      7  N   UNL     1     -11.700   1.086  16.222  0.00  0.00    +0.000 N 
ATOM      8  C   UNL     1     -12.575   1.889  15.461  0.00  0.00    +0.000 A 
ATOM      9  C   UNL     1     -12.637   3.261  15.163  0.00  0.00    +0.000 A 
ATOM     10  C   UNL     1     -13.822   3.777  14.625  0.00  0.00    +0.000 A 
ATOM     11  C   UNL     1     -14.946   2.978  14.460  0.00  0.00    +0.000 A 
ATOM     12  C   UNL     1     -14.821   1.592  14.511  0.00  0.00    +0.000 A 
ATOM     13  C   UNL     1     -13.564   1.044  14.817  0.00  0.00    +0.000 A 
ATOM     14  C   UNL     1     -12.921  -0.184  14.671  0.00  0.00    +0.000 A 
ATOM     15  C   UNL     1     -12.968  -1.049  13.576  0.00  0.00    +0.000 A 
ATOM     16  C   UNL     1     -12.071  -2.144  13.647  0.00  0.00    +0.000 A 
ATOM     17  C   UNL     1     -11.395  -2.231  14.886  0.00  0.00    +0.000 A 
ATOM     18  C   UNL     1     -11.101  -3.415  15.610  0.00  0.00    +0.000 A 
ATOM     19  C   UNL     1     -10.873  -4.766  15.293  0.00  0.00    +0.000 A 
ATOM     20  C   UNL     1     -10.930  -5.734  16.302  0.00  0.00    +0.000 A 
ATOM     21  C   UNL     1     -11.290  -5.390  17.602  0.00  0.00    +0.000 A 
ATOM     22  C   UNL     1     -11.383  -4.052  17.989  0.00  0.00    +0.000 A 
ATOM     23  C   UNL     1     -11.163  -3.061  17.019  0.00  0.00    +0.000 A 
ATOM     24  N   UNL     1     -11.046  -1.674  17.169  0.00  0.00    +0.000 N 
ATOM     25  C   UNL     1     -11.329  -1.294  15.904  0.00  0.00    +0.000 A 
ATOM     26  C   UNL     1     -11.934  -0.101  15.641  0.00  0.00    +0.000 A 
ATOM     27  C   UNL     1     -12.043  -2.787  12.384  0.00  0.00    +0.000 C 
ATOM     28  O   UNL     1     -11.416  -3.744  11.941  0.00  0.00    +0.000 OA
ATOM     29  N   UNL     1     -12.915  -2.017  11.604  0.00  0.00    +0.000 N 
ATOM     30  C   UNL     1     -13.495  -0.843  12.240  0.00  0.00    +0.000 C 
ATOM     31  H   UNL     1     -11.723   2.614  19.029  0.00  0.00    +0.000 HD
ATOM     32  H   UNL     1     -10.254   1.056  19.980  0.00  0.00    +0.000 HD
ATOM     33  H   UNL     1     -10.679  -1.304  20.302  0.00  0.00    +0.000 HD
ATOM     34  H   UNL     1     -12.182  -1.247  19.461  0.00  0.00    +0.000 HD
ATOM     35  H   UNL     1      -9.508  -1.469  18.448  0.00  0.00    +0.000 HD
ATOM     36  H   UNL     1     -11.780   3.903  15.287  0.00  0.00    +0.000 HD
ATOM     37  H   UNL     1     -13.873   4.832  14.372  0.00  0.00    +0.000 HD
ATOM     38  H   UNL     1     -15.907   3.429  14.226  0.00  0.00    +0.000 HD
ATOM     39  H   UNL     1     -15.685   0.954  14.348  0.00  0.00    +0.000 HD
ATOM     40  H   UNL     1     -10.649  -5.058  14.269  0.00  0.00    +0.000 HD
ATOM     41  H   UNL     1     -10.742  -6.776  16.055  0.00  0.00    +0.000 HD
ATOM     42  H   UNL     1     -11.479  -6.173  18.333  0.00  0.00    +0.000 HD
ATOM     43  H   UNL     1     -11.665  -3.799  19.008  0.00  0.00    +0.000 HD
ATOM     44  H   UNL     1     -13.094  -2.285  10.649  0.00  0.00    +0.000 HD
ATOM     45  H   UNL     1     -14.583  -0.862  12.174  0.00  0.00    +0.000 HD
ATOM     46  H   UNL     1     -13.066   0.063  11.799  0.00  0.00    +0.000 HD
ENDROOT
BRANCH   6  47
ATOM     47  C   UNL     1     -10.038   2.594  17.232  0.00  0.00    +0.000 C 
ATOM     48  H   UNL     1      -8.995   2.339  17.456  0.00  0.00    +0.000 HD
ATOM     49  H   UNL     1     -10.295   3.446  17.856  0.00  0.00    +0.000 HD
ATOM     50  H   UNL     1     -10.052   2.918  16.183  0.00  0.00    +0.000 HD
ENDBRANCH   6  47
BRANCH   1  51
ATOM     51  O   UNL     1     -13.285   1.529  18.510  0.00  0.00    +0.000 OA
BRANCH  51  52
ATOM     52  C   UNL     1     -14.106   2.666  18.707  0.00  0.00    +0.000 C 
ATOM     53  H   UNL     1     -14.306   2.854  19.760  0.00  0.00    +0.000 HD
ATOM     54  H   UNL     1     -13.559   3.538  18.337  0.00  0.00    +0.000 HD
ATOM     55  H   UNL     1     -15.058   2.623  18.194  0.00  0.00    +0.000 HD
ENDBRANCH  51  52
ENDBRANCH   1  51
BRANCH   2  56
ATOM     56  N   UNL     1     -11.919   1.024  21.206  0.00  0.00    +0.000 NA
BRANCH  56  57
ATOM     57  C   UNL     1     -12.840   0.045  21.803  0.00  0.00    +0.000 C 
ATOM     58  H   UNL     1     -13.865   0.263  21.500  0.00  0.00    +0.000 HD
ATOM     59  H   UNL     1     -12.862   0.104  22.893  0.00  0.00    +0.000 HD
ATOM     60  H   UNL     1     -12.560  -0.976  21.537  0.00  0.00    +0.000 HD
ENDBRANCH  56  57
BRANCH  56  61
ATOM     61  S   UNL     1     -11.024   1.968  22.295  0.00  0.00    +0.000 S 
ATOM     62  O   UNL     1     -10.149   2.831  21.535  0.00  0.00    +0.000 OA
ATOM     63  O   UNL     1     -11.943   2.498  23.277  0.00  0.00    +0.000 OA
BRANCH  61  64
ATOM     64  C   UNL     1     -10.005   0.729  23.074  0.00  0.00    +0.000 C 
ATOM     65  H   UNL     1     -10.622  -0.123  23.366  0.00  0.00    +0.000 HD
ATOM     66  H   UNL     1      -9.529   1.168  23.951  0.00  0.00    +0.000 HD
ATOM     67  H   UNL     1      -9.253   0.401  22.353  0.00  0.00    +0.000 HD
ENDBRANCH  61  64
ENDBRANCH  56  61
ENDBRANCH   2  56
TORSDOF 7
ENDMDL
