MODEL 1
REMARK VINA RESULT:   -12.160      0.000      0.000
REMARK INTER + INTRA:         -17.534
REMARK INTER:                 -16.781
REMARK INTRA:                  -0.753
REMARK UNBOUND:                -0.753
REMARK  Name = 
REMARK  7 active torsions:
REMARK  status: ('A' for Active; 'I' for Inactive)
REMARK    1  A    between atoms: N_1  and  C_2
REMARK    2  A    between atoms: C_2  and  C_3
REMARK    3  A    between atoms: C_2  and  C_20
REMARK    4  A    between atoms: C_3  and  O_4
REMARK    5  A    between atoms: O_4  and  C_5
REMARK    6  A    between atoms: C_9  and  C_10
REMARK    7  A    between atoms: C_20  and  C_21
REMARK                            x       y       z     vdW  Elec       q    Type
REMARK                         _______ _______ _______ _____ _____    ______ ____
ROOT
ATOM      1  C   UNL     1      -8.514  -5.914  18.282  0.00  0.00    +0.000 C 
ATOM      2  H   UNL     1      -8.339  -5.859  17.201  0.00  0.00    +0.000 HD
ATOM      3  H   UNL     1      -8.857  -4.938  18.646  0.00  0.00    +0.000 HD
ENDROOT
BRANCH   1   4
ATOM      4  C   UNL     1      -9.613  -6.958  18.572  0.00  0.00    +0.000 C 
ATOM      5  H   UNL     1      -9.355  -7.464  19.510  0.00  0.00    +0.000 HD
BRANCH   4   6
ATOM      6  N   UNL     1     -10.899  -6.267  18.793  0.00  0.00    +0.000 NA
ATOM      7  H   UNL     1     -11.142  -5.753  17.943  0.00  0.00    +0.000 HD
ATOM      8  H   UNL     1     -10.755  -5.551  19.508  0.00  0.00    +0.000 HD
ENDBRANCH   4   6
BRANCH   4   9
ATOM      9  C   UNL     1      -9.670  -8.006  17.434  0.00  0.00    +0.000 C 
ATOM     10  H   UNL     1      -9.038  -7.662  16.604  0.00  0.00    +0.000 HD
ATOM     11  H   UNL     1     -10.686  -8.082  17.027  0.00  0.00    +0.000 HD
BRANCH   9  12
ATOM     12  C   UNL     1      -9.208  -9.370  17.851  0.00  0.00    +0.000 A 
ATOM     13  C   UNL     1      -8.878  -9.770  19.131  0.00  0.00    +0.000 A 
ATOM     14  N   UNL     1      -8.513 -11.089  19.088  0.00  0.00    +0.000 N 
ATOM     15  C   UNL     1      -8.602 -11.565  17.800  0.00  0.00    +0.000 A 
ATOM     16  C   UNL     1      -8.340 -12.844  17.290  0.00  0.00    +0.000 A 
ATOM     17  C   UNL     1      -8.530 -13.047  15.920  0.00  0.00    +0.000 A 
ATOM     18  C   UNL     1      -8.962 -12.012  15.094  0.00  0.00    +0.000 A 
ATOM     19  C   UNL     1      -9.212 -10.740  15.619  0.00  0.00    +0.000 A 
ATOM     20  C   UNL     1      -9.033 -10.509  16.999  0.00  0.00    +0.000 A 
ATOM     21  H   UNL     1      -8.870  -9.229  20.067  0.00  0.00    +0.000 HD
ATOM     22  H   UNL     1      -8.224 -11.641  19.884  0.00  0.00    +0.000 HD
ATOM     23  H   UNL     1      -8.005 -13.651  17.930  0.00  0.00    +0.000 HD
ATOM     24  H   UNL     1      -8.337 -14.028  15.494  0.00  0.00    +0.000 HD
ATOM     25  H   UNL     1      -9.108 -12.193  14.032  0.00  0.00    +0.000 HD
ATOM     26  H   UNL     1      -9.548  -9.942  14.963  0.00  0.00    +0.000 HD
ENDBRANCH   9  12
ENDBRANCH   4   9
ENDBRANCH   1   4
BRANCH   1  27
ATOM     27  O   UNL     1      -7.302  -6.288  18.952  0.00  0.00    +0.000 OA
BRANCH  27  28
ATOM     28  C   UNL     1      -6.788  -5.378  19.828  0.00  0.00    +0.000 A 
ATOM     29  C   UNL     1      -5.405  -5.247  19.843  0.00  0.00    +0.000 A 
ATOM     30  N   UNL     1      -4.726  -4.412  20.661  0.00  0.00    +0.000 NA
ATOM     31  C   UNL     1      -5.473  -3.682  21.521  0.00  0.00    +0.000 A 
ATOM     32  C   UNL     1      -6.869  -3.718  21.604  0.00  0.00    +0.000 A 
ATOM     33  C   UNL     1      -7.519  -4.590  20.715  0.00  0.00    +0.000 A 
ATOM     34  H   UNL     1      -4.784  -5.840  19.179  0.00  0.00    +0.000 HD
ATOM     35  H   UNL     1      -4.883  -3.062  22.192  0.00  0.00    +0.000 HD
ATOM     36  H   UNL     1      -8.602  -4.645  20.759  0.00  0.00    +0.000 HD
BRANCH  32  37
ATOM     37  C   UNL     1      -7.609  -2.955  22.612  0.00  0.00    +0.000 A 
ATOM     38  C   UNL     1      -7.633  -1.559  22.614  0.00  0.00    +0.000 A 
ATOM     39  C   UNL     1      -8.182  -0.942  23.740  0.00  0.00    +0.000 A 
ATOM     40  C   UNL     1      -8.356   0.383  24.193  0.00  0.00    +0.000 A 
ATOM     41  N   UNL     1      -8.904   0.441  25.410  0.00  0.00    +0.000 NA
ATOM     42  N   UNL     1      -9.092  -0.853  25.731  0.00  0.00    +0.000 N 
ATOM     43  C   UNL     1      -8.706  -1.730  24.752  0.00  0.00    +0.000 A 
ATOM     44  C   UNL     1      -8.754  -3.107  24.668  0.00  0.00    +0.000 A 
ATOM     45  N   UNL     1      -8.194  -3.704  23.590  0.00  0.00    +0.000 NA
ATOM     46  H   UNL     1      -7.203  -0.972  21.810  0.00  0.00    +0.000 HD
ATOM     47  H   UNL     1      -8.089   1.304  23.689  0.00  0.00    +0.000 HD
ATOM     48  H   UNL     1      -9.468  -1.069  26.647  0.00  0.00    +0.000 HD
ATOM     49  H   UNL     1      -9.186  -3.750  25.424  0.00  0.00    +0.000 HD
ENDBRANCH  32  37
ENDBRANCH  27  28
ENDBRANCH   1  27
TORSDOF 7
ENDMDL
MODEL 2
REMARK VINA RESULT:   -11.784      0.923      1.373
REMARK INTER + INTRA:         -17.016
REMARK INTER:                 -16.255
REMARK INTRA:                  -0.761
REMARK UNBOUND:                -0.753
REMARK  Name = 
REMARK  7 active torsions:
REMARK  status: ('A' for Active; 'I' for Inactive)
REMARK    1  A    between atoms: N_1  and  C_2
REMARK    2  A    between atoms: C_2  and  C_3
REMARK    3  A    between atoms: C_2  and  C_20
REMARK    4  A    between atoms: C_3  and  O_4
REMARK    5  A    between atoms: O_4  and  C_5
REMARK    6  A    between atoms: C_9  and  C_10
REMARK    7  A    between atoms: C_20  and  C_21
REMARK                            x       y       z     vdW  Elec       q    Type
REMARK                         _______ _______ _______ _____ _____    ______ ____
ROOT
ATOM      1  C   UNL     1      -9.572  -6.070  18.625  0.00  0.00    +0.000 C 
ATOM      2  H   UNL     1      -9.916  -5.238  17.999  0.00  0.00    +0.000 HD
ATOM      3  H   UNL     1      -9.823  -5.866  19.673  0.00  0.00    +0.000 HD
ENDROOT
BRANCH   1   4
ATOM      4  C   UNL     1     -10.287  -7.367  18.193  0.00  0.00    +0.000 C 
ATOM      5  H   UNL     1     -10.458  -7.971  19.093  0.00  0.00    +0.000 HD
BRANCH   4   6
ATOM      6  N   UNL     1     -11.615  -7.033  17.640  0.00  0.00    +0.000 NA
ATOM      7  H   UNL     1     -11.520  -6.891  16.632  0.00  0.00    +0.000 HD
ATOM      8  H   UNL     1     -11.894  -6.123  18.012  0.00  0.00    +0.000 HD
ENDBRANCH   4   6
BRANCH   4   9
ATOM      9  C   UNL     1      -9.399  -8.167  17.210  0.00  0.00    +0.000 C 
ATOM     10  H   UNL     1      -8.466  -7.613  17.045  0.00  0.00    +0.000 HD
ATOM     11  H   UNL     1      -9.881  -8.246  16.227  0.00  0.00    +0.000 HD
BRANCH   9  12
ATOM     12  C   UNL     1      -9.057  -9.544  17.697  0.00  0.00    +0.000 A 
ATOM     13  C   UNL     1      -8.848  -9.924  19.008  0.00  0.00    +0.000 A 
ATOM     14  N   UNL     1      -8.564 -11.263  19.026  0.00  0.00    +0.000 N 
ATOM     15  C   UNL     1      -8.588 -11.772  17.748  0.00  0.00    +0.000 A 
ATOM     16  C   UNL     1      -8.370 -13.079  17.293  0.00  0.00    +0.000 A 
ATOM     17  C   UNL     1      -8.470 -13.312  15.918  0.00  0.00    +0.000 A 
ATOM     18  C   UNL     1      -8.775 -12.279  15.035  0.00  0.00    +0.000 A 
ATOM     19  C   UNL     1      -8.982 -10.979  15.507  0.00  0.00    +0.000 A 
ATOM     20  C   UNL     1      -8.891 -10.717  16.890  0.00  0.00    +0.000 A 
ATOM     21  H   UNL     1      -8.874  -9.356  19.927  0.00  0.00    +0.000 HD
ATOM     22  H   UNL     1      -8.369 -11.807  19.856  0.00  0.00    +0.000 HD
ATOM     23  H   UNL     1      -8.134 -13.886  17.977  0.00  0.00    +0.000 HD
ATOM     24  H   UNL     1      -8.308 -14.316  15.534  0.00  0.00    +0.000 HD
ATOM     25  H   UNL     1      -8.852 -12.483  13.970  0.00  0.00    +0.000 HD
ATOM     26  H   UNL     1      -9.218 -10.182  14.807  0.00  0.00    +0.000 HD
ENDBRANCH   9  12
ENDBRANCH   4   9
ENDBRANCH   1   4
BRANCH   1  27
ATOM     27  O   UNL     1      -8.153  -6.229  18.484  0.00  0.00    +0.000 OA
BRANCH  27  28
ATOM     28  C   UNL     1      -7.375  -5.527  19.357  0.00  0.00    +0.000 A 
ATOM     29  C   UNL     1      -6.003  -5.724  19.258  0.00  0.00    +0.000 A 
ATOM     30  N   UNL     1      -5.086  -5.130  20.054  0.00  0.00    +0.000 NA
ATOM     31  C   UNL     1      -5.573  -4.306  21.010  0.00  0.00    +0.000 A 
ATOM     32  C   UNL     1      -6.928  -4.022  21.213  0.00  0.00    +0.000 A 
ATOM     33  C   UNL     1      -7.830  -4.654  20.342  0.00  0.00    +0.000 A 
ATOM     34  H   UNL     1      -5.592  -6.399  18.513  0.00  0.00    +0.000 HD
ATOM     35  H   UNL     1      -4.805  -3.890  21.658  0.00  0.00    +0.000 HD
ATOM     36  H   UNL     1      -8.889  -4.457  20.478  0.00  0.00    +0.000 HD
BRANCH  32  37
ATOM     37  C   UNL     1      -7.389  -3.178  22.320  0.00  0.00    +0.000 A 
ATOM     38  C   UNL     1      -7.680  -3.705  23.579  0.00  0.00    +0.000 A 
ATOM     39  C   UNL     1      -8.317  -2.853  24.484  0.00  0.00    +0.000 A 
ATOM     40  C   UNL     1      -8.838  -2.959  25.791  0.00  0.00    +0.000 A 
ATOM     41  N   UNL     1      -9.422  -1.830  26.204  0.00  0.00    +0.000 NA
ATOM     42  N   UNL     1      -9.262  -0.995  25.160  0.00  0.00    +0.000 N 
ATOM     43  C   UNL     1      -8.577  -1.545  24.109  0.00  0.00    +0.000 A 
ATOM     44  C   UNL     1      -8.183  -1.033  22.889  0.00  0.00    +0.000 A 
ATOM     45  N   UNL     1      -7.593  -1.869  22.003  0.00  0.00    +0.000 NA
ATOM     46  H   UNL     1      -7.474  -4.738  23.837  0.00  0.00    +0.000 HD
ATOM     47  H   UNL     1      -8.828  -3.819  26.449  0.00  0.00    +0.000 HD
ATOM     48  H   UNL     1      -9.667  -0.068  25.222  0.00  0.00    +0.000 HD
ATOM     49  H   UNL     1      -8.339  -0.008  22.577  0.00  0.00    +0.000 HD
ENDBRANCH  32  37
ENDBRANCH  27  28
ENDBRANCH   1  27
TORSDOF 7
ENDMDL
MODEL 3
REMARK VINA RESULT:   -11.677      1.180      1.613
REMARK INTER + INTRA:         -16.867
REMARK INTER:                 -16.166
REMARK INTRA:                  -0.701
REMARK UNBOUND:                -0.753
REMARK  Name = 
REMARK  7 active torsions:
REMARK  status: ('A' for Active; 'I' for Inactive)
REMARK    1  A    between atoms: N_1  and  C_2
REMARK    2  A    between atoms: C_2  and  C_3
REMARK    3  A    between atoms: C_2  and  C_20
REMARK    4  A    between atoms: C_3  and  O_4
REMARK    5  A    between atoms: O_4  and  C_5
REMARK    6  A    between atoms: C_9  and  C_10
REMARK    7  A    between atoms: C_20  and  C_21
REMARK                            x       y       z     vdW  Elec       q    Type
REMARK                         _______ _______ _______ _____ _____    ______ ____
ROOT
ATOM      1  C   UNL     1      -8.395  -6.465  18.789  0.00  0.00    +0.000 C 
ATOM      2  H   UNL     1      -8.826  -6.056  17.866  0.00  0.00    +0.000 HD
ATOM      3  H   UNL     1      -8.860  -5.976  19.655  0.00  0.00    +0.000 HD
ENDROOT
BRANCH   1   4
ATOM      4  C   UNL     1      -8.687  -7.977  18.866  0.00  0.00    +0.000 C 
ATOM      5  H   UNL     1      -7.805  -8.508  18.487  0.00  0.00    +0.000 HD
BRANCH   4   6
ATOM      6  N   UNL     1      -8.855  -8.374  20.279  0.00  0.00    +0.000 NA
ATOM      7  H   UNL     1      -9.621  -7.827  20.680  0.00  0.00    +0.000 HD
ATOM      8  H   UNL     1      -8.021  -8.081  20.791  0.00  0.00    +0.000 HD
ENDBRANCH   4   6
BRANCH   4   9
ATOM      9  C   UNL     1      -9.907  -8.333  17.982  0.00  0.00    +0.000 C 
ATOM     10  H   UNL     1     -10.380  -7.403  17.641  0.00  0.00    +0.000 HD
ATOM     11  H   UNL     1     -10.670  -8.861  18.568  0.00  0.00    +0.000 HD
BRANCH   9  12
ATOM     12  C   UNL     1      -9.557  -9.160  16.781  0.00  0.00    +0.000 A 
ATOM     13  C   UNL     1      -9.547  -8.737  15.466  0.00  0.00    +0.000 A 
ATOM     14  N   UNL     1      -9.168  -9.790  14.679  0.00  0.00    +0.000 N 
ATOM     15  C   UNL     1      -8.922 -10.900  15.455  0.00  0.00    +0.000 A 
ATOM     16  C   UNL     1      -8.505 -12.185  15.086  0.00  0.00    +0.000 A 
ATOM     17  C   UNL     1      -8.323 -13.125  16.104  0.00  0.00    +0.000 A 
ATOM     18  C   UNL     1      -8.550 -12.793  17.437  0.00  0.00    +0.000 A 
ATOM     19  C   UNL     1      -8.973 -11.507  17.787  0.00  0.00    +0.000 A 
ATOM     20  C   UNL     1      -9.161 -10.537  16.779  0.00  0.00    +0.000 A 
ATOM     21  H   UNL     1      -9.780  -7.778  15.026  0.00  0.00    +0.000 HD
ATOM     22  H   UNL     1      -9.074  -9.763  13.673  0.00  0.00    +0.000 HD
ATOM     23  H   UNL     1      -8.326 -12.448  14.050  0.00  0.00    +0.000 HD
ATOM     24  H   UNL     1      -7.998 -14.131  15.850  0.00  0.00    +0.000 HD
ATOM     25  H   UNL     1      -8.398 -13.538  18.214  0.00  0.00    +0.000 HD
ATOM     26  H   UNL     1      -9.147 -11.261  18.830  0.00  0.00    +0.000 HD
ENDBRANCH   9  12
ENDBRANCH   4   9
ENDBRANCH   1   4
BRANCH   1  27
ATOM     27  O   UNL     1      -6.979  -6.243  18.803  0.00  0.00    +0.000 OA
BRANCH  27  28
ATOM     28  C   UNL     1      -6.516  -5.336  19.711  0.00  0.00    +0.000 A 
ATOM     29  C   UNL     1      -5.138  -5.169  19.772  0.00  0.00    +0.000 A 
ATOM     30  N   UNL     1      -4.506  -4.332  20.625  0.00  0.00    +0.000 NA
ATOM     31  C   UNL     1      -5.298  -3.637  21.473  0.00  0.00    +0.000 A 
ATOM     32  C   UNL     1      -6.695  -3.711  21.512  0.00  0.00    +0.000 A 
ATOM     33  C   UNL     1      -7.294  -4.583  20.588  0.00  0.00    +0.000 A 
ATOM     34  H   UNL     1      -4.482  -5.734  19.118  0.00  0.00    +0.000 HD
ATOM     35  H   UNL     1      -4.746  -3.015  22.173  0.00  0.00    +0.000 HD
ATOM     36  H   UNL     1      -8.377  -4.666  20.597  0.00  0.00    +0.000 HD
BRANCH  32  37
ATOM     37  C   UNL     1      -7.486  -2.985  22.510  0.00  0.00    +0.000 A 
ATOM     38  C   UNL     1      -7.553  -1.591  22.530  0.00  0.00    +0.000 A 
ATOM     39  C   UNL     1      -8.151  -1.007  23.648  0.00  0.00    +0.000 A 
ATOM     40  C   UNL     1      -8.378   0.305  24.114  0.00  0.00    +0.000 A 
ATOM     41  N   UNL     1      -8.961   0.329  25.316  0.00  0.00    +0.000 NA
ATOM     42  N   UNL     1      -9.118  -0.975  25.614  0.00  0.00    +0.000 N 
ATOM     43  C   UNL     1      -8.678  -1.825  24.634  0.00  0.00    +0.000 A 
ATOM     44  C   UNL     1      -8.681  -3.201  24.530  0.00  0.00    +0.000 A 
ATOM     45  N   UNL     1      -8.074  -3.765  23.460  0.00  0.00    +0.000 NA
ATOM     46  H   UNL     1      -7.119  -0.979  21.747  0.00  0.00    +0.000 HD
ATOM     47  H   UNL     1      -8.126   1.241  23.631  0.00  0.00    +0.000 HD
ATOM     48  H   UNL     1      -9.511  -1.215  26.516  0.00  0.00    +0.000 HD
ATOM     49  H   UNL     1      -9.114  -3.869  25.265  0.00  0.00    +0.000 HD
ENDBRANCH  32  37
ENDBRANCH  27  28
ENDBRANCH   1  27
TORSDOF 7
ENDMDL
MODEL 4
REMARK VINA RESULT:   -11.149      1.078      1.118
REMARK INTER + INTRA:         -16.139
REMARK INTER:                 -15.327
REMARK INTRA:                  -0.811
REMARK UNBOUND:                -0.753
REMARK  Name = 
REMARK  7 active torsions:
REMARK  status: ('A' for Active; 'I' for Inactive)
REMARK    1  A    between atoms: N_1  and  C_2
REMARK    2  A    between atoms: C_2  and  C_3
REMARK    3  A    between atoms: C_2  and  C_20
REMARK    4  A    between atoms: C_3  and  O_4
REMARK    5  A    between atoms: O_4  and  C_5
REMARK    6  A    between atoms: C_9  and  C_10
REMARK    7  A    between atoms: C_20  and  C_21
REMARK                            x       y       z     vdW  Elec       q    Type
REMARK                         _______ _______ _______ _____ _____    ______ ____
ROOT
ATOM      1  C   UNL     1      -9.247  -6.012  17.458  0.00  0.00    +0.000 C 
ATOM      2  H   UNL     1      -9.255  -5.650  16.422  0.00  0.00    +0.000 HD
ATOM      3  H   UNL     1      -9.591  -5.212  18.126  0.00  0.00    +0.000 HD
ENDROOT
BRANCH   1   4
ATOM      4  C   UNL     1     -10.211  -7.209  17.590  0.00  0.00    +0.000 C 
ATOM      5  H   UNL     1     -10.117  -7.604  18.609  0.00  0.00    +0.000 HD
BRANCH   4   6
ATOM      6  N   UNL     1     -11.603  -6.737  17.438  0.00  0.00    +0.000 NA
ATOM      7  H   UNL     1     -12.209  -7.324  18.015  0.00  0.00    +0.000 HD
ATOM      8  H   UNL     1     -11.894  -6.917  16.475  0.00  0.00    +0.000 HD
ENDBRANCH   4   6
BRANCH   4   9
ATOM      9  C   UNL     1      -9.829  -8.319  16.582  0.00  0.00    +0.000 C 
ATOM     10  H   UNL     1      -9.042  -7.938  15.918  0.00  0.00    +0.000 HD
ATOM     11  H   UNL     1     -10.678  -8.564  15.933  0.00  0.00    +0.000 HD
BRANCH   9  12
ATOM     12  C   UNL     1      -9.335  -9.577  17.234  0.00  0.00    +0.000 A 
ATOM     13  C   UNL     1      -9.073  -9.758  18.578  0.00  0.00    +0.000 A 
ATOM     14  N   UNL     1      -8.648 -11.046  18.762  0.00  0.00    +0.000 N 
ATOM     15  C   UNL     1      -8.630 -11.718  17.561  0.00  0.00    +0.000 A 
ATOM     16  C   UNL     1      -8.278 -13.043  17.273  0.00  0.00    +0.000 A 
ATOM     17  C   UNL     1      -8.367 -13.463  15.943  0.00  0.00    +0.000 A 
ATOM     18  C   UNL     1      -8.790 -12.593  14.942  0.00  0.00    +0.000 A 
ATOM     19  C   UNL     1      -9.130 -11.271  15.247  0.00  0.00    +0.000 A 
ATOM     20  C   UNL     1      -9.053 -10.821  16.582  0.00  0.00    +0.000 A 
ATOM     21  H   UNL     1      -9.151  -9.080  19.416  0.00  0.00    +0.000 HD
ATOM     22  H   UNL     1      -8.387 -11.453  19.650  0.00  0.00    +0.000 HD
ATOM     23  H   UNL     1      -7.950 -13.724  18.050  0.00  0.00    +0.000 HD
ATOM     24  H   UNL     1      -8.103 -14.486  15.688  0.00  0.00    +0.000 HD
ATOM     25  H   UNL     1      -8.856 -12.941  13.914  0.00  0.00    +0.000 HD
ATOM     26  H   UNL     1      -9.457 -10.602  14.456  0.00  0.00    +0.000 HD
ENDBRANCH   9  12
ENDBRANCH   4   9
ENDBRANCH   1   4
BRANCH   1  27
ATOM     27  O   UNL     1      -7.920  -6.416  17.820  0.00  0.00    +0.000 OA
BRANCH  27  28
ATOM     28  C   UNL     1      -7.333  -5.725  18.839  0.00  0.00    +0.000 A 
ATOM     29  C   UNL     1      -5.965  -5.907  19.003  0.00  0.00    +0.000 A 
ATOM     30  N   UNL     1      -5.226  -5.321  19.971  0.00  0.00    +0.000 NA
ATOM     31  C   UNL     1      -5.898  -4.522  20.831  0.00  0.00    +0.000 A 
ATOM     32  C   UNL     1      -7.270  -4.253  20.774  0.00  0.00    +0.000 A 
ATOM     33  C   UNL     1      -7.979  -4.876  19.735  0.00  0.00    +0.000 A 
ATOM     34  H   UNL     1      -5.410  -6.563  18.339  0.00  0.00    +0.000 HD
ATOM     35  H   UNL     1      -5.275  -4.112  21.622  0.00  0.00    +0.000 HD
ATOM     36  H   UNL     1      -9.048  -4.692  19.667  0.00  0.00    +0.000 HD
BRANCH  32  37
ATOM     37  C   UNL     1      -7.946  -3.437  21.786  0.00  0.00    +0.000 A 
ATOM     38  C   UNL     1      -8.674  -2.295  21.450  0.00  0.00    +0.000 A 
ATOM     39  C   UNL     1      -9.087  -1.479  22.506  0.00  0.00    +0.000 A 
ATOM     40  C   UNL     1      -9.761  -0.248  22.639  0.00  0.00    +0.000 A 
ATOM     41  N   UNL     1      -9.861   0.148  23.911  0.00  0.00    +0.000 NA
ATOM     42  N   UNL     1      -9.258  -0.843  24.595  0.00  0.00    +0.000 N 
ATOM     43  C   UNL     1      -8.800  -1.864  23.806  0.00  0.00    +0.000 A 
ATOM     44  C   UNL     1      -8.165  -3.053  24.102  0.00  0.00    +0.000 A 
ATOM     45  N   UNL     1      -7.739  -3.826  23.076  0.00  0.00    +0.000 NA
ATOM     46  H   UNL     1      -8.871  -2.016  20.421  0.00  0.00    +0.000 HD
ATOM     47  H   UNL     1     -10.168   0.382  21.857  0.00  0.00    +0.000 HD
ATOM     48  H   UNL     1      -9.171  -0.746  25.600  0.00  0.00    +0.000 HD
ATOM     49  H   UNL     1      -7.955  -3.400  25.106  0.00  0.00    +0.000 HD
ENDBRANCH  32  37
ENDBRANCH  27  28
ENDBRANCH   1  27
TORSDOF 7
ENDMDL
MODEL 5
REMARK VINA RESULT:   -10.985      2.549      4.885
REMARK INTER + INTRA:         -15.912
REMARK INTER:                 -15.144
REMARK INTRA:                  -0.767
REMARK UNBOUND:                -0.753
REMARK  Name = 
REMARK  7 active torsions:
REMARK  status: ('A' for Active; 'I' for Inactive)
REMARK    1  A    between atoms: N_1  and  C_2
REMARK    2  A    between atoms: C_2  and  C_3
REMARK    3  A    between atoms: C_2  and  C_20
REMARK    4  A    between atoms: C_3  and  O_4
REMARK    5  A    between atoms: O_4  and  C_5
REMARK    6  A    between atoms: C_9  and  C_10
REMARK    7  A    between atoms: C_20  and  C_21
REMARK                            x       y       z     vdW  Elec       q    Type
REMARK                         _______ _______ _______ _____ _____    ______ ____
ROOT
ATOM      1  C   UNL     1     -10.257  -9.759  15.568  0.00  0.00    +0.000 C 
ATOM      2  H   UNL     1     -10.829  -8.863  15.293  0.00  0.00    +0.000 HD
ATOM      3  H   UNL     1     -10.943 -10.526  15.948  0.00  0.00    +0.000 HD
ENDROOT
BRANCH   1   4
ATOM      4  C   UNL     1      -9.543 -10.314  14.318  0.00  0.00    +0.000 C 
ATOM      5  H   UNL     1     -10.227 -11.017  13.826  0.00  0.00    +0.000 HD
BRANCH   4   6
ATOM      6  N   UNL     1      -9.297  -9.213  13.365  0.00  0.00    +0.000 NA
ATOM      7  H   UNL     1      -9.967  -9.294  12.597  0.00  0.00    +0.000 HD
ATOM      8  H   UNL     1      -8.381  -9.364  12.938  0.00  0.00    +0.000 HD
ENDBRANCH   4   6
BRANCH   4   9
ATOM      9  C   UNL     1      -8.255 -11.068  14.727  0.00  0.00    +0.000 C 
ATOM     10  H   UNL     1      -7.742 -10.494  15.510  0.00  0.00    +0.000 HD
ATOM     11  H   UNL     1      -7.554 -11.124  13.886  0.00  0.00    +0.000 HD
BRANCH   9  12
ATOM     12  C   UNL     1      -8.510 -12.454  15.242  0.00  0.00    +0.000 A 
ATOM     13  C   UNL     1      -8.688 -13.593  14.482  0.00  0.00    +0.000 A 
ATOM     14  N   UNL     1      -8.888 -14.648  15.331  0.00  0.00    +0.000 N 
ATOM     15  C   UNL     1      -8.838 -14.223  16.638  0.00  0.00    +0.000 A 
ATOM     16  C   UNL     1      -8.977 -14.948  17.829  0.00  0.00    +0.000 A 
ATOM     17  C   UNL     1      -8.869 -14.245  19.033  0.00  0.00    +0.000 A 
ATOM     18  C   UNL     1      -8.633 -12.873  19.044  0.00  0.00    +0.000 A 
ATOM     19  C   UNL     1      -8.505 -12.164  17.845  0.00  0.00    +0.000 A 
ATOM     20  C   UNL     1      -8.606 -12.849  16.616  0.00  0.00    +0.000 A 
ATOM     21  H   UNL     1      -8.693 -13.741  13.411  0.00  0.00    +0.000 HD
ATOM     22  H   UNL     1      -9.044 -15.605  15.045  0.00  0.00    +0.000 HD
ATOM     23  H   UNL     1      -9.159 -16.016  17.825  0.00  0.00    +0.000 HD
ATOM     24  H   UNL     1      -8.969 -14.780  19.974  0.00  0.00    +0.000 HD
ATOM     25  H   UNL     1      -8.548 -12.346  19.991  0.00  0.00    +0.000 HD
ATOM     26  H   UNL     1      -8.323 -11.093  17.868  0.00  0.00    +0.000 HD
ENDBRANCH   9  12
ENDBRANCH   4   9
ENDBRANCH   1   4
BRANCH   1  27
ATOM     27  O   UNL     1      -9.289  -9.427  16.572  0.00  0.00    +0.000 OA
BRANCH  27  28
ATOM     28  C   UNL     1      -9.343  -8.158  17.070  0.00  0.00    +0.000 A 
ATOM     29  C   UNL     1     -10.334  -7.333  16.555  0.00  0.00    +0.000 A 
ATOM     30  N   UNL     1     -10.520  -6.043  16.917  0.00  0.00    +0.000 NA
ATOM     31  C   UNL     1      -9.654  -5.551  17.831  0.00  0.00    +0.000 A 
ATOM     32  C   UNL     1      -8.616  -6.276  18.428  0.00  0.00    +0.000 A 
ATOM     33  C   UNL     1      -8.487  -7.615  18.027  0.00  0.00    +0.000 A 
ATOM     34  H   UNL     1     -11.025  -7.700  15.803  0.00  0.00    +0.000 HD
ATOM     35  H   UNL     1      -9.809  -4.499  18.055  0.00  0.00    +0.000 HD
ATOM     36  H   UNL     1      -7.687  -8.203  18.468  0.00  0.00    +0.000 HD
BRANCH  32  37
ATOM     37  C   UNL     1      -7.667  -5.656  19.356  0.00  0.00    +0.000 A 
ATOM     38  C   UNL     1      -8.083  -4.805  20.382  0.00  0.00    +0.000 A 
ATOM     39  C   UNL     1      -7.084  -4.104  21.061  0.00  0.00    +0.000 A 
ATOM     40  C   UNL     1      -7.036  -3.130  22.080  0.00  0.00    +0.000 A 
ATOM     41  N   UNL     1      -5.790  -2.723  22.342  0.00  0.00    +0.000 NA
ATOM     42  N   UNL     1      -5.039  -3.449  21.493  0.00  0.00    +0.000 N 
ATOM     43  C   UNL     1      -5.759  -4.320  20.719  0.00  0.00    +0.000 A 
ATOM     44  C   UNL     1      -5.382  -5.245  19.767  0.00  0.00    +0.000 A 
ATOM     45  N   UNL     1      -6.353  -5.901  19.090  0.00  0.00    +0.000 NA
ATOM     46  H   UNL     1      -9.130  -4.649  20.616  0.00  0.00    +0.000 HD
ATOM     47  H   UNL     1      -7.860  -2.691  22.629  0.00  0.00    +0.000 HD
ATOM     48  H   UNL     1      -4.039  -3.283  21.478  0.00  0.00    +0.000 HD
ATOM     49  H   UNL     1      -4.356  -5.463  19.500  0.00  0.00    +0.000 HD
ENDBRANCH  32  37
ENDBRANCH  27  28
ENDBRANCH   1  27
TORSDOF 7
ENDMDL
MODEL 6
REMARK VINA RESULT:   -10.570      1.875     10.775
REMARK INTER + INTRA:         -15.340
REMARK INTER:                 -14.956
REMARK INTRA:                  -0.384
REMARK UNBOUND:                -0.753
REMARK  Name = 
REMARK  7 active torsions:
REMARK  status: ('A' for Active; 'I' for Inactive)
REMARK    1  A    between atoms: N_1  and  C_2
REMARK    2  A    between atoms: C_2  and  C_3
REMARK    3  A    between atoms: C_2  and  C_20
REMARK    4  A    between atoms: C_3  and  O_4
REMARK    5  A    between atoms: O_4  and  C_5
REMARK    6  A    between atoms: C_9  and  C_10
REMARK    7  A    between atoms: C_20  and  C_21
REMARK                            x       y       z     vdW  Elec       q    Type
REMARK                         _______ _______ _______ _____ _____    ______ ____
ROOT
ATOM      1  C   UNL     1      -7.767  -5.784  19.505  0.00  0.00    +0.000 C 
ATOM      2  H   UNL     1      -7.369  -5.737  18.484  0.00  0.00    +0.000 HD
ATOM      3  H   UNL     1      -7.019  -6.236  20.167  0.00  0.00    +0.000 HD
ENDROOT
BRANCH   1   4
ATOM      4  C   UNL     1      -8.065  -4.356  20.006  0.00  0.00    +0.000 C 
ATOM      5  H   UNL     1      -7.420  -3.664  19.451  0.00  0.00    +0.000 HD
BRANCH   4   6
ATOM      6  N   UNL     1      -9.461  -4.002  19.675  0.00  0.00    +0.000 NA
ATOM      7  H   UNL     1      -9.941  -3.735  20.538  0.00  0.00    +0.000 HD
ATOM      8  H   UNL     1      -9.935  -4.849  19.356  0.00  0.00    +0.000 HD
ENDBRANCH   4   6
BRANCH   4   9
ATOM      9  C   UNL     1      -7.747  -4.240  21.516  0.00  0.00    +0.000 C 
ATOM     10  H   UNL     1      -6.678  -4.440  21.668  0.00  0.00    +0.000 HD
ATOM     11  H   UNL     1      -8.282  -5.009  22.086  0.00  0.00    +0.000 HD
BRANCH   9  12
ATOM     12  C   UNL     1      -8.067  -2.894  22.094  0.00  0.00    +0.000 A 
ATOM     13  C   UNL     1      -8.122  -1.696  21.409  0.00  0.00    +0.000 A 
ATOM     14  N   UNL     1      -8.451  -0.708  22.297  0.00  0.00    +0.000 N 
ATOM     15  C   UNL     1      -8.621  -1.237  23.556  0.00  0.00    +0.000 A 
ATOM     16  C   UNL     1      -8.969  -0.609  24.759  0.00  0.00    +0.000 A 
ATOM     17  C   UNL     1      -9.081  -1.410  25.899  0.00  0.00    +0.000 A 
ATOM     18  C   UNL     1      -8.853  -2.782  25.838  0.00  0.00    +0.000 A 
ATOM     19  C   UNL     1      -8.500  -3.391  24.629  0.00  0.00    +0.000 A 
ATOM     20  C   UNL     1      -8.383  -2.607  23.462  0.00  0.00    +0.000 A 
ATOM     21  H   UNL     1      -7.951  -1.464  20.367  0.00  0.00    +0.000 HD
ATOM     22  H   UNL     1      -8.562   0.270  22.067  0.00  0.00    +0.000 HD
ATOM     23  H   UNL     1      -9.148   0.458  24.811  0.00  0.00    +0.000 HD
ATOM     24  H   UNL     1      -9.351  -0.953  26.848  0.00  0.00    +0.000 HD
ATOM     25  H   UNL     1      -8.949  -3.388  26.736  0.00  0.00    +0.000 HD
ATOM     26  H   UNL     1      -8.323  -4.462  24.596  0.00  0.00    +0.000 HD
ENDBRANCH   9  12
ENDBRANCH   4   9
ENDBRANCH   1   4
BRANCH   1  27
ATOM     27  O   UNL     1      -8.970  -6.565  19.520  0.00  0.00    +0.000 OA
BRANCH  27  28
ATOM     28  C   UNL     1      -9.184  -7.369  18.440  0.00  0.00    +0.000 A 
ATOM     29  C   UNL     1      -9.849  -6.795  17.364  0.00  0.00    +0.000 A 
ATOM     30  N   UNL     1     -10.164  -7.449  16.223  0.00  0.00    +0.000 NA
ATOM     31  C   UNL     1      -9.808  -8.753  16.167  0.00  0.00    +0.000 A 
ATOM     32  C   UNL     1      -9.135  -9.447  17.177  0.00  0.00    +0.000 A 
ATOM     33  C   UNL     1      -8.818  -8.709  18.329  0.00  0.00    +0.000 A 
ATOM     34  H   UNL     1     -10.165  -5.757  17.397  0.00  0.00    +0.000 HD
ATOM     35  H   UNL     1     -10.125  -9.251  15.254  0.00  0.00    +0.000 HD
ATOM     36  H   UNL     1      -8.299  -9.221  19.134  0.00  0.00    +0.000 HD
BRANCH  32  37
ATOM     37  C   UNL     1      -8.849 -10.881  17.079  0.00  0.00    +0.000 A 
ATOM     38  C   UNL     1      -8.826 -11.549  15.854  0.00  0.00    +0.000 A 
ATOM     39  C   UNL     1      -8.761 -12.943  15.899  0.00  0.00    +0.000 A 
ATOM     40  C   UNL     1      -8.777 -13.995  14.960  0.00  0.00    +0.000 A 
ATOM     41  N   UNL     1      -8.750 -15.200  15.538  0.00  0.00    +0.000 NA
ATOM     42  N   UNL     1      -8.705 -14.914  16.853  0.00  0.00    +0.000 N 
ATOM     43  C   UNL     1      -8.677 -13.573  17.130  0.00  0.00    +0.000 A 
ATOM     44  C   UNL     1      -8.602 -12.873  18.317  0.00  0.00    +0.000 A 
ATOM     45  N   UNL     1      -8.695 -11.523  18.272  0.00  0.00    +0.000 NA
ATOM     46  H   UNL     1      -8.905 -11.025  14.908  0.00  0.00    +0.000 HD
ATOM     47  H   UNL     1      -8.824 -13.929  13.880  0.00  0.00    +0.000 HD
ATOM     48  H   UNL     1      -8.719 -15.686  17.510  0.00  0.00    +0.000 HD
ATOM     49  H   UNL     1      -8.502 -13.331  19.292  0.00  0.00    +0.000 HD
ENDBRANCH  32  37
ENDBRANCH  27  28
ENDBRANCH   1  27
TORSDOF 7
ENDMDL
MODEL 7
REMARK VINA RESULT:   -10.541      1.791     10.128
REMARK INTER + INTRA:         -15.299
REMARK INTER:                 -14.540
REMARK INTRA:                  -0.759
REMARK UNBOUND:                -0.753
REMARK  Name = 
REMARK  7 active torsions:
REMARK  status: ('A' for Active; 'I' for Inactive)
REMARK    1  A    between atoms: N_1  and  C_2
REMARK    2  A    between atoms: C_2  and  C_3
REMARK    3  A    between atoms: C_2  and  C_20
REMARK    4  A    between atoms: C_3  and  O_4
REMARK    5  A    between atoms: O_4  and  C_5
REMARK    6  A    between atoms: C_9  and  C_10
REMARK    7  A    between atoms: C_20  and  C_21
REMARK                            x       y       z     vdW  Elec       q    Type
REMARK                         _______ _______ _______ _____ _____    ______ ____
ROOT
ATOM      1  C   UNL     1      -7.647  -4.987  19.725  0.00  0.00    +0.000 C 
ATOM      2  H   UNL     1      -8.244  -4.070  19.647  0.00  0.00    +0.000 HD
ATOM      3  H   UNL     1      -7.205  -5.218  18.748  0.00  0.00    +0.000 HD
ENDROOT
BRANCH   1   4
ATOM      4  C   UNL     1      -6.506  -4.770  20.740  0.00  0.00    +0.000 C 
ATOM      5  H   UNL     1      -6.591  -5.547  21.511  0.00  0.00    +0.000 HD
BRANCH   4   6
ATOM      6  N   UNL     1      -5.206  -4.970  20.067  0.00  0.00    +0.000 NA
ATOM      7  H   UNL     1      -5.244  -4.521  19.150  0.00  0.00    +0.000 HD
ATOM      8  H   UNL     1      -5.101  -5.968  19.873  0.00  0.00    +0.000 HD
ENDBRANCH   4   6
BRANCH   4   9
ATOM      9  C   UNL     1      -6.640  -3.381  21.409  0.00  0.00    +0.000 C 
ATOM     10  H   UNL     1      -6.969  -2.655  20.654  0.00  0.00    +0.000 HD
ATOM     11  H   UNL     1      -5.665  -3.025  21.765  0.00  0.00    +0.000 HD
BRANCH   9  12
ATOM     12  C   UNL     1      -7.612  -3.357  22.551  0.00  0.00    +0.000 A 
ATOM     13  C   UNL     1      -7.437  -3.934  23.793  0.00  0.00    +0.000 A 
ATOM     14  N   UNL     1      -8.551  -3.680  24.546  0.00  0.00    +0.000 N 
ATOM     15  C   UNL     1      -9.456  -2.939  23.821  0.00  0.00    +0.000 A 
ATOM     16  C   UNL     1     -10.716  -2.445  24.185  0.00  0.00    +0.000 A 
ATOM     17  C   UNL     1     -11.421  -1.703  23.233  0.00  0.00    +0.000 A 
ATOM     18  C   UNL     1     -10.889  -1.467  21.968  0.00  0.00    +0.000 A 
ATOM     19  C   UNL     1      -9.633  -1.974  21.620  0.00  0.00    +0.000 A 
ATOM     20  C   UNL     1      -8.897  -2.723  22.563  0.00  0.00    +0.000 A 
ATOM     21  H   UNL     1      -6.616  -4.505  24.203  0.00  0.00    +0.000 HD
ATOM     22  H   UNL     1      -8.693  -3.984  25.499  0.00  0.00    +0.000 HD
ATOM     23  H   UNL     1     -11.133  -2.625  25.169  0.00  0.00    +0.000 HD
ATOM     24  H   UNL     1     -12.401  -1.304  23.486  0.00  0.00    +0.000 HD
ATOM     25  H   UNL     1     -11.452  -0.884  21.244  0.00  0.00    +0.000 HD
ATOM     26  H   UNL     1      -9.230  -1.783  20.630  0.00  0.00    +0.000 HD
ENDBRANCH   9  12
ENDBRANCH   4   9
ENDBRANCH   1   4
BRANCH   1  27
ATOM     27  O   UNL     1      -8.479  -6.072  20.155  0.00  0.00    +0.000 OA
BRANCH  27  28
ATOM     28  C   UNL     1      -9.014  -6.853  19.173  0.00  0.00    +0.000 A 
ATOM     29  C   UNL     1     -10.096  -6.322  18.482  0.00  0.00    +0.000 A 
ATOM     30  N   UNL     1     -10.762  -6.963  17.495  0.00  0.00    +0.000 NA
ATOM     31  C   UNL     1     -10.328  -8.209  17.197  0.00  0.00    +0.000 A 
ATOM     32  C   UNL     1      -9.251  -8.855  17.813  0.00  0.00    +0.000 A 
ATOM     33  C   UNL     1      -8.588  -8.130  18.816  0.00  0.00    +0.000 A 
ATOM     34  H   UNL     1     -10.477  -5.334  18.721  0.00  0.00    +0.000 HD
ATOM     35  H   UNL     1     -10.922  -8.705  16.433  0.00  0.00    +0.000 HD
ATOM     36  H   UNL     1      -7.750  -8.607  19.317  0.00  0.00    +0.000 HD
BRANCH  32  37
ATOM     37  C   UNL     1      -8.884 -10.237  17.491  0.00  0.00    +0.000 A 
ATOM     38  C   UNL     1      -8.932 -10.731  16.186  0.00  0.00    +0.000 A 
ATOM     39  C   UNL     1      -8.774 -12.109  16.030  0.00  0.00    +0.000 A 
ATOM     40  C   UNL     1      -8.811 -13.024  14.957  0.00  0.00    +0.000 A 
ATOM     41  N   UNL     1      -8.653 -14.290  15.356  0.00  0.00    +0.000 NA
ATOM     42  N   UNL     1      -8.503 -14.181  16.690  0.00  0.00    +0.000 N 
ATOM     43  C   UNL     1      -8.536 -12.891  17.149  0.00  0.00    +0.000 A 
ATOM     44  C   UNL     1      -8.395 -12.352  18.412  0.00  0.00    +0.000 A 
ATOM     45  N   UNL     1      -8.578 -11.019  18.564  0.00  0.00    +0.000 NA
ATOM     46  H   UNL     1      -9.133 -10.092  15.333  0.00  0.00    +0.000 HD
ATOM     47  H   UNL     1      -8.962 -12.818  13.904  0.00  0.00    +0.000 HD
ATOM     48  H   UNL     1      -8.407 -15.032  17.231  0.00  0.00    +0.000 HD
ATOM     49  H   UNL     1      -8.175 -12.928  19.301  0.00  0.00    +0.000 HD
ENDBRANCH  32  37
ENDBRANCH  27  28
ENDBRANCH   1  27
TORSDOF 7
ENDMDL
MODEL 8
REMARK VINA RESULT:   -10.517      1.953      2.425
REMARK INTER + INTRA:         -15.267
REMARK INTER:                 -14.615
REMARK INTRA:                  -0.652
REMARK UNBOUND:                -0.753
REMARK  Name = 
REMARK  7 active torsions:
REMARK  status: ('A' for Active; 'I' for Inactive)
REMARK    1  A    between atoms: N_1  and  C_2
REMARK    2  A    between atoms: C_2  and  C_3
REMARK    3  A    between atoms: C_2  and  C_20
REMARK    4  A    between atoms: C_3  and  O_4
REMARK    5  A    between atoms: O_4  and  C_5
REMARK    6  A    between atoms: C_9  and  C_10
REMARK    7  A    between atoms: C_20  and  C_21
REMARK                            x       y       z     vdW  Elec       q    Type
REMARK                         _______ _______ _______ _____ _____    ______ ____
ROOT
ATOM      1  C   UNL     1      -9.397  -5.582  17.515  0.00  0.00    +0.000 C 
ATOM      2  H   UNL     1      -8.697  -5.624  16.670  0.00  0.00    +0.000 HD
ATOM      3  H   UNL     1     -10.197  -4.866  17.290  0.00  0.00    +0.000 HD
ENDROOT
BRANCH   1   4
ATOM      4  C   UNL     1     -10.029  -6.973  17.727  0.00  0.00    +0.000 C 
ATOM      5  H   UNL     1      -9.850  -7.267  18.768  0.00  0.00    +0.000 HD
BRANCH   4   6
ATOM      6  N   UNL     1     -11.493  -6.878  17.550  0.00  0.00    +0.000 NA
ATOM      7  H   UNL     1     -11.934  -6.933  18.470  0.00  0.00    +0.000 HD
ATOM      8  H   UNL     1     -11.806  -7.713  17.052  0.00  0.00    +0.000 HD
ENDBRANCH   4   6
BRANCH   4   9
ATOM      9  C   UNL     1      -9.367  -8.011  16.789  0.00  0.00    +0.000 C 
ATOM     10  H   UNL     1      -8.419  -7.599  16.418  0.00  0.00    +0.000 HD
ATOM     11  H   UNL     1      -9.987  -8.185  15.901  0.00  0.00    +0.000 HD
BRANCH   9  12
ATOM     12  C   UNL     1      -9.087  -9.326  17.454  0.00  0.00    +0.000 A 
ATOM     13  C   UNL     1      -8.966  -9.553  18.811  0.00  0.00    +0.000 A 
ATOM     14  N   UNL     1      -8.717 -10.885  19.003  0.00  0.00    +0.000 N 
ATOM     15  C   UNL     1      -8.677 -11.541  17.795  0.00  0.00    +0.000 A 
ATOM     16  C   UNL     1      -8.464 -12.896  17.509  0.00  0.00    +0.000 A 
ATOM     17  C   UNL     1      -8.488 -13.288  16.168  0.00  0.00    +0.000 A 
ATOM     18  C   UNL     1      -8.714 -12.362  15.153  0.00  0.00    +0.000 A 
ATOM     19  C   UNL     1      -8.918 -11.011  15.456  0.00  0.00    +0.000 A 
ATOM     20  C   UNL     1      -8.902 -10.589  16.802  0.00  0.00    +0.000 A 
ATOM     21  H   UNL     1      -9.034  -8.879  19.653  0.00  0.00    +0.000 HD
ATOM     22  H   UNL     1      -8.586 -11.330  19.901  0.00  0.00    +0.000 HD
ATOM     23  H   UNL     1      -8.289 -13.620  18.296  0.00  0.00    +0.000 HD
ATOM     24  H   UNL     1      -8.329 -14.333  15.914  0.00  0.00    +0.000 HD
ATOM     25  H   UNL     1      -8.733 -12.688  14.117  0.00  0.00    +0.000 HD
ATOM     26  H   UNL     1      -9.091 -10.299  14.654  0.00  0.00    +0.000 HD
ENDBRANCH   9  12
ENDBRANCH   4   9
ENDBRANCH   1   4
BRANCH   1  27
ATOM     27  O   UNL     1      -8.699  -5.180  18.702  0.00  0.00    +0.000 OA
BRANCH  27  28
ATOM     28  C   UNL     1      -9.056  -3.977  19.236  0.00  0.00    +0.000 A 
ATOM     29  C   UNL     1      -9.623  -3.057  18.364  0.00  0.00    +0.000 A 
ATOM     30  N   UNL     1     -10.014  -1.811  18.716  0.00  0.00    +0.000 NA
ATOM     31  C   UNL     1      -9.810  -1.465  20.007  0.00  0.00    +0.000 A 
ATOM     32  C   UNL     1      -9.252  -2.297  20.984  0.00  0.00    +0.000 A 
ATOM     33  C   UNL     1      -8.885  -3.585  20.562  0.00  0.00    +0.000 A 
ATOM     34  H   UNL     1      -9.774  -3.304  17.318  0.00  0.00    +0.000 HD
ATOM     35  H   UNL     1     -10.092  -0.440  20.233  0.00  0.00    +0.000 HD
ATOM     36  H   UNL     1      -8.444  -4.254  21.297  0.00  0.00    +0.000 HD
BRANCH  32  37
ATOM     37  C   UNL     1      -8.990  -1.830  22.348  0.00  0.00    +0.000 A 
ATOM     38  C   UNL     1      -8.926  -2.707  23.432  0.00  0.00    +0.000 A 
ATOM     39  C   UNL     1      -8.891  -2.133  24.704  0.00  0.00    +0.000 A 
ATOM     40  C   UNL     1      -8.887  -2.602  26.034  0.00  0.00    +0.000 A 
ATOM     41  N   UNL     1      -8.909  -1.610  26.929  0.00  0.00    +0.000 NA
ATOM     42  N   UNL     1      -8.915  -0.501  26.165  0.00  0.00    +0.000 N 
ATOM     43  C   UNL     1      -8.873  -0.752  24.819  0.00  0.00    +0.000 A 
ATOM     44  C   UNL     1      -8.836   0.081  23.720  0.00  0.00    +0.000 A 
ATOM     45  N   UNL     1      -8.901  -0.477  22.489  0.00  0.00    +0.000 NA
ATOM     46  H   UNL     1      -8.954  -3.784  23.307  0.00  0.00    +0.000 HD
ATOM     47  H   UNL     1      -8.885  -3.627  26.384  0.00  0.00    +0.000 HD
ATOM     48  H   UNL     1      -8.972   0.399  26.628  0.00  0.00    +0.000 HD
ATOM     49  H   UNL     1      -8.787   1.162  23.774  0.00  0.00    +0.000 HD
ENDBRANCH  32  37
ENDBRANCH  27  28
ENDBRANCH   1  27
TORSDOF 7
ENDMDL
MODEL 9
REMARK VINA RESULT:   -10.419      2.932      3.777
REMARK INTER + INTRA:         -15.131
REMARK INTER:                 -14.498
REMARK INTRA:                  -0.633
REMARK UNBOUND:                -0.753
REMARK  Name = 
REMARK  7 active torsions:
REMARK  status: ('A' for Active; 'I' for Inactive)
REMARK    1  A    between atoms: N_1  and  C_2
REMARK    2  A    between atoms: C_2  and  C_3
REMARK    3  A    between atoms: C_2  and  C_20
REMARK    4  A    between atoms: C_3  and  O_4
REMARK    5  A    between atoms: O_4  and  C_5
REMARK    6  A    between atoms: C_9  and  C_10
REMARK    7  A    between atoms: C_20  and  C_21
REMARK                            x       y       z     vdW  Elec       q    Type
REMARK                         _______ _______ _______ _____ _____    ______ ____
ROOT
ATOM      1  C   UNL     1     -10.687  -6.164  16.133  0.00  0.00    +0.000 C 
ATOM      2  H   UNL     1      -9.779  -5.619  16.420  0.00  0.00    +0.000 HD
ATOM      3  H   UNL     1     -10.753  -6.210  15.039  0.00  0.00    +0.000 HD
ENDROOT
BRANCH   1   4
ATOM      4  C   UNL     1     -10.616  -7.604  16.682  0.00  0.00    +0.000 C 
ATOM      5  H   UNL     1     -11.015  -7.593  17.703  0.00  0.00    +0.000 HD
BRANCH   4   6
ATOM      6  N   UNL     1     -11.499  -8.477  15.882  0.00  0.00    +0.000 NA
ATOM      7  H   UNL     1     -11.111  -9.423  15.888  0.00  0.00    +0.000 HD
ATOM      8  H   UNL     1     -11.446  -8.173  14.908  0.00  0.00    +0.000 HD
ENDBRANCH   4   6
BRANCH   4   9
ATOM      9  C   UNL     1      -9.147  -8.091  16.721  0.00  0.00    +0.000 C 
ATOM     10  H   UNL     1      -8.545  -7.353  17.267  0.00  0.00    +0.000 HD
ATOM     11  H   UNL     1      -8.725  -8.134  15.709  0.00  0.00    +0.000 HD
BRANCH   9  12
ATOM     12  C   UNL     1      -8.976  -9.428  17.378  0.00  0.00    +0.000 A 
ATOM     13  C   UNL     1      -8.935  -9.677  18.736  0.00  0.00    +0.000 A 
ATOM     14  N   UNL     1      -8.771 -11.023  18.920  0.00  0.00    +0.000 N 
ATOM     15  C   UNL     1      -8.710 -11.666  17.705  0.00  0.00    +0.000 A 
ATOM     16  C   UNL     1      -8.562 -13.028  17.411  0.00  0.00    +0.000 A 
ATOM     17  C   UNL     1      -8.543 -13.401  16.064  0.00  0.00    +0.000 A 
ATOM     18  C   UNL     1      -8.665 -12.451  15.053  0.00  0.00    +0.000 A 
ATOM     19  C   UNL     1      -8.806 -11.095  15.366  0.00  0.00    +0.000 A 
ATOM     20  C   UNL     1      -8.832 -10.691  16.717  0.00  0.00    +0.000 A 
ATOM     21  H   UNL     1      -9.005  -9.011  19.584  0.00  0.00    +0.000 HD
ATOM     22  H   UNL     1      -8.710 -11.486  19.817  0.00  0.00    +0.000 HD
ATOM     23  H   UNL     1      -8.467 -13.770  18.194  0.00  0.00    +0.000 HD
ATOM     24  H   UNL     1      -8.431 -14.451  15.803  0.00  0.00    +0.000 HD
ATOM     25  H   UNL     1      -8.653 -12.764  14.012  0.00  0.00    +0.000 HD
ATOM     26  H   UNL     1      -8.900 -10.365  14.568  0.00  0.00    +0.000 HD
ENDBRANCH   9  12
ENDBRANCH   4   9
ENDBRANCH   1   4
BRANCH   1  27
ATOM     27  O   UNL     1     -11.840  -5.498  16.666  0.00  0.00    +0.000 OA
BRANCH  27  28
ATOM     28  C   UNL     1     -11.649  -4.227  17.123  0.00  0.00    +0.000 A 
ATOM     29  C   UNL     1     -11.704  -3.214  16.174  0.00  0.00    +0.000 A 
ATOM     30  N   UNL     1     -11.516  -1.903  16.444  0.00  0.00    +0.000 NA
ATOM     31  C   UNL     1     -11.244  -1.594  17.732  0.00  0.00    +0.000 A 
ATOM     32  C   UNL     1     -11.164  -2.516  18.781  0.00  0.00    +0.000 A 
ATOM     33  C   UNL     1     -11.388  -3.860  18.441  0.00  0.00    +0.000 A 
ATOM     34  H   UNL     1     -11.897  -3.442  15.130  0.00  0.00    +0.000 HD
ATOM     35  H   UNL     1     -11.051  -0.536  17.895  0.00  0.00    +0.000 HD
ATOM     36  H   UNL     1     -11.327  -4.601  19.233  0.00  0.00    +0.000 HD
BRANCH  32  37
ATOM     37  C   UNL     1     -10.788  -2.119  20.141  0.00  0.00    +0.000 A 
ATOM     38  C   UNL     1      -9.473  -2.206  20.601  0.00  0.00    +0.000 A 
ATOM     39  C   UNL     1      -9.272  -2.011  21.969  0.00  0.00    +0.000 A 
ATOM     40  C   UNL     1      -8.176  -2.063  22.856  0.00  0.00    +0.000 A 
ATOM     41  N   UNL     1      -8.532  -1.848  24.125  0.00  0.00    +0.000 NA
ATOM     42  N   UNL     1      -9.861  -1.646  24.047  0.00  0.00    +0.000 N 
ATOM     43  C   UNL     1     -10.358  -1.701  22.772  0.00  0.00    +0.000 A 
ATOM     44  C   UNL     1     -11.628  -1.525  22.262  0.00  0.00    +0.000 A 
ATOM     45  N   UNL     1     -11.826  -1.744  20.941  0.00  0.00    +0.000 NA
ATOM     46  H   UNL     1      -8.647  -2.463  19.947  0.00  0.00    +0.000 HD
ATOM     47  H   UNL     1      -7.137  -2.265  22.626  0.00  0.00    +0.000 HD
ATOM     48  H   UNL     1     -10.374  -1.500  24.909  0.00  0.00    +0.000 HD
ATOM     49  H   UNL     1     -12.492  -1.249  22.855  0.00  0.00    +0.000 HD
ENDBRANCH  32  37
ENDBRANCH  27  28
ENDBRANCH   1  27
TORSDOF 7
ENDMDL
