REMARK  Name = 
REMARK  7 active torsions:
REMARK  status: ('A' for Active; 'I' for Inactive)
REMARK    1  A    between atoms: C_1  and  N_2
REMARK    2  A    between atoms: N_2  and  C_3
REMARK    3  A    between atoms: N_2  and  C_4
REMARK    4  A    between atoms: C_4  and  C_5
REMARK    5  A    between atoms: C_10  and  C_11
REMARK    6  A    between atoms: C_12  and  C_13
REMARK    7  A    between atoms: N_15  and  C_16
REMARK                            x       y       z     vdW  Elec       q    Type
REMARK                         _______ _______ _______ _____ _____    ______ ____
ROOT
ATOM      1  C   UNL     1      -0.948   1.325   2.737  0.00  0.00    +0.000 C 
ATOM      2  C   UNL     1      -0.473   0.002   3.366  0.00  0.00    +0.000 C 
ATOM      3  C   UNL     1      -1.047  -1.201   2.623  0.00  0.00    +0.000 C 
ATOM      4  N   UNL     1      -0.964  -1.053   1.176  0.00  0.00    +0.000 N 
ATOM      5  C   UNL     1      -0.699   0.136   0.532  0.00  0.00    +0.000 A 
ATOM      6  C   UNL     1      -0.727  -0.120  -0.825  0.00  0.00    +0.000 A 
ATOM      7  C   UNL     1      -1.051  -1.495  -1.007  0.00  0.00    +0.000 A 
ATOM      8  C   UNL     1      -1.233  -2.321  -2.135  0.00  0.00    +0.000 A 
ATOM      9  C   UNL     1      -1.596  -3.661  -1.956  0.00  0.00    +0.000 A 
ATOM     10  C   UNL     1      -1.779  -4.184  -0.681  0.00  0.00    +0.000 A 
ATOM     11  C   UNL     1      -1.594  -3.390   0.453  0.00  0.00    +0.000 A 
ATOM     12  C   UNL     1      -1.221  -2.051   0.264  0.00  0.00    +0.000 A 
ATOM     13  C   UNL     1      -0.435   1.397   1.289  0.00  0.00    +0.000 C 
ATOM     14  H   UNL     1      -0.477   2.156   3.272  0.00  0.00    +0.000 HD
ATOM     15  H   UNL     1      -0.736  -0.054   4.428  0.00  0.00    +0.000 HD
ATOM     16  H   UNL     1       0.624  -0.036   3.318  0.00  0.00    +0.000 HD
ATOM     17  H   UNL     1      -2.106  -1.345   2.865  0.00  0.00    +0.000 HD
ATOM     18  H   UNL     1      -0.502  -2.109   2.901  0.00  0.00    +0.000 HD
ATOM     19  H   UNL     1      -1.103  -1.924  -3.136  0.00  0.00    +0.000 HD
ATOM     20  H   UNL     1      -1.740  -4.296  -2.826  0.00  0.00    +0.000 HD
ATOM     21  H   UNL     1      -2.072  -5.224  -0.562  0.00  0.00    +0.000 HD
ATOM     22  H   UNL     1      -1.743  -3.803   1.445  0.00  0.00    +0.000 HD
ATOM     23  H   UNL     1      -0.879   2.258   0.776  0.00  0.00    +0.000 HD
ATOM     24  H   UNL     1       0.650   1.563   1.305  0.00  0.00    +0.000 HD
ENDROOT
BRANCH   6  25
ATOM     25  C   UNL     1      -0.488   0.849  -1.830  0.00  0.00    +0.000 C 
ATOM     26  C   UNL     1       0.666   1.187  -2.423  0.00  0.00    +0.000 C 
ATOM     27  C   UNL     1       0.381   2.315  -3.335  0.00  0.00    +0.000 C 
ATOM     28  O   UNL     1       1.188   2.950  -3.990  0.00  0.00    +0.000 OA
ATOM     29  N   UNL     1      -0.947   2.546  -3.282  0.00  0.00    +0.000 N 
ATOM     30  C   UNL     1      -1.538   1.731  -2.383  0.00  0.00    +0.000 C 
ATOM     31  O   UNL     1      -2.718   1.746  -2.078  0.00  0.00    +0.000 OA
ATOM     32  H   UNL     1      -1.416   3.282  -3.781  0.00  0.00    +0.000 HD
BRANCH  26  33
ATOM     33  C   UNL     1       1.961   0.655  -2.230  0.00  0.00    +0.000 A 
ATOM     34  C   UNL     1       2.846   1.094  -1.270  0.00  0.00    +0.000 A 
ATOM     35  N   UNL     1       3.998   0.368  -1.408  0.00  0.00    +0.000 N 
ATOM     36  C   UNL     1       3.878  -0.540  -2.438  0.00  0.00    +0.000 A 
ATOM     37  C   UNL     1       4.786  -1.479  -2.950  0.00  0.00    +0.000 A 
ATOM     38  C   UNL     1       4.379  -2.271  -4.028  0.00  0.00    +0.000 A 
ATOM     39  C   UNL     1       3.107  -2.135  -4.574  0.00  0.00    +0.000 A 
ATOM     40  C   UNL     1       2.206  -1.198  -4.058  0.00  0.00    +0.000 A 
ATOM     41  C   UNL     1       2.593  -0.382  -2.974  0.00  0.00    +0.000 A 
ATOM     42  H   UNL     1       2.753   1.866  -0.517  0.00  0.00    +0.000 HD
ATOM     43  H   UNL     1       5.781  -1.593  -2.532  0.00  0.00    +0.000 HD
ATOM     44  H   UNL     1       5.068  -3.000  -4.445  0.00  0.00    +0.000 HD
ATOM     45  H   UNL     1       2.809  -2.761  -5.412  0.00  0.00    +0.000 HD
ATOM     46  H   UNL     1       1.217  -1.102  -4.495  0.00  0.00    +0.000 HD
BRANCH  35  47
ATOM     47  C   UNL     1       5.180   0.549  -0.593  0.00  0.00    +0.000 C 
ATOM     48  H   UNL     1       4.999   1.340   0.142  0.00  0.00    +0.000 HD
ATOM     49  H   UNL     1       6.008   0.836  -1.245  0.00  0.00    +0.000 HD
ATOM     50  H   UNL     1       5.393  -0.390  -0.079  0.00  0.00    +0.000 HD
ENDBRANCH  35  47
ENDBRANCH  26  33
ENDBRANCH   6  25
BRANCH   1  51
ATOM     51  C   UNL     1      -2.489   1.503   2.792  0.00  0.00    +0.000 C 
ATOM     52  H   UNL     1      -2.762   2.457   2.319  0.00  0.00    +0.000 HD
ATOM     53  H   UNL     1      -2.967   0.723   2.187  0.00  0.00    +0.000 HD
BRANCH  51  54
ATOM     54  N   UNL     1      -3.033   1.435   4.162  0.00  0.00    +0.000 NA
BRANCH  54  55
ATOM     55  C   UNL     1      -2.551   2.543   4.987  0.00  0.00    +0.000 C 
ATOM     56  H   UNL     1      -2.979   2.490   5.994  0.00  0.00    +0.000 HD
ATOM     57  H   UNL     1      -2.802   3.517   4.552  0.00  0.00    +0.000 HD
ATOM     58  H   UNL     1      -1.467   2.493   5.127  0.00  0.00    +0.000 HD
ENDBRANCH  54  55
BRANCH  54  59
ATOM     59  C   UNL     1      -4.500   1.456   4.119  0.00  0.00    +0.000 C 
ATOM     60  H   UNL     1      -4.916   1.424   5.132  0.00  0.00    +0.000 HD
ATOM     61  H   UNL     1      -4.885   0.573   3.597  0.00  0.00    +0.000 HD
ATOM     62  H   UNL     1      -4.885   2.352   3.618  0.00  0.00    +0.000 HD
ENDBRANCH  54  59
ENDBRANCH  51  54
ENDBRANCH   1  51
TORSDOF 7
