MODEL 1
REMARK VINA RESULT:    -7.295      0.000      0.000
REMARK INTER + INTRA:          -9.412
REMARK INTER:                  -9.001
REMARK INTRA:                  -0.411
REMARK UNBOUND:                -0.411
REMARK  Name = 
REMARK  6 active torsions:
REMARK  status: ('A' for Active; 'I' for Inactive)
REMARK    1  A    between atoms: C_1  and  N_2
REMARK    2  A    between atoms: N_2  and  C_3
REMARK    3  A    between atoms: C_7  and  C_8
REMARK    4  A    between atoms: C_9  and  O_10
REMARK    5  A    between atoms: O_10  and  C_11
REMARK    6  A    between atoms: C_35  and  O_36
REMARK                            x       y       z     vdW  Elec       q    Type
REMARK                         _______ _______ _______ _____ _____    ______ ____
ROOT
ATOM      1  C   UNL     1     -10.287  -0.692  15.335  0.00  0.00    +0.000 C 
ATOM      2  C   UNL     1     -11.445  -1.680  15.158  0.00  0.00    +0.000 C 
ATOM      3  C   UNL     1     -12.310  -1.879  16.387  0.00  0.00    +0.000 C 
ATOM      4  O   UNL     1     -12.763  -0.614  16.835  0.00  0.00    +0.000 OA
ATOM      5  C   UNL     1     -11.764   0.288  17.342  0.00  0.00    +0.000 C 
ATOM      6  C   UNL     1     -10.352   0.252  16.602  0.00  0.00    +0.000 C 
ATOM      7  N   UNL     1     -11.694  -0.015  18.752  0.00  0.00    +0.000 N 
ATOM      8  C   UNL     1     -11.662   0.750  19.941  0.00  0.00    +0.000 A 
ATOM      9  C   UNL     1     -11.799   2.126  20.215  0.00  0.00    +0.000 A 
ATOM     10  C   UNL     1     -12.000   2.520  21.547  0.00  0.00    +0.000 A 
ATOM     11  C   UNL     1     -12.138   1.583  22.564  0.00  0.00    +0.000 A 
ATOM     12  C   UNL     1     -11.749   0.271  22.340  0.00  0.00    +0.000 A 
ATOM     13  C   UNL     1     -11.311  -0.095  21.061  0.00  0.00    +0.000 A 
ATOM     14  C   UNL     1     -10.757  -1.268  20.540  0.00  0.00    +0.000 A 
ATOM     15  C   UNL     1      -9.541  -1.893  20.902  0.00  0.00    +0.000 A 
ATOM     16  C   UNL     1      -9.276  -3.089  20.199  0.00  0.00    +0.000 A 
ATOM     17  C   UNL     1     -10.135  -3.258  19.100  0.00  0.00    +0.000 A 
ATOM     18  C   UNL     1     -10.101  -4.253  18.108  0.00  0.00    +0.000 A 
ATOM     19  C   UNL     1      -9.264  -5.337  17.789  0.00  0.00    +0.000 A 
ATOM     20  C   UNL     1      -9.704  -6.298  16.878  0.00  0.00    +0.000 A 
ATOM     21  C   UNL     1     -10.978  -6.219  16.323  0.00  0.00    +0.000 A 
ATOM     22  C   UNL     1     -11.766  -5.076  16.484  0.00  0.00    +0.000 A 
ATOM     23  C   UNL     1     -11.263  -4.038  17.281  0.00  0.00    +0.000 A 
ATOM     24  N   UNL     1     -11.703  -2.697  17.412  0.00  0.00    +0.000 N 
ATOM     25  C   UNL     1     -11.064  -2.368  18.544  0.00  0.00    +0.000 A 
ATOM     26  C   UNL     1     -11.241  -1.207  19.247  0.00  0.00    +0.000 A 
ATOM     27  C   UNL     1      -8.023  -3.620  20.616  0.00  0.00    +0.000 C 
ATOM     28  O   UNL     1      -7.435  -4.675  20.420  0.00  0.00    +0.000 OA
ATOM     29  N   UNL     1      -7.479  -2.582  21.381  0.00  0.00    +0.000 N 
ATOM     30  C   UNL     1      -8.257  -1.364  21.380  0.00  0.00    +0.000 C 
ATOM     31  H   UNL     1     -10.352  -0.003  14.478  0.00  0.00    +0.000 HD
ATOM     32  H   UNL     1     -11.107  -2.655  14.798  0.00  0.00    +0.000 HD
ATOM     33  H   UNL     1     -12.083  -1.284  14.356  0.00  0.00    +0.000 HD
ATOM     34  H   UNL     1     -13.210  -2.426  16.082  0.00  0.00    +0.000 HD
ATOM     35  H   UNL     1     -10.146   1.255  16.202  0.00  0.00    +0.000 HD
ATOM     36  H   UNL     1     -11.765   2.876  19.437  0.00  0.00    +0.000 HD
ATOM     37  H   UNL     1     -12.111   3.573  21.786  0.00  0.00    +0.000 HD
ATOM     38  H   UNL     1     -12.513   1.872  23.541  0.00  0.00    +0.000 HD
ATOM     39  H   UNL     1     -11.861  -0.487  23.113  0.00  0.00    +0.000 HD
ATOM     40  H   UNL     1      -8.286  -5.437  18.248  0.00  0.00    +0.000 HD
ATOM     41  H   UNL     1      -9.058  -7.139  16.642  0.00  0.00    +0.000 HD
ATOM     42  H   UNL     1     -11.351  -7.045  15.725  0.00  0.00    +0.000 HD
ATOM     43  H   UNL     1     -12.743  -5.006  16.016  0.00  0.00    +0.000 HD
ATOM     44  H   UNL     1      -6.475  -2.585  21.491  0.00  0.00    +0.000 HD
ATOM     45  H   UNL     1      -7.812  -0.689  20.637  0.00  0.00    +0.000 HD
ENDROOT
BRANCH   5  46
ATOM     46  C   UNL     1     -12.407   1.655  17.041  0.00  0.00    +0.000 C 
ATOM     47  H   UNL     1     -12.599   1.788  15.971  0.00  0.00    +0.000 HD
ATOM     48  H   UNL     1     -13.345   1.809  17.585  0.00  0.00    +0.000 HD
ATOM     49  H   UNL     1     -11.723   2.465  17.329  0.00  0.00    +0.000 HD
ENDBRANCH   5  46
BRANCH   1  50
ATOM     50  N   UNL     1      -8.975  -1.367  15.211  0.00  0.00    +0.000 NA
ATOM     51  H   UNL     1      -8.290  -0.867  15.780  0.00  0.00    +0.000 HD
BRANCH  50  52
ATOM     52  C   UNL     1      -8.486  -1.548  13.856  0.00  0.00    +0.000 C 
ATOM     53  H   UNL     1      -8.710  -0.685  13.224  0.00  0.00    +0.000 HD
ATOM     54  H   UNL     1      -8.998  -2.401  13.397  0.00  0.00    +0.000 HD
ATOM     55  H   UNL     1      -7.411  -1.747  13.825  0.00  0.00    +0.000 HD
ENDBRANCH  50  52
ENDBRANCH   1  50
BRANCH  30  56
ATOM     56  O   UNL     1      -8.228  -0.800  22.650  0.00  0.00    +0.000 OA
ATOM     57  H   UNL     1      -7.737   0.023  22.545  0.00  0.00    +0.000 HD
ENDBRANCH  30  56
BRANCH   6  58
ATOM     58  O   UNL     1      -9.200  -0.028  17.445  0.00  0.00    +0.000 OA
BRANCH  58  59
ATOM     59  C   UNL     1      -8.469   1.091  17.923  0.00  0.00    +0.000 C 
ATOM     60  H   UNL     1      -7.402   0.861  17.834  0.00  0.00    +0.000 HD
ATOM     61  H   UNL     1      -8.681   2.001  17.358  0.00  0.00    +0.000 HD
ATOM     62  H   UNL     1      -8.644   1.266  18.981  0.00  0.00    +0.000 HD
ENDBRANCH  58  59
ENDBRANCH   6  58
TORSDOF 6
ENDMDL
MODEL 2
REMARK VINA RESULT:    -7.282      3.975      6.066
REMARK INTER + INTRA:          -9.397
REMARK INTER:                  -8.967
REMARK INTRA:                  -0.430
REMARK UNBOUND:                -0.411
REMARK  Name = 
REMARK  6 active torsions:
REMARK  status: ('A' for Active; 'I' for Inactive)
REMARK    1  A    between atoms: C_1  and  N_2
REMARK    2  A    between atoms: N_2  and  C_3
REMARK    3  A    between atoms: C_7  and  C_8
REMARK    4  A    between atoms: C_9  and  O_10
REMARK    5  A    between atoms: O_10  and  C_11
REMARK    6  A    between atoms: C_35  and  O_36
REMARK                            x       y       z     vdW  Elec       q    Type
REMARK                         _______ _______ _______ _____ _____    ______ ____
ROOT
ATOM      1  C   UNL     1     -10.866   1.114  19.314  0.00  0.00    +0.000 C 
ATOM      2  C   UNL     1     -11.409  -0.179  19.932  0.00  0.00    +0.000 C 
ATOM      3  C   UNL     1     -12.230   0.008  21.193  0.00  0.00    +0.000 C 
ATOM      4  O   UNL     1     -13.264   0.939  20.928  0.00  0.00    +0.000 OA
ATOM      5  C   UNL     1     -12.862   2.292  20.654  0.00  0.00    +0.000 C 
ATOM      6  C   UNL     1     -11.513   2.464  19.823  0.00  0.00    +0.000 C 
ATOM      7  N   UNL     1     -12.834   2.925  21.952  0.00  0.00    +0.000 N 
ATOM      8  C   UNL     1     -13.305   4.150  22.479  0.00  0.00    +0.000 A 
ATOM      9  C   UNL     1     -14.091   5.196  21.955  0.00  0.00    +0.000 A 
ATOM     10  C   UNL     1     -14.612   6.145  22.848  0.00  0.00    +0.000 A 
ATOM     11  C   UNL     1     -14.428   6.023  24.220  0.00  0.00    +0.000 A 
ATOM     12  C   UNL     1     -13.455   5.160  24.704  0.00  0.00    +0.000 A 
ATOM     13  C   UNL     1     -12.745   4.366  23.795  0.00  0.00    +0.000 A 
ATOM     14  C   UNL     1     -11.654   3.501  23.932  0.00  0.00    +0.000 A 
ATOM     15  C   UNL     1     -10.342   3.815  24.356  0.00  0.00    +0.000 A 
ATOM     16  C   UNL     1      -9.473   2.703  24.410  0.00  0.00    +0.000 A 
ATOM     17  C   UNL     1     -10.016   1.576  23.769  0.00  0.00    +0.000 A 
ATOM     18  C   UNL     1      -9.407   0.334  23.518  0.00  0.00    +0.000 A 
ATOM     19  C   UNL     1      -8.134  -0.228  23.716  0.00  0.00    +0.000 A 
ATOM     20  C   UNL     1      -7.967  -1.608  23.597  0.00  0.00    +0.000 A 
ATOM     21  C   UNL     1      -9.056  -2.434  23.332  0.00  0.00    +0.000 A 
ATOM     22  C   UNL     1     -10.294  -1.900  22.964  0.00  0.00    +0.000 A 
ATOM     23  C   UNL     1     -10.426  -0.504  22.937  0.00  0.00    +0.000 A 
ATOM     24  N   UNL     1     -11.445   0.301  22.371  0.00  0.00    +0.000 N 
ATOM     25  C   UNL     1     -11.174   1.460  22.988  0.00  0.00    +0.000 A 
ATOM     26  C   UNL     1     -11.949   2.587  22.938  0.00  0.00    +0.000 A 
ATOM     27  C   UNL     1      -8.178   3.128  24.819  0.00  0.00    +0.000 C 
ATOM     28  O   UNL     1      -7.152   2.547  25.146  0.00  0.00    +0.000 OA
ATOM     29  N   UNL     1      -8.271   4.523  24.759  0.00  0.00    +0.000 N 
ATOM     30  C   UNL     1      -9.515   5.020  24.216  0.00  0.00    +0.000 C 
ATOM     31  H   UNL     1     -11.135   1.067  18.247  0.00  0.00    +0.000 HD
ATOM     32  H   UNL     1     -10.619  -0.910  20.126  0.00  0.00    +0.000 HD
ATOM     33  H   UNL     1     -12.053  -0.649  19.176  0.00  0.00    +0.000 HD
ATOM     34  H   UNL     1     -12.733  -0.941  21.414  0.00  0.00    +0.000 HD
ATOM     35  H   UNL     1     -11.744   3.016  18.901  0.00  0.00    +0.000 HD
ATOM     36  H   UNL     1     -14.310   5.281  20.900  0.00  0.00    +0.000 HD
ATOM     37  H   UNL     1     -15.223   6.960  22.472  0.00  0.00    +0.000 HD
ATOM     38  H   UNL     1     -15.011   6.619  24.916  0.00  0.00    +0.000 HD
ATOM     39  H   UNL     1     -13.301   5.033  25.774  0.00  0.00    +0.000 HD
ATOM     40  H   UNL     1      -7.283   0.398  23.968  0.00  0.00    +0.000 HD
ATOM     41  H   UNL     1      -6.983  -2.039  23.761  0.00  0.00    +0.000 HD
ATOM     42  H   UNL     1      -8.931  -3.512  23.378  0.00  0.00    +0.000 HD
ATOM     43  H   UNL     1     -11.127  -2.551  22.721  0.00  0.00    +0.000 HD
ATOM     44  H   UNL     1      -7.399   5.027  24.670  0.00  0.00    +0.000 HD
ATOM     45  H   UNL     1      -9.342   5.254  23.157  0.00  0.00    +0.000 HD
ENDROOT
BRANCH   5  46
ATOM     46  C   UNL     1     -14.020   2.778  19.761  0.00  0.00    +0.000 C 
ATOM     47  H   UNL     1     -14.315   2.020  19.028  0.00  0.00    +0.000 HD
ATOM     48  H   UNL     1     -14.904   3.069  20.337  0.00  0.00    +0.000 HD
ATOM     49  H   UNL     1     -13.703   3.655  19.179  0.00  0.00    +0.000 HD
ENDBRANCH   5  46
BRANCH   1  50
ATOM     50  N   UNL     1      -9.387   1.154  19.356  0.00  0.00    +0.000 NA
ATOM     51  H   UNL     1      -9.091   2.058  19.728  0.00  0.00    +0.000 HD
BRANCH  50  52
ATOM     52  C   UNL     1      -8.713   0.866  18.103  0.00  0.00    +0.000 C 
ATOM     53  H   UNL     1      -8.016   0.029  18.200  0.00  0.00    +0.000 HD
ATOM     54  H   UNL     1      -8.107   1.730  17.810  0.00  0.00    +0.000 HD
ATOM     55  H   UNL     1      -9.414   0.657  17.291  0.00  0.00    +0.000 HD
ENDBRANCH  50  52
ENDBRANCH   1  50
BRANCH  30  56
ATOM     56  O   UNL     1      -9.904   6.152  24.922  0.00  0.00    +0.000 OA
ATOM     57  H   UNL     1     -10.208   6.772  24.250  0.00  0.00    +0.000 HD
ENDBRANCH  30  56
BRANCH   6  58
ATOM     58  O   UNL     1     -10.474   3.263  20.455  0.00  0.00    +0.000 OA
BRANCH  58  59
ATOM     59  C   UNL     1     -10.394   4.628  20.071  0.00  0.00    +0.000 C 
ATOM     60  H   UNL     1      -9.336   4.911  20.050  0.00  0.00    +0.000 HD
ATOM     61  H   UNL     1     -10.827   4.811  19.086  0.00  0.00    +0.000 HD
ATOM     62  H   UNL     1     -10.859   5.281  20.804  0.00  0.00    +0.000 HD
ENDBRANCH  58  59
ENDBRANCH   6  58
TORSDOF 6
ENDMDL
MODEL 3
REMARK VINA RESULT:    -6.876      3.307      7.452
REMARK INTER + INTRA:          -8.895
REMARK INTER:                  -8.362
REMARK INTRA:                  -0.533
REMARK UNBOUND:                -0.411
REMARK  Name = 
REMARK  6 active torsions:
REMARK  status: ('A' for Active; 'I' for Inactive)
REMARK    1  A    between atoms: C_1  and  N_2
REMARK    2  A    between atoms: N_2  and  C_3
REMARK    3  A    between atoms: C_7  and  C_8
REMARK    4  A    between atoms: C_9  and  O_10
REMARK    5  A    between atoms: O_10  and  C_11
REMARK    6  A    between atoms: C_35  and  O_36
REMARK                            x       y       z     vdW  Elec       q    Type
REMARK                         _______ _______ _______ _____ _____    ______ ____
ROOT
ATOM      1  C   UNL     1     -13.029   3.602  22.357  0.00  0.00    +0.000 C 
ATOM      2  C   UNL     1     -11.903   4.611  22.107  0.00  0.00    +0.000 C 
ATOM      3  C   UNL     1     -10.672   4.042  21.429  0.00  0.00    +0.000 C 
ATOM      4  O   UNL     1     -11.069   3.391  20.235  0.00  0.00    +0.000 OA
ATOM      5  C   UNL     1     -11.877   2.211  20.380  0.00  0.00    +0.000 C 
ATOM      6  C   UNL     1     -12.936   2.233  21.572  0.00  0.00    +0.000 C 
ATOM      7  N   UNL     1     -10.920   1.133  20.468  0.00  0.00    +0.000 N 
ATOM      8  C   UNL     1     -10.795  -0.147  19.879  0.00  0.00    +0.000 A 
ATOM      9  C   UNL     1     -11.515  -0.830  18.878  0.00  0.00    +0.000 A 
ATOM     10  C   UNL     1     -10.947  -1.989  18.327  0.00  0.00    +0.000 A 
ATOM     11  C   UNL     1      -9.678  -2.417  18.696  0.00  0.00    +0.000 A 
ATOM     12  C   UNL     1      -9.093  -1.906  19.846  0.00  0.00    +0.000 A 
ATOM     13  C   UNL     1      -9.765  -0.902  20.555  0.00  0.00    +0.000 A 
ATOM     14  C   UNL     1      -9.518  -0.269  21.778  0.00  0.00    +0.000 A 
ATOM     15  C   UNL     1      -9.470  -0.850  23.066  0.00  0.00    +0.000 A 
ATOM     16  C   UNL     1      -9.172   0.064  24.100  0.00  0.00    +0.000 A 
ATOM     17  C   UNL     1      -9.260   1.399  23.668  0.00  0.00    +0.000 A 
ATOM     18  C   UNL     1      -9.149   2.575  24.430  0.00  0.00    +0.000 A 
ATOM     19  C   UNL     1      -8.987   2.887  25.791  0.00  0.00    +0.000 A 
ATOM     20  C   UNL     1      -8.628   4.185  26.159  0.00  0.00    +0.000 A 
ATOM     21  C   UNL     1      -8.385   5.154  25.190  0.00  0.00    +0.000 A 
ATOM     22  C   UNL     1      -8.698   4.929  23.847  0.00  0.00    +0.000 A 
ATOM     23  C   UNL     1      -9.202   3.669  23.493  0.00  0.00    +0.000 A 
ATOM     24  N   UNL     1      -9.833   3.246  22.297  0.00  0.00    +0.000 N 
ATOM     25  C   UNL     1      -9.732   1.918  22.455  0.00  0.00    +0.000 A 
ATOM     26  C   UNL     1     -10.048   0.979  21.511  0.00  0.00    +0.000 A 
ATOM     27  C   UNL     1      -9.175  -0.613  25.352  0.00  0.00    +0.000 C 
ATOM     28  O   UNL     1      -8.845  -0.307  26.489  0.00  0.00    +0.000 OA
ATOM     29  N   UNL     1      -9.716  -1.864  25.033  0.00  0.00    +0.000 N 
ATOM     30  C   UNL     1     -10.176  -1.988  23.668  0.00  0.00    +0.000 C 
ATOM     31  H   UNL     1     -13.943   4.078  21.969  0.00  0.00    +0.000 HD
ATOM     32  H   UNL     1     -11.600   5.130  23.021  0.00  0.00    +0.000 HD
ATOM     33  H   UNL     1     -12.314   5.395  21.457  0.00  0.00    +0.000 HD
ATOM     34  H   UNL     1     -10.040   4.881  21.115  0.00  0.00    +0.000 HD
ATOM     35  H   UNL     1     -13.940   2.099  21.144  0.00  0.00    +0.000 HD
ATOM     36  H   UNL     1     -12.475  -0.484  18.519  0.00  0.00    +0.000 HD
ATOM     37  H   UNL     1     -11.479  -2.534  17.553  0.00  0.00    +0.000 HD
ATOM     38  H   UNL     1      -9.153  -3.170  18.117  0.00  0.00    +0.000 HD
ATOM     39  H   UNL     1      -8.094  -2.211  20.150  0.00  0.00    +0.000 HD
ATOM     40  H   UNL     1      -9.129   2.130  26.556  0.00  0.00    +0.000 HD
ATOM     41  H   UNL     1      -8.495   4.419  27.211  0.00  0.00    +0.000 HD
ATOM     42  H   UNL     1      -7.977   6.115  25.489  0.00  0.00    +0.000 HD
ATOM     43  H   UNL     1      -8.541   5.703  23.104  0.00  0.00    +0.000 HD
ATOM     44  H   UNL     1     -10.131  -2.381  25.795  0.00  0.00    +0.000 HD
ATOM     45  H   UNL     1     -11.261  -1.819  23.669  0.00  0.00    +0.000 HD
ENDROOT
BRANCH   5  46
ATOM     46  C   UNL     1     -12.670   2.220  19.059  0.00  0.00    +0.000 C 
ATOM     47  H   UNL     1     -13.728   1.991  19.218  0.00  0.00    +0.000 HD
ATOM     48  H   UNL     1     -12.596   3.175  18.529  0.00  0.00    +0.000 HD
ATOM     49  H   UNL     1     -12.288   1.441  18.386  0.00  0.00    +0.000 HD
ENDBRANCH   5  46
BRANCH   1  50
ATOM     50  N   UNL     1     -13.262   3.399  23.805  0.00  0.00    +0.000 NA
ATOM     51  H   UNL     1     -14.268   3.404  23.982  0.00  0.00    +0.000 HD
BRANCH  50  52
ATOM     52  C   UNL     1     -12.578   4.326  24.689  0.00  0.00    +0.000 C 
ATOM     53  H   UNL     1     -12.023   3.804  25.474  0.00  0.00    +0.000 HD
ATOM     54  H   UNL     1     -13.318   4.948  25.204  0.00  0.00    +0.000 HD
ATOM     55  H   UNL     1     -11.898   4.991  24.150  0.00  0.00    +0.000 HD
ENDBRANCH  50  52
ENDBRANCH   1  50
BRANCH  30  56
ATOM     56  O   UNL     1      -9.868  -3.259  23.194  0.00  0.00    +0.000 OA
ATOM     57  H   UNL     1      -8.945  -3.395  23.432  0.00  0.00    +0.000 HD
ENDBRANCH  30  56
BRANCH   6  58
ATOM     58  O   UNL     1     -12.825   1.153  22.541  0.00  0.00    +0.000 OA
BRANCH  58  59
ATOM     59  C   UNL     1     -13.508  -0.054  22.236  0.00  0.00    +0.000 C 
ATOM     60  H   UNL     1     -13.895   0.026  21.215  0.00  0.00    +0.000 HD
ATOM     61  H   UNL     1     -12.857  -0.929  22.299  0.00  0.00    +0.000 HD
ATOM     62  H   UNL     1     -14.378  -0.197  22.870  0.00  0.00    +0.000 HD
ENDBRANCH  58  59
ENDBRANCH   6  58
TORSDOF 6
ENDMDL
MODEL 4
REMARK VINA RESULT:    -6.656      2.583      6.240
REMARK INTER + INTRA:          -8.623
REMARK INTER:                  -8.554
REMARK INTRA:                  -0.069
REMARK UNBOUND:                -0.411
REMARK  Name = 
REMARK  6 active torsions:
REMARK  status: ('A' for Active; 'I' for Inactive)
REMARK    1  A    between atoms: C_1  and  N_2
REMARK    2  A    between atoms: N_2  and  C_3
REMARK    3  A    between atoms: C_7  and  C_8
REMARK    4  A    between atoms: C_9  and  O_10
REMARK    5  A    between atoms: O_10  and  C_11
REMARK    6  A    between atoms: C_35  and  O_36
REMARK                            x       y       z     vdW  Elec       q    Type
REMARK                         _______ _______ _______ _____ _____    ______ ____
ROOT
ATOM      1  C   UNL     1      -9.984   1.570  16.838  0.00  0.00    +0.000 C 
ATOM      2  C   UNL     1     -11.429   1.845  17.269  0.00  0.00    +0.000 C 
ATOM      3  C   UNL     1     -12.226   0.616  17.663  0.00  0.00    +0.000 C 
ATOM      4  O   UNL     1     -11.507  -0.092  18.657  0.00  0.00    +0.000 OA
ATOM      5  C   UNL     1     -10.261  -0.686  18.255  0.00  0.00    +0.000 C 
ATOM      6  C   UNL     1      -9.400   0.146  17.203  0.00  0.00    +0.000 C 
ATOM      7  N   UNL     1     -10.627  -2.005  17.796  0.00  0.00    +0.000 N 
ATOM      8  C   UNL     1     -10.123  -3.312  17.997  0.00  0.00    +0.000 A 
ATOM      9  C   UNL     1      -9.114  -3.847  18.822  0.00  0.00    +0.000 A 
ATOM     10  C   UNL     1      -9.060  -5.240  18.983  0.00  0.00    +0.000 A 
ATOM     11  C   UNL     1     -10.015  -6.072  18.411  0.00  0.00    +0.000 A 
ATOM     12  C   UNL     1     -10.834  -5.578  17.406  0.00  0.00    +0.000 A 
ATOM     13  C   UNL     1     -10.735  -4.225  17.058  0.00  0.00    +0.000 A 
ATOM     14  C   UNL     1     -11.313  -3.455  16.043  0.00  0.00    +0.000 A 
ATOM     15  C   UNL     1     -11.167  -3.606  14.645  0.00  0.00    +0.000 A 
ATOM     16  C   UNL     1     -11.907  -2.674  13.884  0.00  0.00    +0.000 A 
ATOM     17  C   UNL     1     -12.411  -1.627  14.675  0.00  0.00    +0.000 A 
ATOM     18  C   UNL     1     -13.088  -0.466  14.262  0.00  0.00    +0.000 A 
ATOM     19  C   UNL     1     -13.453   0.109  13.033  0.00  0.00    +0.000 A 
ATOM     20  C   UNL     1     -14.383   1.150  13.012  0.00  0.00    +0.000 A 
ATOM     21  C   UNL     1     -14.983   1.588  14.189  0.00  0.00    +0.000 A 
ATOM     22  C   UNL     1     -14.524   1.159  15.438  0.00  0.00    +0.000 A 
ATOM     23  C   UNL     1     -13.483   0.220  15.467  0.00  0.00    +0.000 A 
ATOM     24  N   UNL     1     -12.660  -0.191  16.545  0.00  0.00    +0.000 N 
ATOM     25  C   UNL     1     -12.156  -1.316  16.018  0.00  0.00    +0.000 A 
ATOM     26  C   UNL     1     -11.393  -2.235  16.687  0.00  0.00    +0.000 A 
ATOM     27  C   UNL     1     -11.670  -2.893  12.498  0.00  0.00    +0.000 C 
ATOM     28  O   UNL     1     -12.169  -2.461  11.468  0.00  0.00    +0.000 OA
ATOM     29  N   UNL     1     -10.603  -3.798  12.500  0.00  0.00    +0.000 N 
ATOM     30  C   UNL     1     -10.057  -4.081  13.809  0.00  0.00    +0.000 C 
ATOM     31  H   UNL     1      -9.365   2.275  17.413  0.00  0.00    +0.000 HD
ATOM     32  H   UNL     1     -11.988   2.405  16.513  0.00  0.00    +0.000 HD
ATOM     33  H   UNL     1     -11.382   2.511  18.141  0.00  0.00    +0.000 HD
ATOM     34  H   UNL     1     -13.150   0.953  18.147  0.00  0.00    +0.000 HD
ATOM     35  H   UNL     1      -8.421   0.365  17.655  0.00  0.00    +0.000 HD
ATOM     36  H   UNL     1      -8.397  -3.223  19.337  0.00  0.00    +0.000 HD
ATOM     37  H   UNL     1      -8.295  -5.681  19.616  0.00  0.00    +0.000 HD
ATOM     38  H   UNL     1     -10.106  -7.110  18.716  0.00  0.00    +0.000 HD
ATOM     39  H   UNL     1     -11.602  -6.202  16.952  0.00  0.00    +0.000 HD
ATOM     40  H   UNL     1     -13.027  -0.252  12.102  0.00  0.00    +0.000 HD
ATOM     41  H   UNL     1     -14.669   1.585  12.059  0.00  0.00    +0.000 HD
ATOM     42  H   UNL     1     -15.800   2.302  14.137  0.00  0.00    +0.000 HD
ATOM     43  H   UNL     1     -14.972   1.535  16.351  0.00  0.00    +0.000 HD
ATOM     44  H   UNL     1     -10.043  -3.833  11.659  0.00  0.00    +0.000 HD
ATOM     45  H   UNL     1      -9.170  -3.447  13.940  0.00  0.00    +0.000 HD
ENDROOT
BRANCH   5  46
ATOM     46  C   UNL     1      -9.484  -0.693  19.585  0.00  0.00    +0.000 C 
ATOM     47  H   UNL     1      -8.608  -1.349  19.541  0.00  0.00    +0.000 HD
ATOM     48  H   UNL     1      -9.156   0.306  19.888  0.00  0.00    +0.000 HD
ATOM     49  H   UNL     1     -10.119  -1.089  20.389  0.00  0.00    +0.000 HD
ENDBRANCH   5  46
BRANCH   1  50
ATOM     50  N   UNL     1      -9.769   1.912  15.414  0.00  0.00    +0.000 NA
ATOM     51  H   UNL     1      -8.896   2.433  15.327  0.00  0.00    +0.000 HD
BRANCH  50  52
ATOM     52  C   UNL     1     -10.859   2.617  14.764  0.00  0.00    +0.000 C 
ATOM     53  H   UNL     1     -11.314   3.360  15.426  0.00  0.00    +0.000 HD
ATOM     54  H   UNL     1     -11.654   1.906  14.515  0.00  0.00    +0.000 HD
ATOM     55  H   UNL     1     -10.545   3.106  13.838  0.00  0.00    +0.000 HD
ENDBRANCH  50  52
ENDBRANCH   1  50
BRANCH  30  56
ATOM     56  O   UNL     1      -9.726  -5.429  13.886  0.00  0.00    +0.000 OA
ATOM     57  H   UNL     1      -8.768  -5.455  13.793  0.00  0.00    +0.000 HD
ENDBRANCH  30  56
BRANCH   6  58
ATOM     58  O   UNL     1      -9.064  -0.544  15.967  0.00  0.00    +0.000 OA
BRANCH  58  59
ATOM     59  C   UNL     1      -7.763  -0.323  15.443  0.00  0.00    +0.000 C 
ATOM     60  H   UNL     1      -7.851   0.380  14.608  0.00  0.00    +0.000 HD
ATOM     61  H   UNL     1      -7.079   0.094  16.185  0.00  0.00    +0.000 HD
ATOM     62  H   UNL     1      -7.338  -1.229  15.020  0.00  0.00    +0.000 HD
ENDBRANCH  58  59
ENDBRANCH   6  58
TORSDOF 6
ENDMDL
MODEL 5
REMARK VINA RESULT:    -6.589      3.208      6.715
REMARK INTER + INTRA:          -8.541
REMARK INTER:                  -7.933
REMARK INTRA:                  -0.608
REMARK UNBOUND:                -0.411
REMARK  Name = 
REMARK  6 active torsions:
REMARK  status: ('A' for Active; 'I' for Inactive)
REMARK    1  A    between atoms: C_1  and  N_2
REMARK    2  A    between atoms: N_2  and  C_3
REMARK    3  A    between atoms: C_7  and  C_8
REMARK    4  A    between atoms: C_9  and  O_10
REMARK    5  A    between atoms: O_10  and  C_11
REMARK    6  A    between atoms: C_35  and  O_36
REMARK                            x       y       z     vdW  Elec       q    Type
REMARK                         _______ _______ _______ _____ _____    ______ ____
ROOT
ATOM      1  C   UNL     1     -10.746   2.162  15.410  0.00  0.00    +0.000 C 
ATOM      2  C   UNL     1     -12.236   2.441  15.636  0.00  0.00    +0.000 C 
ATOM      3  C   UNL     1     -13.051   1.244  16.084  0.00  0.00    +0.000 C 
ATOM      4  O   UNL     1     -12.441   0.682  17.232  0.00  0.00    +0.000 OA
ATOM      5  C   UNL     1     -11.147   0.084  17.050  0.00  0.00    +0.000 C 
ATOM      6  C   UNL     1     -10.183   0.812  16.010  0.00  0.00    +0.000 C 
ATOM      7  N   UNL     1     -11.433  -1.292  16.717  0.00  0.00    +0.000 N 
ATOM      8  C   UNL     1     -10.932  -2.548  17.131  0.00  0.00    +0.000 A 
ATOM      9  C   UNL     1     -10.018  -2.950  18.126  0.00  0.00    +0.000 A 
ATOM     10  C   UNL     1      -9.959  -4.311  18.461  0.00  0.00    +0.000 A 
ATOM     11  C   UNL     1     -10.826  -5.234  17.889  0.00  0.00    +0.000 A 
ATOM     12  C   UNL     1     -11.530  -4.890  16.745  0.00  0.00    +0.000 A 
ATOM     13  C   UNL     1     -11.415  -3.586  16.247  0.00  0.00    +0.000 A 
ATOM     14  C   UNL     1     -11.884  -2.961  15.088  0.00  0.00    +0.000 A 
ATOM     15  C   UNL     1     -11.573  -3.272  13.744  0.00  0.00    +0.000 A 
ATOM     16  C   UNL     1     -12.236  -2.461  12.796  0.00  0.00    +0.000 A 
ATOM     17  C   UNL     1     -12.846  -1.344  13.390  0.00  0.00    +0.000 A 
ATOM     18  C   UNL     1     -13.491  -0.263  12.765  0.00  0.00    +0.000 A 
ATOM     19  C   UNL     1     -13.720   0.150  11.441  0.00  0.00    +0.000 A 
ATOM     20  C   UNL     1     -14.659   1.151  11.188  0.00  0.00    +0.000 A 
ATOM     21  C   UNL     1     -15.401   1.707  12.227  0.00  0.00    +0.000 A 
ATOM     22  C   UNL     1     -15.083   1.444  13.562  0.00  0.00    +0.000 A 
ATOM     23  C   UNL     1     -14.036   0.549  13.825  0.00  0.00    +0.000 A 
ATOM     24  N   UNL     1     -13.338   0.296  15.031  0.00  0.00    +0.000 N 
ATOM     25  C   UNL     1     -12.756  -0.868  14.705  0.00  0.00    +0.000 A 
ATOM     26  C   UNL     1     -12.060  -1.676  15.564  0.00  0.00    +0.000 A 
ATOM     27  C   UNL     1     -11.834  -2.836  11.483  0.00  0.00    +0.000 C 
ATOM     28  O   UNL     1     -12.216  -2.547  10.358  0.00  0.00    +0.000 OA
ATOM     29  N   UNL     1     -10.758  -3.700  11.717  0.00  0.00    +0.000 N 
ATOM     30  C   UNL     1     -10.365  -3.808  13.103  0.00  0.00    +0.000 C 
ATOM     31  H   UNL     1     -10.211   2.951  15.961  0.00  0.00    +0.000 HD
ATOM     32  H   UNL     1     -12.712   2.889  14.760  0.00  0.00    +0.000 HD
ATOM     33  H   UNL     1     -12.303   3.208  16.420  0.00  0.00    +0.000 HD
ATOM     34  H   UNL     1     -14.032   1.606  16.415  0.00  0.00    +0.000 HD
ATOM     35  H   UNL     1      -9.268   1.114  16.540  0.00  0.00    +0.000 HD
ATOM     36  H   UNL     1      -9.377  -2.246  18.639  0.00  0.00    +0.000 HD
ATOM     37  H   UNL     1      -9.265  -4.648  19.225  0.00  0.00    +0.000 HD
ATOM     38  H   UNL     1     -10.933  -6.231  18.306  0.00  0.00    +0.000 HD
ATOM     39  H   UNL     1     -12.228  -5.587  16.285  0.00  0.00    +0.000 HD
ATOM     40  H   UNL     1     -13.182  -0.305  10.616  0.00  0.00    +0.000 HD
ATOM     41  H   UNL     1     -14.840   1.460  10.163  0.00  0.00    +0.000 HD
ATOM     42  H   UNL     1     -16.219   2.383  11.995  0.00  0.00    +0.000 HD
ATOM     43  H   UNL     1     -15.641   1.912  14.366  0.00  0.00    +0.000 HD
ATOM     44  H   UNL     1     -10.104  -3.818  10.956  0.00  0.00    +0.000 HD
ATOM     45  H   UNL     1      -9.510  -3.136  13.257  0.00  0.00    +0.000 HD
ENDROOT
BRANCH   5  46
ATOM     46  C   UNL     1     -10.530   0.259  18.451  0.00  0.00    +0.000 C 
ATOM     47  H   UNL     1      -9.528   0.698  18.402  0.00  0.00    +0.000 HD
ATOM     48  H   UNL     1     -11.149   0.876  19.110  0.00  0.00    +0.000 HD
ATOM     49  H   UNL     1     -10.409  -0.720  18.934  0.00  0.00    +0.000 HD
ENDBRANCH   5  46
BRANCH   1  50
ATOM     50  N   UNL     1     -10.372   2.339  13.988  0.00  0.00    +0.000 NA
ATOM     51  H   UNL     1      -9.498   2.865  13.939  0.00  0.00    +0.000 HD
BRANCH  50  52
ATOM     52  C   UNL     1     -11.386   2.941  13.141  0.00  0.00    +0.000 C 
ATOM     53  H   UNL     1     -12.144   2.214  12.835  0.00  0.00    +0.000 HD
ATOM     54  H   UNL     1     -10.919   3.299  12.216  0.00  0.00    +0.000 HD
ATOM     55  H   UNL     1     -11.877   3.793  13.619  0.00  0.00    +0.000 HD
ENDBRANCH  50  52
ENDBRANCH   1  50
BRANCH  30  56
ATOM     56  O   UNL     1     -10.021  -5.127  13.382  0.00  0.00    +0.000 OA
ATOM     57  H   UNL     1      -9.251  -5.304  12.830  0.00  0.00    +0.000 HD
ENDBRANCH  30  56
BRANCH   6  58
ATOM     58  O   UNL     1      -9.693  -0.010  14.913  0.00  0.00    +0.000 OA
BRANCH  58  59
ATOM     59  C   UNL     1      -8.373  -0.519  15.035  0.00  0.00    +0.000 C 
ATOM     60  H   UNL     1      -8.434  -1.504  15.511  0.00  0.00    +0.000 HD
ATOM     61  H   UNL     1      -7.876  -0.626  14.068  0.00  0.00    +0.000 HD
ATOM     62  H   UNL     1      -7.764   0.090  15.696  0.00  0.00    +0.000 HD
ENDBRANCH  58  59
ENDBRANCH   6  58
TORSDOF 6
ENDMDL
MODEL 6
REMARK VINA RESULT:    -6.312      2.292      5.699
REMARK INTER + INTRA:          -8.199
REMARK INTER:                  -7.801
REMARK INTRA:                  -0.399
REMARK UNBOUND:                -0.411
REMARK  Name = 
REMARK  6 active torsions:
REMARK  status: ('A' for Active; 'I' for Inactive)
REMARK    1  A    between atoms: C_1  and  N_2
REMARK    2  A    between atoms: N_2  and  C_3
REMARK    3  A    between atoms: C_7  and  C_8
REMARK    4  A    between atoms: C_9  and  O_10
REMARK    5  A    between atoms: O_10  and  C_11
REMARK    6  A    between atoms: C_35  and  O_36
REMARK                            x       y       z     vdW  Elec       q    Type
REMARK                         _______ _______ _______ _____ _____    ______ ____
ROOT
ATOM      1  C   UNL     1     -10.480  -1.570  24.097  0.00  0.00    +0.000 C 
ATOM      2  C   UNL     1      -8.949  -1.602  24.168  0.00  0.00    +0.000 C 
ATOM      3  C   UNL     1      -8.242  -0.707  23.170  0.00  0.00    +0.000 C 
ATOM      4  O   UNL     1      -8.746   0.610  23.302  0.00  0.00    +0.000 OA
ATOM      5  C   UNL     1     -10.121   0.816  22.935  0.00  0.00    +0.000 C 
ATOM      6  C   UNL     1     -11.122  -0.374  23.285  0.00  0.00    +0.000 C 
ATOM      7  N   UNL     1     -10.069   1.142  21.529  0.00  0.00    +0.000 N 
ATOM      8  C   UNL     1     -10.664   2.125  20.706  0.00  0.00    +0.000 A 
ATOM      9  C   UNL     1     -11.469   3.253  20.966  0.00  0.00    +0.000 A 
ATOM     10  C   UNL     1     -11.657   4.185  19.934  0.00  0.00    +0.000 A 
ATOM     11  C   UNL     1     -11.011   4.049  18.711  0.00  0.00    +0.000 A 
ATOM     12  C   UNL     1     -10.442   2.831  18.372  0.00  0.00    +0.000 A 
ATOM     13  C   UNL     1     -10.456   1.794  19.314  0.00  0.00    +0.000 A 
ATOM     14  C   UNL     1     -10.083   0.447  19.257  0.00  0.00    +0.000 A 
ATOM     15  C   UNL     1     -10.626  -0.573  18.441  0.00  0.00    +0.000 A 
ATOM     16  C   UNL     1     -10.007  -1.832  18.607  0.00  0.00    +0.000 A 
ATOM     17  C   UNL     1      -9.175  -1.869  19.739  0.00  0.00    +0.000 A 
ATOM     18  C   UNL     1      -8.492  -2.968  20.288  0.00  0.00    +0.000 A 
ATOM     19  C   UNL     1      -8.406  -4.344  20.017  0.00  0.00    +0.000 A 
ATOM     20  C   UNL     1      -7.391  -5.098  20.608  0.00  0.00    +0.000 A 
ATOM     21  C   UNL     1      -6.440  -4.490  21.422  0.00  0.00    +0.000 A 
ATOM     22  C   UNL     1      -6.591  -3.167  21.847  0.00  0.00    +0.000 A 
ATOM     23  C   UNL     1      -7.697  -2.447  21.372  0.00  0.00    +0.000 A 
ATOM     24  N   UNL     1      -8.239  -1.216  21.817  0.00  0.00    +0.000 N 
ATOM     25  C   UNL     1      -9.010  -0.923  20.760  0.00  0.00    +0.000 A 
ATOM     26  C   UNL     1      -9.673   0.258  20.563  0.00  0.00    +0.000 A 
ATOM     27  C   UNL     1     -10.642  -2.790  17.766  0.00  0.00    +0.000 C 
ATOM     28  O   UNL     1     -10.393  -3.944  17.447  0.00  0.00    +0.000 OA
ATOM     29  N   UNL     1     -11.776  -2.108  17.311  0.00  0.00    +0.000 N 
ATOM     30  C   UNL     1     -11.974  -0.806  17.908  0.00  0.00    +0.000 C 
ATOM     31  H   UNL     1     -10.821  -1.412  25.132  0.00  0.00    +0.000 HD
ATOM     32  H   UNL     1      -8.551  -2.617  24.082  0.00  0.00    +0.000 HD
ATOM     33  H   UNL     1      -8.669  -1.271  25.177  0.00  0.00    +0.000 HD
ATOM     34  H   UNL     1      -7.184  -0.651  23.455  0.00  0.00    +0.000 HD
ATOM     35  H   UNL     1     -11.902   0.017  23.954  0.00  0.00    +0.000 HD
ATOM     36  H   UNL     1     -11.930   3.423  21.928  0.00  0.00    +0.000 HD
ATOM     37  H   UNL     1     -12.270   5.065  20.107  0.00  0.00    +0.000 HD
ATOM     38  H   UNL     1     -10.976   4.873  18.004  0.00  0.00    +0.000 HD
ATOM     39  H   UNL     1      -9.916   2.701  17.428  0.00  0.00    +0.000 HD
ATOM     40  H   UNL     1      -9.114  -4.824  19.348  0.00  0.00    +0.000 HD
ATOM     41  H   UNL     1      -7.323  -6.159  20.387  0.00  0.00    +0.000 HD
ATOM     42  H   UNL     1      -5.583  -5.065  21.761  0.00  0.00    +0.000 HD
ATOM     43  H   UNL     1      -5.865  -2.713  22.513  0.00  0.00    +0.000 HD
ATOM     44  H   UNL     1     -12.544  -2.680  16.988  0.00  0.00    +0.000 HD
ATOM     45  H   UNL     1     -12.701  -0.924  18.722  0.00  0.00    +0.000 HD
ENDROOT
BRANCH   5  46
ATOM     46  C   UNL     1     -10.498   2.014  23.827  0.00  0.00    +0.000 C 
ATOM     47  H   UNL     1     -10.288   2.970  23.336  0.00  0.00    +0.000 HD
ATOM     48  H   UNL     1     -11.551   2.001  24.128  0.00  0.00    +0.000 HD
ATOM     49  H   UNL     1      -9.894   2.005  24.745  0.00  0.00    +0.000 HD
ENDBRANCH   5  46
BRANCH   1  50
ATOM     50  N   UNL     1     -11.031  -2.881  23.685  0.00  0.00    +0.000 NA
ATOM     51  H   UNL     1     -11.334  -2.822  22.712  0.00  0.00    +0.000 HD
BRANCH  50  52
ATOM     52  C   UNL     1     -12.090  -3.410  24.525  0.00  0.00    +0.000 C 
ATOM     53  H   UNL     1     -11.786  -4.332  25.030  0.00  0.00    +0.000 HD
ATOM     54  H   UNL     1     -12.949  -3.677  23.900  0.00  0.00    +0.000 HD
ATOM     55  H   UNL     1     -12.430  -2.687  25.271  0.00  0.00    +0.000 HD
ENDBRANCH  50  52
ENDBRANCH   1  50
BRANCH  30  56
ATOM     56  O   UNL     1     -12.443   0.076  16.941  0.00  0.00    +0.000 OA
ATOM     57  H   UNL     1     -12.829   0.806  17.437  0.00  0.00    +0.000 HD
ENDBRANCH  30  56
BRANCH   6  58
ATOM     58  O   UNL     1     -11.870  -0.926  22.166  0.00  0.00    +0.000 OA
BRANCH  58  59
ATOM     59  C   UNL     1     -13.130  -0.336  21.884  0.00  0.00    +0.000 C 
ATOM     60  H   UNL     1     -13.693  -1.029  21.250  0.00  0.00    +0.000 HD
ATOM     61  H   UNL     1     -13.709  -0.135  22.788  0.00  0.00    +0.000 HD
ATOM     62  H   UNL     1     -13.028   0.577  21.303  0.00  0.00    +0.000 HD
ENDBRANCH  58  59
ENDBRANCH   6  58
TORSDOF 6
ENDMDL
MODEL 7
REMARK VINA RESULT:    -6.225      2.668      5.388
REMARK INTER + INTRA:          -8.092
REMARK INTER:                  -7.480
REMARK INTRA:                  -0.612
REMARK UNBOUND:                -0.411
REMARK  Name = 
REMARK  6 active torsions:
REMARK  status: ('A' for Active; 'I' for Inactive)
REMARK    1  A    between atoms: C_1  and  N_2
REMARK    2  A    between atoms: N_2  and  C_3
REMARK    3  A    between atoms: C_7  and  C_8
REMARK    4  A    between atoms: C_9  and  O_10
REMARK    5  A    between atoms: O_10  and  C_11
REMARK    6  A    between atoms: C_35  and  O_36
REMARK                            x       y       z     vdW  Elec       q    Type
REMARK                         _______ _______ _______ _____ _____    ______ ____
ROOT
ATOM      1  C   UNL     1      -9.361  -2.112  19.395  0.00  0.00    +0.000 C 
ATOM      2  C   UNL     1     -10.432  -2.878  20.179  0.00  0.00    +0.000 C 
ATOM      3  C   UNL     1     -11.681  -2.081  20.502  0.00  0.00    +0.000 C 
ATOM      4  O   UNL     1     -12.198  -1.538  19.300  0.00  0.00    +0.000 OA
ATOM      5  C   UNL     1     -11.395  -0.542  18.644  0.00  0.00    +0.000 C 
ATOM      6  C   UNL     1      -9.818  -0.761  18.712  0.00  0.00    +0.000 C 
ATOM      7  N   UNL     1     -11.837   0.707  19.218  0.00  0.00    +0.000 N 
ATOM      8  C   UNL     1     -12.185   1.978  18.705  0.00  0.00    +0.000 A 
ATOM      9  C   UNL     1     -12.340   2.491  17.402  0.00  0.00    +0.000 A 
ATOM     10  C   UNL     1     -12.973   3.734  17.249  0.00  0.00    +0.000 A 
ATOM     11  C   UNL     1     -13.505   4.413  18.339  0.00  0.00    +0.000 A 
ATOM     12  C   UNL     1     -13.129   4.042  19.622  0.00  0.00    +0.000 A 
ATOM     13  C   UNL     1     -12.290   2.933  19.786  0.00  0.00    +0.000 A 
ATOM     14  C   UNL     1     -11.649   2.377  20.898  0.00  0.00    +0.000 A 
ATOM     15  C   UNL     1     -10.669   2.972  21.726  0.00  0.00    +0.000 A 
ATOM     16  C   UNL     1     -10.235   2.148  22.789  0.00  0.00    +0.000 A 
ATOM     17  C   UNL     1     -10.663   0.818  22.635  0.00  0.00    +0.000 A 
ATOM     18  C   UNL     1     -10.335  -0.303  23.418  0.00  0.00    +0.000 A 
ATOM     19  C   UNL     1      -9.495  -0.560  24.515  0.00  0.00    +0.000 A 
ATOM     20  C   UNL     1      -9.636  -1.755  25.222  0.00  0.00    +0.000 A 
ATOM     21  C   UNL     1     -10.630  -2.667  24.880  0.00  0.00    +0.000 A 
ATOM     22  C   UNL     1     -11.367  -2.525  23.701  0.00  0.00    +0.000 A 
ATOM     23  C   UNL     1     -11.122  -1.396  22.905  0.00  0.00    +0.000 A 
ATOM     24  N   UNL     1     -11.512  -1.123  21.571  0.00  0.00    +0.000 N 
ATOM     25  C   UNL     1     -11.294   0.200  21.547  0.00  0.00    +0.000 A 
ATOM     26  C   UNL     1     -11.646   1.045  20.530  0.00  0.00    +0.000 A 
ATOM     27  C   UNL     1      -9.235   2.826  23.541  0.00  0.00    +0.000 C 
ATOM     28  O   UNL     1      -8.670   2.606  24.603  0.00  0.00    +0.000 OA
ATOM     29  N   UNL     1      -8.942   3.939  22.745  0.00  0.00    +0.000 N 
ATOM     30  C   UNL     1      -9.608   3.952  21.462  0.00  0.00    +0.000 C 
ATOM     31  H   UNL     1      -9.088  -2.766  18.552  0.00  0.00    +0.000 HD
ATOM     32  H   UNL     1     -10.039  -3.314  21.102  0.00  0.00    +0.000 HD
ATOM     33  H   UNL     1     -10.729  -3.736  19.562  0.00  0.00    +0.000 HD
ATOM     34  H   UNL     1     -12.444  -2.781  20.865  0.00  0.00    +0.000 HD
ATOM     35  H   UNL     1      -9.435  -0.836  17.684  0.00  0.00    +0.000 HD
ATOM     36  H   UNL     1     -11.998   1.956  16.527  0.00  0.00    +0.000 HD
ATOM     37  H   UNL     1     -13.108   4.152  16.256  0.00  0.00    +0.000 HD
ATOM     38  H   UNL     1     -14.183   5.249  18.199  0.00  0.00    +0.000 HD
ATOM     39  H   UNL     1     -13.542   4.546  20.495  0.00  0.00    +0.000 HD
ATOM     40  H   UNL     1      -8.745   0.163  24.822  0.00  0.00    +0.000 HD
ATOM     41  H   UNL     1      -8.992  -1.945  26.075  0.00  0.00    +0.000 HD
ATOM     42  H   UNL     1     -10.812  -3.524  25.523  0.00  0.00    +0.000 HD
ATOM     43  H   UNL     1     -12.113  -3.262  23.422  0.00  0.00    +0.000 HD
ATOM     44  H   UNL     1      -8.041   4.371  22.894  0.00  0.00    +0.000 HD
ATOM     45  H   UNL     1      -8.898   3.568  20.718  0.00  0.00    +0.000 HD
ENDROOT
BRANCH   5  46
ATOM     46  C   UNL     1     -11.823  -0.726  17.175  0.00  0.00    +0.000 C 
ATOM     47  H   UNL     1     -11.357  -1.607  16.722  0.00  0.00    +0.000 HD
ATOM     48  H   UNL     1     -12.909  -0.807  17.059  0.00  0.00    +0.000 HD
ATOM     49  H   UNL     1     -11.492   0.134  16.576  0.00  0.00    +0.000 HD
ENDBRANCH   5  46
BRANCH   1  50
ATOM     50  N   UNL     1      -8.124  -1.943  20.191  0.00  0.00    +0.000 NA
ATOM     51  H   UNL     1      -7.318  -2.153  19.600  0.00  0.00    +0.000 HD
BRANCH  50  52
ATOM     52  C   UNL     1      -8.065  -2.697  21.431  0.00  0.00    +0.000 C 
ATOM     53  H   UNL     1      -8.920  -2.481  22.078  0.00  0.00    +0.000 HD
ATOM     54  H   UNL     1      -7.175  -2.397  21.995  0.00  0.00    +0.000 HD
ATOM     55  H   UNL     1      -8.006  -3.775  21.260  0.00  0.00    +0.000 HD
ENDBRANCH  50  52
ENDBRANCH   1  50
BRANCH  30  56
ATOM     56  O   UNL     1      -9.996   5.253  21.160  0.00  0.00    +0.000 OA
ATOM     57  H   UNL     1     -10.657   5.159  20.465  0.00  0.00    +0.000 HD
ENDBRANCH  30  56
BRANCH   6  58
ATOM     58  O   UNL     1      -9.048   0.330  19.289  0.00  0.00    +0.000 OA
BRANCH  58  59
ATOM     59  C   UNL     1      -8.504   1.279  18.385  0.00  0.00    +0.000 C 
ATOM     60  H   UNL     1      -9.262   2.050  18.208  0.00  0.00    +0.000 HD
ATOM     61  H   UNL     1      -7.601   1.756  18.772  0.00  0.00    +0.000 HD
ATOM     62  H   UNL     1      -8.300   0.840  17.412  0.00  0.00    +0.000 HD
ENDBRANCH  58  59
ENDBRANCH   6  58
TORSDOF 6
ENDMDL
MODEL 8
REMARK VINA RESULT:    -6.155      2.401      3.828
REMARK INTER + INTRA:          -8.005
REMARK INTER:                  -7.397
REMARK INTRA:                  -0.608
REMARK UNBOUND:                -0.411
REMARK  Name = 
REMARK  6 active torsions:
REMARK  status: ('A' for Active; 'I' for Inactive)
REMARK    1  A    between atoms: C_1  and  N_2
REMARK    2  A    between atoms: N_2  and  C_3
REMARK    3  A    between atoms: C_7  and  C_8
REMARK    4  A    between atoms: C_9  and  O_10
REMARK    5  A    between atoms: O_10  and  C_11
REMARK    6  A    between atoms: C_35  and  O_36
REMARK                            x       y       z     vdW  Elec       q    Type
REMARK                         _______ _______ _______ _____ _____    ______ ____
ROOT
ATOM      1  C   UNL     1      -9.597   1.517  13.680  0.00  0.00    +0.000 C 
ATOM      2  C   UNL     1     -11.029   1.645  13.151  0.00  0.00    +0.000 C 
ATOM      3  C   UNL     1     -12.116   1.424  14.185  0.00  0.00    +0.000 C 
ATOM      4  O   UNL     1     -11.883   2.287  15.283  0.00  0.00    +0.000 OA
ATOM      5  C   UNL     1     -10.702   2.036  16.063  0.00  0.00    +0.000 C 
ATOM      6  C   UNL     1      -9.421   1.545  15.251  0.00  0.00    +0.000 C 
ATOM      7  N   UNL     1     -11.139   1.109  17.081  0.00  0.00    +0.000 N 
ATOM      8  C   UNL     1     -10.965   1.004  18.481  0.00  0.00    +0.000 A 
ATOM      9  C   UNL     1     -10.377   1.838  19.453  0.00  0.00    +0.000 A 
ATOM     10  C   UNL     1     -10.628   1.559  20.805  0.00  0.00    +0.000 A 
ATOM     11  C   UNL     1     -11.491   0.538  21.185  0.00  0.00    +0.000 A 
ATOM     12  C   UNL     1     -11.854  -0.427  20.257  0.00  0.00    +0.000 A 
ATOM     13  C   UNL     1     -11.409  -0.295  18.935  0.00  0.00    +0.000 A 
ATOM     14  C   UNL     1     -11.495  -1.123  17.812  0.00  0.00    +0.000 A 
ATOM     15  C   UNL     1     -10.950  -2.417  17.641  0.00  0.00    +0.000 A 
ATOM     16  C   UNL     1     -11.237  -3.001  16.387  0.00  0.00    +0.000 A 
ATOM     17  C   UNL     1     -11.764  -2.069  15.477  0.00  0.00    +0.000 A 
ATOM     18  C   UNL     1     -12.058  -2.246  14.114  0.00  0.00    +0.000 A 
ATOM     19  C   UNL     1     -11.913  -3.281  13.173  0.00  0.00    +0.000 A 
ATOM     20  C   UNL     1     -12.587  -3.199  11.954  0.00  0.00    +0.000 A 
ATOM     21  C   UNL     1     -13.434  -2.128  11.683  0.00  0.00    +0.000 A 
ATOM     22  C   UNL     1     -13.471  -1.007  12.516  0.00  0.00    +0.000 A 
ATOM     23  C   UNL     1     -12.678  -1.021  13.673  0.00  0.00    +0.000 A 
ATOM     24  N   UNL     1     -12.319   0.038  14.542  0.00  0.00    +0.000 N 
ATOM     25  C   UNL     1     -11.888  -0.677  15.591  0.00  0.00    +0.000 A 
ATOM     26  C   UNL     1     -11.549  -0.168  16.815  0.00  0.00    +0.000 A 
ATOM     27  C   UNL     1     -10.624  -4.283  16.306  0.00  0.00    +0.000 C 
ATOM     28  O   UNL     1     -10.691  -5.213  15.514  0.00  0.00    +0.000 OA
ATOM     29  N   UNL     1      -9.791  -4.306  17.430  0.00  0.00    +0.000 N 
ATOM     30  C   UNL     1      -9.740  -3.062  18.165  0.00  0.00    +0.000 C 
ATOM     31  H   UNL     1      -9.070   2.419  13.330  0.00  0.00    +0.000 HD
ATOM     32  H   UNL     1     -11.215   0.993  12.293  0.00  0.00    +0.000 HD
ATOM     33  H   UNL     1     -11.136   2.667  12.762  0.00  0.00    +0.000 HD
ATOM     34  H   UNL     1     -13.069   1.748  13.749  0.00  0.00    +0.000 HD
ATOM     35  H   UNL     1      -8.609   2.267  15.418  0.00  0.00    +0.000 HD
ATOM     36  H   UNL     1      -9.756   2.683  19.189  0.00  0.00    +0.000 HD
ATOM     37  H   UNL     1     -10.190   2.187  21.575  0.00  0.00    +0.000 HD
ATOM     38  H   UNL     1     -11.858   0.468  22.204  0.00  0.00    +0.000 HD
ATOM     39  H   UNL     1     -12.541  -1.229  20.522  0.00  0.00    +0.000 HD
ATOM     40  H   UNL     1     -11.291  -4.144  13.389  0.00  0.00    +0.000 HD
ATOM     41  H   UNL     1     -12.479  -4.005  11.234  0.00  0.00    +0.000 HD
ATOM     42  H   UNL     1     -14.052  -2.150  10.790  0.00  0.00    +0.000 HD
ATOM     43  H   UNL     1     -14.106  -0.160  12.277  0.00  0.00    +0.000 HD
ATOM     44  H   UNL     1      -9.014  -4.951  17.400  0.00  0.00    +0.000 HD
ATOM     45  H   UNL     1      -8.839  -2.525  17.842  0.00  0.00    +0.000 HD
ENDROOT
BRANCH   5  46
ATOM     46  C   UNL     1     -10.391   3.443  16.609  0.00  0.00    +0.000 C 
ATOM     47  H   UNL     1      -9.756   3.403  17.500  0.00  0.00    +0.000 HD
ATOM     48  H   UNL     1      -9.909   4.086  15.866  0.00  0.00    +0.000 HD
ATOM     49  H   UNL     1     -11.320   3.939  16.920  0.00  0.00    +0.000 HD
ENDBRANCH   5  46
BRANCH   1  50
ATOM     50  N   UNL     1      -8.891   0.372  13.061  0.00  0.00    +0.000 NA
ATOM     51  H   UNL     1      -7.953   0.669  12.788  0.00  0.00    +0.000 HD
BRANCH  50  52
ATOM     52  C   UNL     1      -9.576  -0.263  11.949  0.00  0.00    +0.000 C 
ATOM     53  H   UNL     1     -10.644  -0.388  12.148  0.00  0.00    +0.000 HD
ATOM     54  H   UNL     1      -9.174  -1.272  11.805  0.00  0.00    +0.000 HD
ATOM     55  H   UNL     1      -9.446   0.286  11.013  0.00  0.00    +0.000 HD
ENDBRANCH  50  52
ENDBRANCH   1  50
BRANCH  30  56
ATOM     56  O   UNL     1      -9.698  -3.336  19.528  0.00  0.00    +0.000 OA
ATOM     57  H   UNL     1     -10.377  -2.773  19.915  0.00  0.00    +0.000 HD
ENDBRANCH  30  56
BRANCH   6  58
ATOM     58  O   UNL     1      -8.847   0.276  15.673  0.00  0.00    +0.000 OA
BRANCH  58  59
ATOM     59  C   UNL     1      -7.695   0.337  16.501  0.00  0.00    +0.000 C 
ATOM     60  H   UNL     1      -7.457  -0.682  16.824  0.00  0.00    +0.000 HD
ATOM     61  H   UNL     1      -6.830   0.753  15.981  0.00  0.00    +0.000 HD
ATOM     62  H   UNL     1      -7.881   0.899  17.412  0.00  0.00    +0.000 HD
ENDBRANCH  58  59
ENDBRANCH   6  58
TORSDOF 6
ENDMDL
MODEL 9
REMARK VINA RESULT:    -5.995      2.216      5.691
REMARK INTER + INTRA:          -7.808
REMARK INTER:                  -7.201
REMARK INTRA:                  -0.607
REMARK UNBOUND:                -0.411
REMARK  Name = 
REMARK  6 active torsions:
REMARK  status: ('A' for Active; 'I' for Inactive)
REMARK    1  A    between atoms: C_1  and  N_2
REMARK    2  A    between atoms: N_2  and  C_3
REMARK    3  A    between atoms: C_7  and  C_8
REMARK    4  A    between atoms: C_9  and  O_10
REMARK    5  A    between atoms: O_10  and  C_11
REMARK    6  A    between atoms: C_35  and  O_36
REMARK                            x       y       z     vdW  Elec       q    Type
REMARK                         _______ _______ _______ _____ _____    ______ ____
ROOT
ATOM      1  C   UNL     1     -10.968   0.518  13.982  0.00  0.00    +0.000 C 
ATOM      2  C   UNL     1      -9.455   0.659  13.784  0.00  0.00    +0.000 C 
ATOM      3  C   UNL     1      -8.617  -0.396  14.481  0.00  0.00    +0.000 C 
ATOM      4  O   UNL     1      -9.081  -1.676  14.091  0.00  0.00    +0.000 OA
ATOM      5  C   UNL     1     -10.403  -2.043  14.521  0.00  0.00    +0.000 C 
ATOM      6  C   UNL     1     -11.479  -0.868  14.548  0.00  0.00    +0.000 C 
ATOM      7  N   UNL     1     -10.197  -2.677  15.802  0.00  0.00    +0.000 N 
ATOM      8  C   UNL     1     -10.669  -3.856  16.424  0.00  0.00    +0.000 A 
ATOM      9  C   UNL     1     -11.451  -4.942  15.982  0.00  0.00    +0.000 A 
ATOM     10  C   UNL     1     -11.499  -6.094  16.782  0.00  0.00    +0.000 A 
ATOM     11  C   UNL     1     -10.739  -6.201  17.940  0.00  0.00    +0.000 A 
ATOM     12  C   UNL     1     -10.186  -5.059  18.501  0.00  0.00    +0.000 A 
ATOM     13  C   UNL     1     -10.335  -3.838  17.831  0.00  0.00    +0.000 A 
ATOM     14  C   UNL     1     -10.010  -2.520  18.166  0.00  0.00    +0.000 A 
ATOM     15  C   UNL     1     -10.507  -1.747  19.241  0.00  0.00    +0.000 A 
ATOM     16  C   UNL     1      -9.957  -0.448  19.319  0.00  0.00    +0.000 A 
ATOM     17  C   UNL     1      -9.245  -0.104  18.157  0.00  0.00    +0.000 A 
ATOM     18  C   UNL     1      -8.664   1.130  17.819  0.00  0.00    +0.000 A 
ATOM     19  C   UNL     1      -8.604   2.412  18.394  0.00  0.00    +0.000 A 
ATOM     20  C   UNL     1      -7.683   3.340  17.907  0.00  0.00    +0.000 A 
ATOM     21  C   UNL     1      -6.796   2.992  16.892  0.00  0.00    +0.000 A 
ATOM     22  C   UNL     1      -6.938   1.794  16.187  0.00  0.00    +0.000 A 
ATOM     23  C   UNL     1      -7.962   0.919  16.578  0.00  0.00    +0.000 A 
ATOM     24  N   UNL     1      -8.498  -0.209  15.909  0.00  0.00    +0.000 N 
ATOM     25  C   UNL     1      -9.147  -0.781  16.933  0.00  0.00    +0.000 A 
ATOM     26  C   UNL     1      -9.741  -2.014  16.908  0.00  0.00    +0.000 A 
ATOM     27  C   UNL     1     -10.540   0.253  20.412  0.00  0.00    +0.000 C 
ATOM     28  O   UNL     1     -10.305   1.317  20.966  0.00  0.00    +0.000 OA
ATOM     29  N   UNL     1     -11.596  -0.582  20.795  0.00  0.00    +0.000 N 
ATOM     30  C   UNL     1     -11.802  -1.723  19.932  0.00  0.00    +0.000 C 
ATOM     31  H   UNL     1     -11.406   0.579  12.974  0.00  0.00    +0.000 HD
ATOM     32  H   UNL     1      -9.090   1.650  14.068  0.00  0.00    +0.000 HD
ATOM     33  H   UNL     1      -9.266   0.583  12.705  0.00  0.00    +0.000 HD
ATOM     34  H   UNL     1      -7.592  -0.321  14.097  0.00  0.00    +0.000 HD
ATOM     35  H   UNL     1     -12.307  -1.143  13.878  0.00  0.00    +0.000 HD
ATOM     36  H   UNL     1     -12.000  -4.916  15.051  0.00  0.00    +0.000 HD
ATOM     37  H   UNL     1     -12.092  -6.947  16.464  0.00  0.00    +0.000 HD
ATOM     38  H   UNL     1     -10.601  -7.160  18.430  0.00  0.00    +0.000 HD
ATOM     39  H   UNL     1      -9.573  -5.116  19.399  0.00  0.00    +0.000 HD
ATOM     40  H   UNL     1      -9.259   2.683  19.217  0.00  0.00    +0.000 HD
ATOM     41  H   UNL     1      -7.634   4.325  18.361  0.00  0.00    +0.000 HD
ATOM     42  H   UNL     1      -6.000   3.680  16.621  0.00  0.00    +0.000 HD
ATOM     43  H   UNL     1      -6.265   1.548  15.372  0.00  0.00    +0.000 HD
ATOM     44  H   UNL     1     -12.349  -0.146  21.308  0.00  0.00    +0.000 HD
ATOM     45  H   UNL     1     -12.612  -1.468  19.235  0.00  0.00    +0.000 HD
ENDROOT
BRANCH   5  46
ATOM     46  C   UNL     1     -10.822  -3.028  13.412  0.00  0.00    +0.000 C 
ATOM     47  H   UNL     1     -10.562  -2.653  12.416  0.00  0.00    +0.000 HD
ATOM     48  H   UNL     1     -10.377  -4.020  13.538  0.00  0.00    +0.000 HD
ATOM     49  H   UNL     1     -11.913  -3.154  13.414  0.00  0.00    +0.000 HD
ENDBRANCH   5  46
BRANCH   1  50
ATOM     50  N   UNL     1     -11.525   1.665  14.734  0.00  0.00    +0.000 NA
ATOM     51  H   UNL     1     -12.386   1.974  14.279  0.00  0.00    +0.000 HD
BRANCH  50  52
ATOM     52  C   UNL     1     -10.621   2.782  14.940  0.00  0.00    +0.000 C 
ATOM     53  H   UNL     1      -9.574   2.466  14.921  0.00  0.00    +0.000 HD
ATOM     54  H   UNL     1     -10.790   3.208  15.935  0.00  0.00    +0.000 HD
ATOM     55  H   UNL     1     -10.769   3.578  14.206  0.00  0.00    +0.000 HD
ENDBRANCH  50  52
ENDBRANCH   1  50
BRANCH  30  56
ATOM     56  O   UNL     1     -12.138  -2.829  20.705  0.00  0.00    +0.000 OA
ATOM     57  H   UNL     1     -12.191  -2.494  21.607  0.00  0.00    +0.000 HD
ENDBRANCH  30  56
BRANCH   6  58
ATOM     58  O   UNL     1     -12.132  -0.631  15.826  0.00  0.00    +0.000 OA
BRANCH  58  59
ATOM     59  C   UNL     1     -13.440  -1.160  15.986  0.00  0.00    +0.000 C 
ATOM     60  H   UNL     1     -13.921  -1.174  15.002  0.00  0.00    +0.000 HD
ATOM     61  H   UNL     1     -13.434  -2.175  16.389  0.00  0.00    +0.000 HD
ATOM     62  H   UNL     1     -14.061  -0.522  16.608  0.00  0.00    +0.000 HD
ENDBRANCH  58  59
ENDBRANCH   6  58
TORSDOF 6
ENDMDL
