REMARK  Name = 
REMARK  10 active torsions:
REMARK  status: ('A' for Active; 'I' for Inactive)
REMARK    1  A    between atoms: C_1  and  O_2
REMARK    2  A    between atoms: O_2  and  C_3
REMARK    3  A    between atoms: C_3  and  C_5
REMARK    4  A    between atoms: C_5  and  C_6
REMARK    5  A    between atoms: C_6  and  N_7
REMARK    6  A    between atoms: N_7  and  C_8
REMARK    7  A    between atoms: C_8  and  C_9
REMARK    8  A    between atoms: C_9  and  N_10
REMARK    9  A    between atoms: N_10  and  S_11
REMARK   10  A    between atoms: S_11  and  C_14
REMARK                            x       y       z     vdW  Elec       q    Type
REMARK                         _______ _______ _______ _____ _____    ______ ____
ROOT
ATOM      1  C   UNL     1       0.687   1.182   0.459  0.00  0.00    +0.000 C 
ATOM      2  H   UNL     1       1.052   0.182   0.718  0.00  0.00    +0.000 HD
ATOM      3  H   UNL     1       1.025   1.897   1.213  0.00  0.00    +0.000 HD
ENDROOT
BRANCH   1   4
ATOM      4  C   UNL     1      -0.847   1.179   0.430  0.00  0.00    +0.000 C 
ATOM      5  H   UNL     1      -1.203   2.182   0.166  0.00  0.00    +0.000 HD
ATOM      6  H   UNL     1      -1.197   0.488  -0.345  0.00  0.00    +0.000 HD
BRANCH   4   7
ATOM      7  N   UNL     1      -1.381   0.788   1.746  0.00  0.00    +0.000 NA
ATOM      8  H   UNL     1      -1.038  -0.144   1.986  0.00  0.00    +0.000 HD
BRANCH   7   9
ATOM      9  C   UNL     1      -2.849   0.780   1.736  0.00  0.00    +0.000 C 
ATOM     10  H   UNL     1      -3.219   1.779   1.477  0.00  0.00    +0.000 HD
ATOM     11  H   UNL     1      -3.210   0.082   0.971  0.00  0.00    +0.000 HD
BRANCH   9  12
ATOM     12  C   UNL     1      -3.419   0.376   3.098  0.00  0.00    +0.000 C 
ATOM     13  H   UNL     1      -3.084  -0.631   3.370  0.00  0.00    +0.000 HD
ATOM     14  H   UNL     1      -3.097   1.083   3.872  0.00  0.00    +0.000 HD
BRANCH  12  15
ATOM     15  C   UNL     1      -4.927   0.379   3.044  0.00  0.00    +0.000 C 
ATOM     16  O   UNL     1      -5.594   0.656   2.051  0.00  0.00    +0.000 OA
BRANCH  15  17
ATOM     17  O   UNL     1      -5.450   0.021   4.250  0.00  0.00    +0.000 OA
BRANCH  17  18
ATOM     18  C   UNL     1      -6.880  -0.006   4.269  0.00  0.00    +0.000 C 
ATOM     19  H   UNL     1      -7.205  -0.305   5.269  0.00  0.00    +0.000 HD
ATOM     20  H   UNL     1      -7.259  -0.740   3.549  0.00  0.00    +0.000 HD
ATOM     21  H   UNL     1      -7.286   0.988   4.055  0.00  0.00    +0.000 HD
ENDBRANCH  17  18
ENDBRANCH  15  17
ENDBRANCH  12  15
ENDBRANCH   9  12
ENDBRANCH   7   9
ENDBRANCH   4   7
ENDBRANCH   1   4
BRANCH   1  22
ATOM     22  N   UNL     1       1.263   1.584  -0.846  0.00  0.00    +0.000 NA
ATOM     23  H   UNL     1       0.912   2.469  -1.208  0.00  0.00    +0.000 HD
BRANCH  22  24
ATOM     24  S   UNL     1       2.968   1.587  -0.853  0.00  0.00    +0.000 S 
ATOM     25  O   UNL     1       3.396   2.488  -1.894  0.00  0.00    +0.000 OA
ATOM     26  O   UNL     1       3.388   1.786   0.523  0.00  0.00    +0.000 OA
BRANCH  24  27
ATOM     27  C   UNL     1       3.402  -0.076  -1.337  0.00  0.00    +0.000 A 
ATOM     28  C   UNL     1       4.147  -0.832  -0.413  0.00  0.00    +0.000 A 
ATOM     29  C   UNL     1       4.578  -2.113  -0.738  0.00  0.00    +0.000 A 
ATOM     30  C   UNL     1       4.265  -2.650  -1.982  0.00  0.00    +0.000 A 
ATOM     31  C   UNL     1       3.520  -1.910  -2.919  0.00  0.00    +0.000 A 
ATOM     32  C   UNL     1       3.212  -2.450  -4.171  0.00  0.00    +0.000 A 
ATOM     33  N   UNL     1       2.516  -1.813  -5.137  0.00  0.00    +0.000 NA
ATOM     34  C   UNL     1       2.110  -0.565  -4.850  0.00  0.00    +0.000 A 
ATOM     35  C   UNL     1       2.353   0.069  -3.639  0.00  0.00    +0.000 A 
ATOM     36  C   UNL     1       3.075  -0.600  -2.622  0.00  0.00    +0.000 A 
ATOM     37  H   UNL     1       4.414  -0.421   0.560  0.00  0.00    +0.000 HD
ATOM     38  H   UNL     1       5.167  -2.689  -0.028  0.00  0.00    +0.000 HD
ATOM     39  H   UNL     1       4.614  -3.652  -2.224  0.00  0.00    +0.000 HD
ATOM     40  H   UNL     1       3.531  -3.453  -4.446  0.00  0.00    +0.000 HD
ATOM     41  H   UNL     1       1.567  -0.058  -5.643  0.00  0.00    +0.000 HD
ATOM     42  H   UNL     1       1.983   1.081  -3.520  0.00  0.00    +0.000 HD
ENDBRANCH  24  27
ENDBRANCH  22  24
ENDBRANCH   1  22
TORSDOF 10
