REMARK  Name = 
REMARK  5 active torsions:
REMARK  status: ('A' for Active; 'I' for Inactive)
REMARK    1  A    between atoms: C_1  and  N_2
REMARK    2  A    between atoms: C_12  and  C_13
REMARK    3  A    between atoms: C_13  and  C_14
REMARK    4  A    between atoms: C_14  and  N_15
REMARK    5  A    between atoms: C_18  and  C_19
REMARK                            x       y       z     vdW  Elec       q    Type
REMARK                         _______ _______ _______ _____ _____    ______ ____
ROOT
ATOM      1  N   UNL     1      -5.039   4.175  -2.603  0.00  0.00    +0.000 N 
ATOM      2  C   UNL     1      -5.765   3.503  -3.614  0.00  0.00    +0.000 A 
ATOM      3  C   UNL     1      -4.763   3.222  -4.527  0.00  0.00    +0.000 A 
ATOM      4  C   UNL     1      -3.836   2.647  -3.610  0.00  0.00    +0.000 A 
ATOM      5  C   UNL     1      -3.105   1.454  -3.632  0.00  0.00    +0.000 A 
ATOM      6  C   UNL     1      -2.395   1.100  -2.490  0.00  0.00    +0.000 A 
ATOM      7  C   UNL     1      -2.277   2.005  -1.425  0.00  0.00    +0.000 A 
ATOM      8  C   UNL     1      -1.516   1.670  -0.292  0.00  0.00    +0.000 A 
ATOM      9  N   UNL     1      -0.638   0.642  -0.071  0.00  0.00    +0.000 N 
ATOM     10  C   UNL     1       0.247   0.978   0.939  0.00  0.00    +0.000 A 
ATOM     11  C   UNL     1       1.467   0.356   1.256  0.00  0.00    +0.000 A 
ATOM     12  C   UNL     1       2.226   0.984   2.253  0.00  0.00    +0.000 A 
ATOM     13  C   UNL     1       1.756   2.103   2.936  0.00  0.00    +0.000 A 
ATOM     14  C   UNL     1       0.512   2.662   2.630  0.00  0.00    +0.000 A 
ATOM     15  C   UNL     1      -0.255   2.117   1.587  0.00  0.00    +0.000 A 
ATOM     16  C   UNL     1      -1.406   2.436   0.841  0.00  0.00    +0.000 A 
ATOM     17  C   UNL     1      -1.954   3.757   0.841  0.00  0.00    +0.000 A 
ATOM     18  C   UNL     1      -2.360   4.161  -0.465  0.00  0.00    +0.000 A 
ATOM     19  C   UNL     1      -2.852   3.299  -1.455  0.00  0.00    +0.000 A 
ATOM     20  C   UNL     1      -3.822   3.490  -2.472  0.00  0.00    +0.000 A 
ATOM     21  C   UNL     1      -1.416   5.270  -0.686  0.00  0.00    +0.000 C 
ATOM     22  O   UNL     1      -0.733   5.578  -1.661  0.00  0.00    +0.000 OA
ATOM     23  N   UNL     1      -1.126   5.730   0.582  0.00  0.00    +0.000 N 
ATOM     24  C   UNL     1      -1.507   4.895   1.589  0.00  0.00    +0.000 C 
ATOM     25  O   UNL     1      -1.428   5.143   2.777  0.00  0.00    +0.000 OA
ATOM     26  H   UNL     1      -6.537   2.831  -3.238  0.00  0.00    +0.000 HD
ATOM     27  H   UNL     1      -4.434   4.037  -5.172  0.00  0.00    +0.000 HD
ATOM     28  H   UNL     1      -3.199   0.768  -4.466  0.00  0.00    +0.000 HD
ATOM     29  H   UNL     1      -1.940   0.117  -2.457  0.00  0.00    +0.000 HD
ATOM     30  H   UNL     1      -0.466  -0.086  -0.748  0.00  0.00    +0.000 HD
ATOM     31  H   UNL     1       3.213   0.611   2.515  0.00  0.00    +0.000 HD
ATOM     32  H   UNL     1       2.372   2.561   3.708  0.00  0.00    +0.000 HD
ATOM     33  H   UNL     1       0.199   3.540   3.183  0.00  0.00    +0.000 HD
ATOM     34  H   UNL     1      -0.313   6.308   0.747  0.00  0.00    +0.000 HD
ENDROOT
BRANCH   1  35
ATOM     35  C   UNL     1      -5.787   4.920  -1.614  0.00  0.00    +0.000 C 
ATOM     36  H   UNL     1      -5.315   5.892  -1.480  0.00  0.00    +0.000 HD
ATOM     37  H   UNL     1      -5.856   4.344  -0.691  0.00  0.00    +0.000 HD
ATOM     38  H   UNL     1      -6.802   5.077  -2.010  0.00  0.00    +0.000 HD
ENDBRANCH   1  35
BRANCH  11  39
ATOM     39  C   UNL     1       1.954  -0.858   0.486  0.00  0.00    +0.000 C 
ATOM     40  H   UNL     1       2.499  -0.517  -0.403  0.00  0.00    +0.000 HD
ATOM     41  H   UNL     1       1.061  -1.385   0.132  0.00  0.00    +0.000 HD
BRANCH  39  42
ATOM     42  C   UNL     1       2.807  -1.847   1.291  0.00  0.00    +0.000 C 
ATOM     43  H   UNL     1       2.272  -2.103   2.215  0.00  0.00    +0.000 HD
ATOM     44  H   UNL     1       3.729  -1.329   1.587  0.00  0.00    +0.000 HD
BRANCH  42  45
ATOM     45  N   UNL     1       3.219  -3.090   0.584  0.00  0.00    +0.000 NA
ATOM     46  C   UNL     1       4.013  -3.895   1.504  0.00  0.00    +0.000 C 
ATOM     47  C   UNL     1       4.474  -5.206   0.880  0.00  0.00    +0.000 C 
ATOM     48  C   UNL     1       3.287  -6.034   0.376  0.00  0.00    +0.000 C 
ATOM     49  C   UNL     1       2.456  -5.171  -0.571  0.00  0.00    +0.000 C 
ATOM     50  C   UNL     1       2.050  -3.836   0.062  0.00  0.00    +0.000 C 
ATOM     51  H   UNL     1       3.455  -4.106   2.429  0.00  0.00    +0.000 HD
ATOM     52  H   UNL     1       4.914  -3.335   1.798  0.00  0.00    +0.000 HD
ATOM     53  H   UNL     1       5.065  -5.769   1.608  0.00  0.00    +0.000 HD
ATOM     54  H   UNL     1       5.150  -5.001   0.043  0.00  0.00    +0.000 HD
ATOM     55  H   UNL     1       3.663  -6.901  -0.183  0.00  0.00    +0.000 HD
ATOM     56  H   UNL     1       1.553  -5.703  -0.892  0.00  0.00    +0.000 HD
ATOM     57  H   UNL     1       3.040  -4.970  -1.479  0.00  0.00    +0.000 HD
ATOM     58  H   UNL     1       1.314  -3.994   0.855  0.00  0.00    +0.000 HD
ATOM     59  H   UNL     1       1.561  -3.257  -0.725  0.00  0.00    +0.000 HD
BRANCH  48  60
ATOM     60  C   UNL     1       2.436  -6.596   1.513  0.00  0.00    +0.000 C 
ATOM     61  N   UNL     1       3.095  -7.391   2.402  0.00  0.00    +0.000 N 
ATOM     62  O   UNL     1       1.233  -6.401   1.644  0.00  0.00    +0.000 OA
ATOM     63  H   UNL     1       4.015  -7.766   2.220  0.00  0.00    +0.000 HD
ATOM     64  H   UNL     1       2.533  -7.834   3.120  0.00  0.00    +0.000 HD
ENDBRANCH  48  60
ENDBRANCH  42  45
ENDBRANCH  39  42
ENDBRANCH  11  39
TORSDOF 5
