REMARK  Name = 
REMARK  8 active torsions:
REMARK  status: ('A' for Active; 'I' for Inactive)
REMARK    1  A    between atoms: C_1  and  O_2
REMARK    2  A    between atoms: O_2  and  C_3
REMARK    3  A    between atoms: N_17  and  C_18
REMARK    4  A    between atoms: N_21  and  C_22
REMARK    5  A    between atoms: C_22  and  C_23
REMARK    6  A    between atoms: C_23  and  C_24
REMARK    7  A    between atoms: C_24  and  N_25
REMARK    8  A    between atoms: N_28  and  C_29
REMARK                            x       y       z     vdW  Elec       q    Type
REMARK                         _______ _______ _______ _____ _____    ______ ____
ROOT
ATOM      1  C   UNL     1      -3.371   1.546   0.545  0.00  0.00    +0.000 A 
ATOM      2  C   UNL     1      -3.816   1.330  -0.753  0.00  0.00    +0.000 A 
ATOM      3  C   UNL     1      -3.188   0.384  -1.574  0.00  0.00    +0.000 A 
ATOM      4  C   UNL     1      -2.095  -0.359  -1.092  0.00  0.00    +0.000 A 
ATOM      5  C   UNL     1      -1.268  -1.385  -1.521  0.00  0.00    +0.000 A 
ATOM      6  C   UNL     1      -1.309  -1.891  -2.835  0.00  0.00    +0.000 A 
ATOM      7  C   UNL     1      -0.574  -3.064  -3.068  0.00  0.00    +0.000 A 
ATOM      8  C   UNL     1       0.496  -3.462  -2.267  0.00  0.00    +0.000 A 
ATOM      9  C   UNL     1       0.669  -2.789  -1.016  0.00  0.00    +0.000 A 
ATOM     10  C   UNL     1       1.922  -2.853  -0.385  0.00  0.00    +0.000 A 
ATOM     11  C   UNL     1       3.065  -3.023  -1.177  0.00  0.00    +0.000 A 
ATOM     12  C   UNL     1       2.829  -3.328  -2.526  0.00  0.00    +0.000 A 
ATOM     13  C   UNL     1       3.135  -2.672  -3.776  0.00  0.00    +0.000 A 
ATOM     14  C   UNL     1       2.442  -3.352  -4.765  0.00  0.00    +0.000 A 
ATOM     15  N   UNL     1       2.015  -4.502  -4.116  0.00  0.00    +0.000 N 
ATOM     16  C   UNL     1       1.653  -4.035  -2.841  0.00  0.00    +0.000 A 
ATOM     17  C   UNL     1      -0.315  -1.823  -0.627  0.00  0.00    +0.000 A 
ATOM     18  N   UNL     1      -0.507  -0.929   0.435  0.00  0.00    +0.000 N 
ATOM     19  C   UNL     1      -1.631  -0.115   0.211  0.00  0.00    +0.000 A 
ATOM     20  C   UNL     1      -2.269   0.836   1.033  0.00  0.00    +0.000 A 
ATOM     21  C   UNL     1      -0.825  -3.450  -4.434  0.00  0.00    +0.000 C 
ATOM     22  O   UNL     1      -0.678  -4.494  -5.055  0.00  0.00    +0.000 OA
ATOM     23  N   UNL     1      -1.329  -2.308  -4.960  0.00  0.00    +0.000 N 
ATOM     24  C   UNL     1      -1.718  -1.344  -4.085  0.00  0.00    +0.000 C 
ATOM     25  O   UNL     1      -2.151  -0.257  -4.450  0.00  0.00    +0.000 OA
ATOM     26  H   UNL     1      -4.659   1.870  -1.170  0.00  0.00    +0.000 HD
ATOM     27  H   UNL     1      -3.581   0.221  -2.572  0.00  0.00    +0.000 HD
ATOM     28  H   UNL     1       2.092  -2.490   0.615  0.00  0.00    +0.000 HD
ATOM     29  H   UNL     1       4.023  -2.669  -0.836  0.00  0.00    +0.000 HD
ATOM     30  H   UNL     1       3.661  -1.739  -3.907  0.00  0.00    +0.000 HD
ATOM     31  H   UNL     1       2.306  -3.228  -5.833  0.00  0.00    +0.000 HD
ATOM     32  H   UNL     1      -1.919   1.030   2.043  0.00  0.00    +0.000 HD
ATOM     33  H   UNL     1      -1.274  -2.140  -5.962  0.00  0.00    +0.000 HD
ENDROOT
BRANCH  15  34
ATOM     34  C   UNL     1       2.832  -5.707  -4.298  0.00  0.00    +0.000 C 
ATOM     35  H   UNL     1       2.653  -6.100  -5.300  0.00  0.00    +0.000 HD
ATOM     36  H   UNL     1       2.589  -6.440  -3.527  0.00  0.00    +0.000 HD
ATOM     37  H   UNL     1       3.890  -5.419  -4.204  0.00  0.00    +0.000 HD
ENDBRANCH  15  34
BRANCH  18  38
ATOM     38  C   UNL     1       0.280  -0.859   1.657  0.00  0.00    +0.000 C 
ATOM     39  H   UNL     1       0.529  -1.887   1.932  0.00  0.00    +0.000 HD
ATOM     40  H   UNL     1      -0.359  -0.499   2.469  0.00  0.00    +0.000 HD
BRANCH  38  41
ATOM     41  C   UNL     1       1.565  -0.017   1.552  0.00  0.00    +0.000 C 
ATOM     42  H   UNL     1       2.157  -0.318   0.685  0.00  0.00    +0.000 HD
ATOM     43  H   UNL     1       2.189  -0.240   2.429  0.00  0.00    +0.000 HD
BRANCH  41  44
ATOM     44  C   UNL     1       1.367   1.497   1.441  0.00  0.00    +0.000 C 
ATOM     45  H   UNL     1       0.884   1.706   0.478  0.00  0.00    +0.000 HD
ATOM     46  H   UNL     1       2.360   1.973   1.389  0.00  0.00    +0.000 HD
BRANCH  44  47
ATOM     47  N   UNL     1       0.582   2.107   2.519  0.00  0.00    +0.000 NA
ATOM     48  C   UNL     1       1.169   1.934   3.858  0.00  0.00    +0.000 C 
ATOM     49  C   UNL     1       0.297   2.600   4.947  0.00  0.00    +0.000 C 
ATOM     50  N   UNL     1       0.028   4.035   4.738  0.00  0.00    +0.000 NA
ATOM     51  C   UNL     1      -0.474   4.234   3.362  0.00  0.00    +0.000 C 
ATOM     52  C   UNL     1       0.363   3.545   2.254  0.00  0.00    +0.000 C 
ATOM     53  H   UNL     1       2.190   2.339   3.890  0.00  0.00    +0.000 HD
ATOM     54  H   UNL     1       1.235   0.869   4.108  0.00  0.00    +0.000 HD
ATOM     55  H   UNL     1       0.753   2.441   5.932  0.00  0.00    +0.000 HD
ATOM     56  H   UNL     1      -0.669   2.078   4.984  0.00  0.00    +0.000 HD
ATOM     57  H   UNL     1      -0.561   5.305   3.141  0.00  0.00    +0.000 HD
ATOM     58  H   UNL     1      -1.495   3.837   3.314  0.00  0.00    +0.000 HD
ATOM     59  H   UNL     1       1.318   4.072   2.157  0.00  0.00    +0.000 HD
ATOM     60  H   UNL     1      -0.168   3.668   1.303  0.00  0.00    +0.000 HD
BRANCH  50  61
ATOM     61  C   UNL     1       1.210   4.848   5.009  0.00  0.00    +0.000 C 
ATOM     62  H   UNL     1       1.546   4.696   6.041  0.00  0.00    +0.000 HD
ATOM     63  H   UNL     1       0.968   5.912   4.916  0.00  0.00    +0.000 HD
ATOM     64  H   UNL     1       2.051   4.631   4.343  0.00  0.00    +0.000 HD
ENDBRANCH  50  61
ENDBRANCH  44  47
ENDBRANCH  41  44
ENDBRANCH  38  41
ENDBRANCH  18  38
BRANCH   1  65
ATOM     65  O   UNL     1      -3.923   2.427   1.439  0.00  0.00    +0.000 OA
BRANCH  65  66
ATOM     66  C   UNL     1      -5.069   3.151   1.005  0.00  0.00    +0.000 C 
ATOM     67  H   UNL     1      -5.415   3.764   1.843  0.00  0.00    +0.000 HD
ATOM     68  H   UNL     1      -5.889   2.479   0.728  0.00  0.00    +0.000 HD
ATOM     69  H   UNL     1      -4.816   3.825   0.181  0.00  0.00    +0.000 HD
ENDBRANCH  65  66
ENDBRANCH   1  65
TORSDOF 8
