MODEL 1
REMARK VINA RESULT:   -10.480      0.000      0.000
REMARK INTER + INTRA:         -19.653
REMARK INTER:                 -16.913
REMARK INTRA:                  -2.740
REMARK UNBOUND:                -2.740
REMARK  Name = 
REMARK  13 active torsions:
REMARK  status: ('A' for Active; 'I' for Inactive)
REMARK    1  A    between atoms: C_2  and  C_36
REMARK    2  A    between atoms: N_3  and  C_4
REMARK    3  A    between atoms: C_12  and  O_13
REMARK    4  A    between atoms: O_13  and  C_14
REMARK    5  A    between atoms: C_14  and  C_16
REMARK    6  A    between atoms: C_18  and  O_19
REMARK    7  A    between atoms: C_20  and  C_21
REMARK    8  A    between atoms: C_21  and  C_23
REMARK    9  A    between atoms: C_24  and  O_25
REMARK   10  A    between atoms: C_29  and  C_30
REMARK   11  A    between atoms: C_30  and  O_32
REMARK   12  A    between atoms: C_33  and  O_34
REMARK   13  A    between atoms: C_39  and  O_40
REMARK                            x       y       z     vdW  Elec       q    Type
REMARK                         _______ _______ _______ _____ _____    ______ ____
ROOT
ATOM      1  C   UNL     1      -9.277  -3.571  20.622  0.00  0.00    +0.000 C 
ATOM      2  C   UNL     1      -9.027  -2.290  21.374  0.00  0.00    +0.000 A 
ATOM      3  C   UNL     1      -9.606  -1.043  21.184  0.00  0.00    +0.000 A 
ATOM      4  C   UNL     1      -9.297  -0.019  22.083  0.00  0.00    +0.000 A 
ATOM      5  C   UNL     1      -8.433  -0.252  23.164  0.00  0.00    +0.000 A 
ATOM      6  C   UNL     1      -7.869  -1.514  23.362  0.00  0.00    +0.000 A 
ATOM      7  C   UNL     1      -8.171  -2.521  22.458  0.00  0.00    +0.000 A 
ATOM      8  C   UNL     1      -7.744  -3.961  22.512  0.00  0.00    +0.000 C 
ATOM      9  C   UNL     1      -8.085  -4.457  21.087  0.00  0.00    +0.000 C 
ATOM     10  H   UNL     1     -10.212  -3.996  21.010  0.00  0.00    +0.000 HD
ATOM     11  H   UNL     1     -10.305  -0.866  20.372  0.00  0.00    +0.000 HD
ATOM     12  H   UNL     1      -9.746   0.965  21.958  0.00  0.00    +0.000 HD
ATOM     13  H   UNL     1      -8.217   0.552  23.864  0.00  0.00    +0.000 HD
ATOM     14  H   UNL     1      -7.224  -1.700  24.214  0.00  0.00    +0.000 HD
ATOM     15  H   UNL     1      -8.340  -4.483  23.267  0.00  0.00    +0.000 HD
ATOM     16  H   UNL     1      -6.676  -4.046  22.738  0.00  0.00    +0.000 HD
ATOM     17  H   UNL     1      -8.356  -5.519  21.104  0.00  0.00    +0.000 HD
ENDROOT
BRANCH   1  20
ATOM     18  O   UNL     1     -11.657  -3.508  19.158  0.00  0.00    +0.000 OA
ATOM     19  C   UNL     1     -10.592  -3.421  18.559  0.00  0.00    +0.000 C 
ATOM     20  N   UNL     1      -9.369  -3.395  19.191  0.00  0.00    +0.000 N 
ATOM     21  H   UNL     1      -8.508  -3.287  18.675  0.00  0.00    +0.000 HD
BRANCH  19  22
ATOM     22  C   UNL     1     -10.583  -3.285  17.076  0.00  0.00    +0.000 A 
ATOM     23  C   UNL     1     -10.804  -4.434  16.300  0.00  0.00    +0.000 A 
ATOM     24  C   UNL     1     -10.784  -4.360  14.904  0.00  0.00    +0.000 A 
ATOM     25  C   UNL     1     -10.536  -3.136  14.292  0.00  0.00    +0.000 A 
ATOM     26  C   UNL     1     -10.310  -1.991  15.049  0.00  0.00    +0.000 A 
ATOM     27  C   UNL     1     -10.329  -2.061  16.444  0.00  0.00    +0.000 A 
ATOM     28  H   UNL     1     -10.988  -5.391  16.785  0.00  0.00    +0.000 HD
ATOM     29  H   UNL     1     -10.958  -5.259  14.321  0.00  0.00    +0.000 HD
ATOM     30  H   UNL     1     -10.101  -1.047  14.552  0.00  0.00    +0.000 HD
ATOM     31  H   UNL     1     -10.113  -1.165  17.015  0.00  0.00    +0.000 HD
BRANCH  25  32
ATOM     32  O   UNL     1     -10.493  -3.014  12.935  0.00  0.00    +0.000 OA
ATOM     33  H   UNL     1      -9.694  -3.458  12.605  0.00  0.00    +0.000 HD
ENDBRANCH  25  32
ENDBRANCH  19  22
ENDBRANCH   1  20
BRANCH   9  34
ATOM     34  O   UNL     1      -6.889  -4.250  20.289  0.00  0.00    +0.000 OA
BRANCH  34  35
ATOM     35  C   UNL     1      -6.270  -5.350  19.788  0.00  0.00    +0.000 C 
ATOM     36  O   UNL     1      -5.064  -5.560  19.778  0.00  0.00    +0.000 OA
BRANCH  35  37
ATOM     37  C   UNL     1      -7.257  -6.253  19.142  0.00  0.00    +0.000 A 
ATOM     38  C   UNL     1      -7.955  -7.183  19.928  0.00  0.00    +0.000 A 
ATOM     39  C   UNL     1      -8.778  -8.138  19.321  0.00  0.00    +0.000 A 
ATOM     40  C   UNL     1      -8.970  -8.162  17.923  0.00  0.00    +0.000 A 
ATOM     41  C   UNL     1      -8.324  -7.170  17.156  0.00  0.00    +0.000 A 
ATOM     42  C   UNL     1      -7.454  -6.261  17.752  0.00  0.00    +0.000 A 
ATOM     43  H   UNL     1      -7.822  -7.169  21.007  0.00  0.00    +0.000 HD
ATOM     44  H   UNL     1      -6.913  -5.568  17.115  0.00  0.00    +0.000 HD
BRANCH  39  45
ATOM     45  O   UNL     1      -9.357  -9.096  20.117  0.00  0.00    +0.000 OA
ATOM     46  H   UNL     1      -8.684  -9.520  20.673  0.00  0.00    +0.000 HD
ENDBRANCH  39  45
BRANCH  40  47
ATOM     47  C   UNL     1      -9.811  -9.214  17.294  0.00  0.00    +0.000 C 
ATOM     48  O   UNL     1     -11.040  -9.072  17.299  0.00  0.00    +0.000 OA
BRANCH  47  49
ATOM     49  C   UNL     1      -9.281 -10.358  16.480  0.00  0.00    +0.000 A 
ATOM     50  C   UNL     1      -9.374 -10.219  15.075  0.00  0.00    +0.000 A 
ATOM     51  C   UNL     1      -8.865 -11.181  14.204  0.00  0.00    +0.000 A 
ATOM     52  C   UNL     1      -8.233 -12.306  14.712  0.00  0.00    +0.000 A 
ATOM     53  C   UNL     1      -8.118 -12.471  16.091  0.00  0.00    +0.000 A 
ATOM     54  C   UNL     1      -8.636 -11.510  16.988  0.00  0.00    +0.000 A 
ATOM     55  H   UNL     1      -8.970 -11.049  13.129  0.00  0.00    +0.000 HD
ATOM     56  H   UNL     1      -7.844 -13.062  14.032  0.00  0.00    +0.000 HD
ATOM     57  H   UNL     1      -7.644 -13.382  16.450  0.00  0.00    +0.000 HD
BRANCH  50  58
ATOM     58  O   UNL     1      -9.922  -9.123  14.454  0.00  0.00    +0.000 OA
ATOM     59  H   UNL     1      -9.624  -9.120  13.513  0.00  0.00    +0.000 HD
ENDBRANCH  50  58
BRANCH  54  60
ATOM     60  C   UNL     1      -8.519 -11.795  18.442  0.00  0.00    +0.000 C 
ATOM     61  O   UNL     1      -7.835 -11.126  19.195  0.00  0.00    +0.000 OA
BRANCH  60  62
ATOM     62  O   UNL     1      -9.222 -12.868  18.871  0.00  0.00    +0.000 OA
ATOM     63  H   UNL     1      -9.366 -13.600  18.244  0.00  0.00    +0.000 HD
ENDBRANCH  60  62
ENDBRANCH  54  60
ENDBRANCH  47  49
ENDBRANCH  40  47
BRANCH  41  64
ATOM     64  O   UNL     1      -8.450  -7.031  15.799  0.00  0.00    +0.000 OA
ATOM     65  H   UNL     1      -8.682  -6.118  15.568  0.00  0.00    +0.000 HD
ENDBRANCH  41  64
ENDBRANCH  35  37
ENDBRANCH  34  35
ENDBRANCH   9  34
TORSDOF 13
ENDMDL
MODEL 2
REMARK VINA RESULT:   -10.472      0.625      1.890
REMARK INTER + INTRA:         -19.640
REMARK INTER:                 -17.423
REMARK INTRA:                  -2.217
REMARK UNBOUND:                -2.740
REMARK  Name = 
REMARK  13 active torsions:
REMARK  status: ('A' for Active; 'I' for Inactive)
REMARK    1  A    between atoms: C_2  and  C_36
REMARK    2  A    between atoms: N_3  and  C_4
REMARK    3  A    between atoms: C_12  and  O_13
REMARK    4  A    between atoms: O_13  and  C_14
REMARK    5  A    between atoms: C_14  and  C_16
REMARK    6  A    between atoms: C_18  and  O_19
REMARK    7  A    between atoms: C_20  and  C_21
REMARK    8  A    between atoms: C_21  and  C_23
REMARK    9  A    between atoms: C_24  and  O_25
REMARK   10  A    between atoms: C_29  and  C_30
REMARK   11  A    between atoms: C_30  and  O_32
REMARK   12  A    between atoms: C_33  and  O_34
REMARK   13  A    between atoms: C_39  and  O_40
REMARK                            x       y       z     vdW  Elec       q    Type
REMARK                         _______ _______ _______ _____ _____    ______ ____
ROOT
ATOM      1  C   UNL     1      -9.326  -3.421  20.924  0.00  0.00    +0.000 C 
ATOM      2  C   UNL     1      -9.149  -2.086  21.601  0.00  0.00    +0.000 A 
ATOM      3  C   UNL     1      -9.787  -0.883  21.332  0.00  0.00    +0.000 A 
ATOM      4  C   UNL     1      -9.540   0.207  22.170  0.00  0.00    +0.000 A 
ATOM      5  C   UNL     1      -8.679   0.082  23.271  0.00  0.00    +0.000 A 
ATOM      6  C   UNL     1      -8.056  -1.136  23.549  0.00  0.00    +0.000 A 
ATOM      7  C   UNL     1      -8.296  -2.209  22.705  0.00  0.00    +0.000 A 
ATOM      8  C   UNL     1      -7.799  -3.620  22.849  0.00  0.00    +0.000 C 
ATOM      9  C   UNL     1      -8.097  -4.217  21.453  0.00  0.00    +0.000 C 
ATOM     10  H   UNL     1     -10.243  -3.868  21.329  0.00  0.00    +0.000 HD
ATOM     11  H   UNL     1     -10.484  -0.790  20.504  0.00  0.00    +0.000 HD
ATOM     12  H   UNL     1     -10.035   1.157  21.983  0.00  0.00    +0.000 HD
ATOM     13  H   UNL     1      -8.511   0.935  23.923  0.00  0.00    +0.000 HD
ATOM     14  H   UNL     1      -7.412  -1.239  24.417  0.00  0.00    +0.000 HD
ATOM     15  H   UNL     1      -8.377  -4.126  23.628  0.00  0.00    +0.000 HD
ATOM     16  H   UNL     1      -6.731  -3.638  23.089  0.00  0.00    +0.000 HD
ATOM     17  H   UNL     1      -8.315  -5.287  21.531  0.00  0.00    +0.000 HD
ENDROOT
BRANCH   1  20
ATOM     18  O   UNL     1     -11.699  -3.284  19.455  0.00  0.00    +0.000 OA
ATOM     19  C   UNL     1     -10.632  -3.314  18.854  0.00  0.00    +0.000 C 
ATOM     20  N   UNL     1      -9.409  -3.334  19.485  0.00  0.00    +0.000 N 
ATOM     21  H   UNL     1      -8.544  -3.323  18.964  0.00  0.00    +0.000 HD
BRANCH  19  22
ATOM     22  C   UNL     1     -10.618  -3.278  17.365  0.00  0.00    +0.000 A 
ATOM     23  C   UNL     1     -10.796  -4.484  16.668  0.00  0.00    +0.000 A 
ATOM     24  C   UNL     1     -10.769  -4.504  15.270  0.00  0.00    +0.000 A 
ATOM     25  C   UNL     1     -10.558  -3.317  14.577  0.00  0.00    +0.000 A 
ATOM     26  C   UNL     1     -10.375  -2.116  15.256  0.00  0.00    +0.000 A 
ATOM     27  C   UNL     1     -10.401  -2.092  16.653  0.00  0.00    +0.000 A 
ATOM     28  H   UNL     1     -10.951  -5.412  17.216  0.00  0.00    +0.000 HD
ATOM     29  H   UNL     1     -10.909  -5.446  14.749  0.00  0.00    +0.000 HD
ATOM     30  H   UNL     1     -10.194  -1.201  14.697  0.00  0.00    +0.000 HD
ATOM     31  H   UNL     1     -10.218  -1.153  17.163  0.00  0.00    +0.000 HD
BRANCH  25  32
ATOM     32  O   UNL     1     -10.510  -3.286  13.216  0.00  0.00    +0.000 OA
ATOM     33  H   UNL     1     -10.204  -2.408  12.933  0.00  0.00    +0.000 HD
ENDBRANCH  25  32
ENDBRANCH  19  22
ENDBRANCH   1  20
BRANCH   9  34
ATOM     34  O   UNL     1      -6.903  -3.997  20.654  0.00  0.00    +0.000 OA
BRANCH  34  35
ATOM     35  C   UNL     1      -6.255  -5.092  20.182  0.00  0.00    +0.000 C 
ATOM     36  O   UNL     1      -5.048  -5.297  20.233  0.00  0.00    +0.000 OA
BRANCH  35  37
ATOM     37  C   UNL     1      -7.202  -5.997  19.482  0.00  0.00    +0.000 A 
ATOM     38  C   UNL     1      -7.980  -6.891  20.234  0.00  0.00    +0.000 A 
ATOM     39  C   UNL     1      -8.770  -7.850  19.588  0.00  0.00    +0.000 A 
ATOM     40  C   UNL     1      -8.847  -7.912  18.180  0.00  0.00    +0.000 A 
ATOM     41  C   UNL     1      -8.121  -6.954  17.442  0.00  0.00    +0.000 A 
ATOM     42  C   UNL     1      -7.285  -6.042  18.082  0.00  0.00    +0.000 A 
ATOM     43  H   UNL     1      -7.936  -6.847  21.320  0.00  0.00    +0.000 HD
ATOM     44  H   UNL     1      -6.681  -5.378  17.472  0.00  0.00    +0.000 HD
BRANCH  39  45
ATOM     45  O   UNL     1      -9.430  -8.773  20.361  0.00  0.00    +0.000 OA
ATOM     46  H   UNL     1     -10.078  -8.330  20.931  0.00  0.00    +0.000 HD
ENDBRANCH  39  45
BRANCH  40  47
ATOM     47  C   UNL     1      -9.654  -8.967  17.514  0.00  0.00    +0.000 C 
ATOM     48  O   UNL     1     -10.828  -8.716  17.215  0.00  0.00    +0.000 OA
BRANCH  47  49
ATOM     49  C   UNL     1      -9.105 -10.265  17.000  0.00  0.00    +0.000 A 
ATOM     50  C   UNL     1      -8.743 -11.220  17.979  0.00  0.00    +0.000 A 
ATOM     51  C   UNL     1      -8.276 -12.489  17.636  0.00  0.00    +0.000 A 
ATOM     52  C   UNL     1      -8.172 -12.846  16.300  0.00  0.00    +0.000 A 
ATOM     53  C   UNL     1      -8.526 -11.932  15.310  0.00  0.00    +0.000 A 
ATOM     54  C   UNL     1      -8.992 -10.640  15.640  0.00  0.00    +0.000 A 
ATOM     55  H   UNL     1      -7.992 -13.191  18.416  0.00  0.00    +0.000 HD
ATOM     56  H   UNL     1      -7.799 -13.833  16.031  0.00  0.00    +0.000 HD
ATOM     57  H   UNL     1      -8.399 -12.239  14.274  0.00  0.00    +0.000 HD
BRANCH  50  58
ATOM     58  O   UNL     1      -8.860 -11.005  19.331  0.00  0.00    +0.000 OA
ATOM     59  H   UNL     1      -9.628 -10.404  19.484  0.00  0.00    +0.000 HD
ENDBRANCH  50  58
BRANCH  54  60
ATOM     60  C   UNL     1      -9.293  -9.710  14.519  0.00  0.00    +0.000 C 
ATOM     61  O   UNL     1      -8.579  -8.768  14.231  0.00  0.00    +0.000 OA
BRANCH  60  62
ATOM     62  O   UNL     1     -10.435  -9.982  13.846  0.00  0.00    +0.000 OA
ATOM     63  H   UNL     1     -10.750  -9.326  13.198  0.00  0.00    +0.000 HD
ENDBRANCH  60  62
ENDBRANCH  54  60
ENDBRANCH  47  49
ENDBRANCH  40  47
BRANCH  41  64
ATOM     64  O   UNL     1      -8.133  -6.853  16.076  0.00  0.00    +0.000 OA
ATOM     65  H   UNL     1      -8.560  -6.028  15.796  0.00  0.00    +0.000 HD
ENDBRANCH  41  64
ENDBRANCH  35  37
ENDBRANCH  34  35
ENDBRANCH   9  34
TORSDOF 13
ENDMDL
MODEL 3
REMARK VINA RESULT:   -10.044      2.416      9.205
REMARK INTER + INTRA:         -18.949
REMARK INTER:                 -16.197
REMARK INTRA:                  -2.752
REMARK UNBOUND:                -2.740
REMARK  Name = 
REMARK  13 active torsions:
REMARK  status: ('A' for Active; 'I' for Inactive)
REMARK    1  A    between atoms: C_2  and  C_36
REMARK    2  A    between atoms: N_3  and  C_4
REMARK    3  A    between atoms: C_12  and  O_13
REMARK    4  A    between atoms: O_13  and  C_14
REMARK    5  A    between atoms: C_14  and  C_16
REMARK    6  A    between atoms: C_18  and  O_19
REMARK    7  A    between atoms: C_20  and  C_21
REMARK    8  A    between atoms: C_21  and  C_23
REMARK    9  A    between atoms: C_24  and  O_25
REMARK   10  A    between atoms: C_29  and  C_30
REMARK   11  A    between atoms: C_30  and  O_32
REMARK   12  A    between atoms: C_33  and  O_34
REMARK   13  A    between atoms: C_39  and  O_40
REMARK                            x       y       z     vdW  Elec       q    Type
REMARK                         _______ _______ _______ _____ _____    ______ ____
ROOT
ATOM      1  C   UNL     1     -10.079  -7.769  17.978  0.00  0.00    +0.000 C 
ATOM      2  C   UNL     1      -9.624  -8.968  17.187  0.00  0.00    +0.000 A 
ATOM      3  C   UNL     1      -8.543  -9.807  17.423  0.00  0.00    +0.000 A 
ATOM      4  C   UNL     1      -8.379 -10.931  16.610  0.00  0.00    +0.000 A 
ATOM      5  C   UNL     1      -9.299 -11.215  15.588  0.00  0.00    +0.000 A 
ATOM      6  C   UNL     1     -10.396 -10.379  15.368  0.00  0.00    +0.000 A 
ATOM      7  C   UNL     1     -10.543  -9.258  16.171  0.00  0.00    +0.000 A 
ATOM      8  C   UNL     1     -11.674  -8.268  16.166  0.00  0.00    +0.000 C 
ATOM      9  C   UNL     1     -11.093  -7.104  17.002  0.00  0.00    +0.000 C 
ATOM     10  H   UNL     1     -10.622  -8.148  18.854  0.00  0.00    +0.000 HD
ATOM     11  H   UNL     1      -7.850  -9.613  18.236  0.00  0.00    +0.000 HD
ATOM     12  H   UNL     1      -7.544 -11.606  16.782  0.00  0.00    +0.000 HD
ATOM     13  H   UNL     1      -9.166 -12.103  14.976  0.00  0.00    +0.000 HD
ATOM     14  H   UNL     1     -11.121 -10.615  14.596  0.00  0.00    +0.000 HD
ATOM     15  H   UNL     1     -12.543  -8.715  16.658  0.00  0.00    +0.000 HD
ATOM     16  H   UNL     1     -11.924  -7.963  15.145  0.00  0.00    +0.000 HD
ATOM     17  H   UNL     1     -11.891  -6.584  17.544  0.00  0.00    +0.000 HD
ENDROOT
BRANCH   1  20
ATOM     18  O   UNL     1      -8.856  -7.831  20.490  0.00  0.00    +0.000 OA
ATOM     19  C   UNL     1      -8.493  -6.991  19.676  0.00  0.00    +0.000 C 
ATOM     20  N   UNL     1      -8.999  -6.908  18.398  0.00  0.00    +0.000 N 
ATOM     21  H   UNL     1      -8.656  -6.227  17.736  0.00  0.00    +0.000 HD
BRANCH  19  22
ATOM     22  C   UNL     1      -7.417  -6.025  20.035  0.00  0.00    +0.000 A 
ATOM     23  C   UNL     1      -6.112  -6.286  19.588  0.00  0.00    +0.000 A 
ATOM     24  C   UNL     1      -5.065  -5.420  19.917  0.00  0.00    +0.000 A 
ATOM     25  C   UNL     1      -5.329  -4.300  20.699  0.00  0.00    +0.000 A 
ATOM     26  C   UNL     1      -6.617  -4.033  21.153  0.00  0.00    +0.000 A 
ATOM     27  C   UNL     1      -7.666  -4.896  20.825  0.00  0.00    +0.000 A 
ATOM     28  H   UNL     1      -5.909  -7.169  18.985  0.00  0.00    +0.000 HD
ATOM     29  H   UNL     1      -4.062  -5.638  19.562  0.00  0.00    +0.000 HD
ATOM     30  H   UNL     1      -6.800  -3.161  21.776  0.00  0.00    +0.000 HD
ATOM     31  H   UNL     1      -8.654  -4.690  21.220  0.00  0.00    +0.000 HD
BRANCH  25  32
ATOM     32  O   UNL     1      -4.341  -3.433  21.058  0.00  0.00    +0.000 OA
ATOM     33  H   UNL     1      -3.538  -3.940  21.265  0.00  0.00    +0.000 HD
ENDBRANCH  25  32
ENDBRANCH  19  22
ENDBRANCH   1  20
BRANCH   9  34
ATOM     34  O   UNL     1     -10.452  -6.206  16.057  0.00  0.00    +0.000 OA
BRANCH  34  35
ATOM     35  C   UNL     1     -11.138  -5.097  15.680  0.00  0.00    +0.000 C 
ATOM     36  O   UNL     1     -11.704  -4.925  14.608  0.00  0.00    +0.000 OA
BRANCH  35  37
ATOM     37  C   UNL     1     -11.031  -4.041  16.720  0.00  0.00    +0.000 A 
ATOM     38  C   UNL     1     -10.193  -2.938  16.494  0.00  0.00    +0.000 A 
ATOM     39  C   UNL     1      -9.966  -2.008  17.517  0.00  0.00    +0.000 A 
ATOM     40  C   UNL     1     -10.605  -2.122  18.770  0.00  0.00    +0.000 A 
ATOM     41  C   UNL     1     -11.506  -3.192  18.951  0.00  0.00    +0.000 A 
ATOM     42  C   UNL     1     -11.683  -4.152  17.958  0.00  0.00    +0.000 A 
ATOM     43  H   UNL     1      -9.702  -2.834  15.530  0.00  0.00    +0.000 HD
ATOM     44  H   UNL     1     -12.322  -5.005  18.170  0.00  0.00    +0.000 HD
BRANCH  39  45
ATOM     45  O   UNL     1      -9.056  -1.005  17.290  0.00  0.00    +0.000 OA
ATOM     46  H   UNL     1      -8.784  -0.604  18.130  0.00  0.00    +0.000 HD
ENDBRANCH  39  45
BRANCH  40  47
ATOM     47  C   UNL     1     -10.314  -1.151  19.857  0.00  0.00    +0.000 C 
ATOM     48  O   UNL     1      -9.137  -0.979  20.198  0.00  0.00    +0.000 OA
BRANCH  47  49
ATOM     49  C   UNL     1     -11.321  -0.214  20.458  0.00  0.00    +0.000 A 
ATOM     50  C   UNL     1     -11.818   0.798  19.603  0.00  0.00    +0.000 A 
ATOM     51  C   UNL     1     -12.801   1.696  20.017  0.00  0.00    +0.000 A 
ATOM     52  C   UNL     1     -13.328   1.599  21.296  0.00  0.00    +0.000 A 
ATOM     53  C   UNL     1     -12.865   0.610  22.162  0.00  0.00    +0.000 A 
ATOM     54  C   UNL     1     -11.864  -0.303  21.761  0.00  0.00    +0.000 A 
ATOM     55  H   UNL     1     -13.147   2.472  19.338  0.00  0.00    +0.000 HD
ATOM     56  H   UNL     1     -14.088   2.306  21.624  0.00  0.00    +0.000 HD
ATOM     57  H   UNL     1     -13.281   0.587  23.167  0.00  0.00    +0.000 HD
BRANCH  50  58
ATOM     58  O   UNL     1     -11.419   0.955  18.298  0.00  0.00    +0.000 OA
ATOM     59  H   UNL     1     -11.626   0.124  17.808  0.00  0.00    +0.000 HD
ENDBRANCH  50  58
BRANCH  54  60
ATOM     60  C   UNL     1     -11.390  -1.289  22.767  0.00  0.00    +0.000 C 
ATOM     61  O   UNL     1     -10.550  -1.026  23.608  0.00  0.00    +0.000 OA
BRANCH  60  62
ATOM     62  O   UNL     1     -11.955  -2.515  22.673  0.00  0.00    +0.000 OA
ATOM     63  H   UNL     1     -12.712  -2.714  23.252  0.00  0.00    +0.000 HD
ENDBRANCH  60  62
ENDBRANCH  54  60
ENDBRANCH  47  49
ENDBRANCH  40  47
BRANCH  41  64
ATOM     64  O   UNL     1     -12.238  -3.408  20.088  0.00  0.00    +0.000 OA
ATOM     65  H   UNL     1     -11.726  -3.169  20.877  0.00  0.00    +0.000 HD
ENDBRANCH  41  64
ENDBRANCH  35  37
ENDBRANCH  34  35
ENDBRANCH   9  34
TORSDOF 13
ENDMDL
MODEL 4
REMARK VINA RESULT:    -9.977      2.314      8.512
REMARK INTER + INTRA:         -18.842
REMARK INTER:                 -16.115
REMARK INTRA:                  -2.727
REMARK UNBOUND:                -2.740
REMARK  Name = 
REMARK  13 active torsions:
REMARK  status: ('A' for Active; 'I' for Inactive)
REMARK    1  A    between atoms: C_2  and  C_36
REMARK    2  A    between atoms: N_3  and  C_4
REMARK    3  A    between atoms: C_12  and  O_13
REMARK    4  A    between atoms: O_13  and  C_14
REMARK    5  A    between atoms: C_14  and  C_16
REMARK    6  A    between atoms: C_18  and  O_19
REMARK    7  A    between atoms: C_20  and  C_21
REMARK    8  A    between atoms: C_21  and  C_23
REMARK    9  A    between atoms: C_24  and  O_25
REMARK   10  A    between atoms: C_29  and  C_30
REMARK   11  A    between atoms: C_30  and  O_32
REMARK   12  A    between atoms: C_33  and  O_34
REMARK   13  A    between atoms: C_39  and  O_40
REMARK                            x       y       z     vdW  Elec       q    Type
REMARK                         _______ _______ _______ _____ _____    ______ ____
ROOT
ATOM      1  C   UNL     1      -9.293  -9.046  18.520  0.00  0.00    +0.000 C 
ATOM      2  C   UNL     1      -8.839 -10.465  18.288  0.00  0.00    +0.000 A 
ATOM      3  C   UNL     1      -8.037 -11.264  19.091  0.00  0.00    +0.000 A 
ATOM      4  C   UNL     1      -7.838 -12.596  18.721  0.00  0.00    +0.000 A 
ATOM      5  C   UNL     1      -8.451 -13.119  17.573  0.00  0.00    +0.000 A 
ATOM      6  C   UNL     1      -9.274 -12.316  16.780  0.00  0.00    +0.000 A 
ATOM      7  C   UNL     1      -9.455 -10.992  17.146  0.00  0.00    +0.000 A 
ATOM      8  C   UNL     1     -10.345  -9.972  16.493  0.00  0.00    +0.000 C 
ATOM      9  C   UNL     1      -9.844  -8.650  17.120  0.00  0.00    +0.000 C 
ATOM     10  H   UNL     1     -10.126  -9.087  19.235  0.00  0.00    +0.000 HD
ATOM     11  H   UNL     1      -7.591 -10.875  20.002  0.00  0.00    +0.000 HD
ATOM     12  H   UNL     1      -7.220 -13.243  19.341  0.00  0.00    +0.000 HD
ATOM     13  H   UNL     1      -8.300 -14.163  17.309  0.00  0.00    +0.000 HD
ATOM     14  H   UNL     1      -9.769 -12.729  15.907  0.00  0.00    +0.000 HD
ATOM     15  H   UNL     1     -11.384 -10.174  16.770  0.00  0.00    +0.000 HD
ATOM     16  H   UNL     1     -10.228  -9.988  15.405  0.00  0.00    +0.000 HD
ATOM     17  H   UNL     1     -10.664  -7.927  17.200  0.00  0.00    +0.000 HD
ENDROOT
BRANCH   1  20
ATOM     18  O   UNL     1      -9.651  -6.387  19.303  0.00  0.00    +0.000 OA
ATOM     19  C   UNL     1      -8.525  -6.869  19.341  0.00  0.00    +0.000 C 
ATOM     20  N   UNL     1      -8.252  -8.180  19.021  0.00  0.00    +0.000 N 
ATOM     21  H   UNL     1      -7.319  -8.560  19.096  0.00  0.00    +0.000 HD
BRANCH  19  22
ATOM     22  C   UNL     1      -7.377  -6.037  19.798  0.00  0.00    +0.000 A 
ATOM     23  C   UNL     1      -7.629  -4.993  20.703  0.00  0.00    +0.000 A 
ATOM     24  C   UNL     1      -6.587  -4.173  21.145  0.00  0.00    +0.000 A 
ATOM     25  C   UNL     1      -5.298  -4.397  20.672  0.00  0.00    +0.000 A 
ATOM     26  C   UNL     1      -5.035  -5.424  19.772  0.00  0.00    +0.000 A 
ATOM     27  C   UNL     1      -6.075  -6.247  19.328  0.00  0.00    +0.000 A 
ATOM     28  H   UNL     1      -8.642  -4.816  21.061  0.00  0.00    +0.000 HD
ATOM     29  H   UNL     1      -6.801  -3.371  21.845  0.00  0.00    +0.000 HD
ATOM     30  H   UNL     1      -4.024  -5.573  19.402  0.00  0.00    +0.000 HD
ATOM     31  H   UNL     1      -5.855  -7.017  18.597  0.00  0.00    +0.000 HD
BRANCH  25  32
ATOM     32  O   UNL     1      -4.251  -3.617  21.062  0.00  0.00    +0.000 OA
ATOM     33  H   UNL     1      -4.292  -3.495  22.026  0.00  0.00    +0.000 HD
ENDBRANCH  25  32
ENDBRANCH  19  22
ENDBRANCH   1  20
BRANCH   9  34
ATOM     34  O   UNL     1      -8.808  -8.147  16.233  0.00  0.00    +0.000 OA
BRANCH  34  35
ATOM     35  C   UNL     1      -9.201  -7.622  15.045  0.00  0.00    +0.000 C 
ATOM     36  O   UNL     1      -9.009  -8.111  13.938  0.00  0.00    +0.000 OA
BRANCH  35  37
ATOM     37  C   UNL     1      -9.822  -6.287  15.246  0.00  0.00    +0.000 A 
ATOM     38  C   UNL     1      -9.350  -5.192  14.505  0.00  0.00    +0.000 A 
ATOM     39  C   UNL     1      -9.821  -3.903  14.783  0.00  0.00    +0.000 A 
ATOM     40  C   UNL     1     -10.808  -3.675  15.765  0.00  0.00    +0.000 A 
ATOM     41  C   UNL     1     -11.328  -4.797  16.443  0.00  0.00    +0.000 A 
ATOM     42  C   UNL     1     -10.815  -6.071  16.214  0.00  0.00    +0.000 A 
ATOM     43  H   UNL     1      -8.597  -5.356  13.739  0.00  0.00    +0.000 HD
ATOM     44  H   UNL     1     -11.185  -6.895  16.817  0.00  0.00    +0.000 HD
BRANCH  39  45
ATOM     45  O   UNL     1      -9.255  -2.848  14.110  0.00  0.00    +0.000 OA
ATOM     46  H   UNL     1      -9.737  -2.679  13.286  0.00  0.00    +0.000 HD
ENDBRANCH  39  45
BRANCH  40  47
ATOM     47  C   UNL     1     -11.258  -2.293  16.077  0.00  0.00    +0.000 C 
ATOM     48  O   UNL     1     -12.401  -1.954  15.746  0.00  0.00    +0.000 OA
BRANCH  47  49
ATOM     49  C   UNL     1     -10.502  -1.321  16.933  0.00  0.00    +0.000 A 
ATOM     50  C   UNL     1      -9.925  -0.217  16.261  0.00  0.00    +0.000 A 
ATOM     51  C   UNL     1      -9.248   0.791  16.945  0.00  0.00    +0.000 A 
ATOM     52  C   UNL     1      -9.139   0.734  18.326  0.00  0.00    +0.000 A 
ATOM     53  C   UNL     1      -9.702  -0.336  19.021  0.00  0.00    +0.000 A 
ATOM     54  C   UNL     1     -10.383  -1.371  18.342  0.00  0.00    +0.000 A 
ATOM     55  H   UNL     1      -8.803   1.617  16.393  0.00  0.00    +0.000 HD
ATOM     56  H   UNL     1      -8.602   1.516  18.861  0.00  0.00    +0.000 HD
ATOM     57  H   UNL     1      -9.567  -0.361  20.100  0.00  0.00    +0.000 HD
BRANCH  50  58
ATOM     58  O   UNL     1     -10.019  -0.019  14.905  0.00  0.00    +0.000 OA
ATOM     59  H   UNL     1      -9.206  -0.384  14.481  0.00  0.00    +0.000 HD
ENDBRANCH  50  58
BRANCH  54  60
ATOM     60  C   UNL     1     -10.903  -2.501  19.156  0.00  0.00    +0.000 C 
ATOM     61  O   UNL     1     -12.003  -2.492  19.675  0.00  0.00    +0.000 OA
BRANCH  60  62
ATOM     62  O   UNL     1     -10.051  -3.544  19.290  0.00  0.00    +0.000 OA
ATOM     63  H   UNL     1     -10.313  -4.273  19.881  0.00  0.00    +0.000 HD
ENDBRANCH  60  62
ENDBRANCH  54  60
ENDBRANCH  47  49
ENDBRANCH  40  47
BRANCH  41  64
ATOM     64  O   UNL     1     -12.321  -4.745  17.385  0.00  0.00    +0.000 OA
ATOM     65  H   UNL     1     -13.090  -5.266  17.103  0.00  0.00    +0.000 HD
ENDBRANCH  41  64
ENDBRANCH  35  37
ENDBRANCH  34  35
ENDBRANCH   9  34
TORSDOF 13
ENDMDL
MODEL 5
REMARK VINA RESULT:    -9.831      2.312      8.784
REMARK INTER + INTRA:         -18.606
REMARK INTER:                 -16.025
REMARK INTRA:                  -2.581
REMARK UNBOUND:                -2.740
REMARK  Name = 
REMARK  13 active torsions:
REMARK  status: ('A' for Active; 'I' for Inactive)
REMARK    1  A    between atoms: C_2  and  C_36
REMARK    2  A    between atoms: N_3  and  C_4
REMARK    3  A    between atoms: C_12  and  O_13
REMARK    4  A    between atoms: O_13  and  C_14
REMARK    5  A    between atoms: C_14  and  C_16
REMARK    6  A    between atoms: C_18  and  O_19
REMARK    7  A    between atoms: C_20  and  C_21
REMARK    8  A    between atoms: C_21  and  C_23
REMARK    9  A    between atoms: C_24  and  O_25
REMARK   10  A    between atoms: C_29  and  C_30
REMARK   11  A    between atoms: C_30  and  O_32
REMARK   12  A    between atoms: C_33  and  O_34
REMARK   13  A    between atoms: C_39  and  O_40
REMARK                            x       y       z     vdW  Elec       q    Type
REMARK                         _______ _______ _______ _____ _____    ______ ____
ROOT
ATOM      1  C   UNL     1      -9.320  -8.918  18.497  0.00  0.00    +0.000 C 
ATOM      2  C   UNL     1      -8.866 -10.339  18.283  0.00  0.00    +0.000 A 
ATOM      3  C   UNL     1      -8.091 -11.138  19.112  0.00  0.00    +0.000 A 
ATOM      4  C   UNL     1      -7.888 -12.473  18.753  0.00  0.00    +0.000 A 
ATOM      5  C   UNL     1      -8.472 -12.998  17.591  0.00  0.00    +0.000 A 
ATOM      6  C   UNL     1      -9.268 -12.195  16.772  0.00  0.00    +0.000 A 
ATOM      7  C   UNL     1      -9.453 -10.868  17.127  0.00  0.00    +0.000 A 
ATOM      8  C   UNL     1     -10.320  -9.847  16.446  0.00  0.00    +0.000 C 
ATOM      9  C   UNL     1      -9.830  -8.525  17.080  0.00  0.00    +0.000 C 
ATOM     10  H   UNL     1     -10.172  -8.951  19.188  0.00  0.00    +0.000 HD
ATOM     11  H   UNL     1      -7.668 -10.748  20.033  0.00  0.00    +0.000 HD
ATOM     12  H   UNL     1      -7.290 -13.120  19.392  0.00  0.00    +0.000 HD
ATOM     13  H   UNL     1      -8.318 -14.044  17.336  0.00  0.00    +0.000 HD
ATOM     14  H   UNL     1      -9.741 -12.610  15.887  0.00  0.00    +0.000 HD
ATOM     15  H   UNL     1     -11.368 -10.043  16.695  0.00  0.00    +0.000 HD
ATOM     16  H   UNL     1     -10.173  -9.868  15.361  0.00  0.00    +0.000 HD
ATOM     17  H   UNL     1     -10.648  -7.798  17.135  0.00  0.00    +0.000 HD
ENDROOT
BRANCH   1  20
ATOM     18  O   UNL     1      -9.733  -6.337  19.487  0.00  0.00    +0.000 OA
ATOM     19  C   UNL     1      -8.592  -6.780  19.448  0.00  0.00    +0.000 C 
ATOM     20  N   UNL     1      -8.289  -8.054  19.023  0.00  0.00    +0.000 N 
ATOM     21  H   UNL     1      -7.342  -8.405  19.035  0.00  0.00    +0.000 HD
BRANCH  19  22
ATOM     22  C   UNL     1      -7.454  -5.943  19.924  0.00  0.00    +0.000 A 
ATOM     23  C   UNL     1      -7.733  -4.855  20.765  0.00  0.00    +0.000 A 
ATOM     24  C   UNL     1      -6.702  -4.029  21.220  0.00  0.00    +0.000 A 
ATOM     25  C   UNL     1      -5.395  -4.293  20.825  0.00  0.00    +0.000 A 
ATOM     26  C   UNL     1      -5.104  -5.366  19.987  0.00  0.00    +0.000 A 
ATOM     27  C   UNL     1      -6.134  -6.194  19.531  0.00  0.00    +0.000 A 
ATOM     28  H   UNL     1      -8.760  -4.647  21.063  0.00  0.00    +0.000 HD
ATOM     29  H   UNL     1      -6.938  -3.192  21.871  0.00  0.00    +0.000 HD
ATOM     30  H   UNL     1      -4.079  -5.546  19.676  0.00  0.00    +0.000 HD
ATOM     31  H   UNL     1      -5.891  -7.000  18.848  0.00  0.00    +0.000 HD
BRANCH  25  32
ATOM     32  O   UNL     1      -4.356  -3.510  21.230  0.00  0.00    +0.000 OA
ATOM     33  H   UNL     1      -4.121  -2.902  20.510  0.00  0.00    +0.000 HD
ENDBRANCH  25  32
ENDBRANCH  19  22
ENDBRANCH   1  20
BRANCH   9  34
ATOM     34  O   UNL     1      -8.768  -8.031  16.220  0.00  0.00    +0.000 OA
BRANCH  34  35
ATOM     35  C   UNL     1      -9.128  -7.466  15.040  0.00  0.00    +0.000 C 
ATOM     36  O   UNL     1      -8.910  -7.920  13.923  0.00  0.00    +0.000 OA
BRANCH  35  37
ATOM     37  C   UNL     1      -9.750  -6.136  15.267  0.00  0.00    +0.000 A 
ATOM     38  C   UNL     1      -9.611  -5.137  14.292  0.00  0.00    +0.000 A 
ATOM     39  C   UNL     1     -10.062  -3.837  14.549  0.00  0.00    +0.000 A 
ATOM     40  C   UNL     1     -10.710  -3.509  15.759  0.00  0.00    +0.000 A 
ATOM     41  C   UNL     1     -10.913  -4.544  16.694  0.00  0.00    +0.000 A 
ATOM     42  C   UNL     1     -10.407  -5.822  16.467  0.00  0.00    +0.000 A 
ATOM     43  H   UNL     1      -9.121  -5.380  13.351  0.00  0.00    +0.000 HD
ATOM     44  H   UNL     1     -10.513  -6.567  17.250  0.00  0.00    +0.000 HD
BRANCH  39  45
ATOM     45  O   UNL     1      -9.809  -2.866  13.611  0.00  0.00    +0.000 OA
ATOM     46  H   UNL     1     -10.587  -2.297  13.500  0.00  0.00    +0.000 HD
ENDBRANCH  39  45
BRANCH  40  47
ATOM     47  C   UNL     1     -11.139  -2.112  16.031  0.00  0.00    +0.000 C 
ATOM     48  O   UNL     1     -12.297  -1.782  15.746  0.00  0.00    +0.000 OA
BRANCH  47  49
ATOM     49  C   UNL     1     -10.334  -1.106  16.801  0.00  0.00    +0.000 A 
ATOM     50  C   UNL     1     -10.632  -0.994  18.180  0.00  0.00    +0.000 A 
ATOM     51  C   UNL     1      -9.918  -0.141  19.021  0.00  0.00    +0.000 A 
ATOM     52  C   UNL     1      -8.875   0.615  18.511  0.00  0.00    +0.000 A 
ATOM     53  C   UNL     1      -8.550   0.524  17.159  0.00  0.00    +0.000 A 
ATOM     54  C   UNL     1      -9.269  -0.328  16.290  0.00  0.00    +0.000 A 
ATOM     55  H   UNL     1     -10.186  -0.069  20.073  0.00  0.00    +0.000 HD
ATOM     56  H   UNL     1      -8.323   1.289  19.165  0.00  0.00    +0.000 HD
ATOM     57  H   UNL     1      -7.746   1.158  16.791  0.00  0.00    +0.000 HD
BRANCH  50  58
ATOM     58  O   UNL     1     -11.601  -1.735  18.812  0.00  0.00    +0.000 OA
ATOM     59  H   UNL     1     -11.158  -2.467  19.305  0.00  0.00    +0.000 HD
ENDBRANCH  50  58
BRANCH  54  60
ATOM     60  C   UNL     1      -8.892  -0.320  14.852  0.00  0.00    +0.000 C 
ATOM     61  O   UNL     1      -9.568   0.216  13.994  0.00  0.00    +0.000 OA
BRANCH  60  62
ATOM     62  O   UNL     1      -7.741  -0.968  14.562  0.00  0.00    +0.000 OA
ATOM     63  H   UNL     1      -7.351  -1.536  15.251  0.00  0.00    +0.000 HD
ENDBRANCH  60  62
ENDBRANCH  54  60
ENDBRANCH  47  49
ENDBRANCH  40  47
BRANCH  41  64
ATOM     64  O   UNL     1     -11.566  -4.396  17.889  0.00  0.00    +0.000 OA
ATOM     65  H   UNL     1     -12.525  -4.485  17.769  0.00  0.00    +0.000 HD
ENDBRANCH  41  64
ENDBRANCH  35  37
ENDBRANCH  34  35
ENDBRANCH   9  34
TORSDOF 13
ENDMDL
MODEL 6
REMARK VINA RESULT:    -9.752      2.356      3.926
REMARK INTER + INTRA:         -18.479
REMARK INTER:                 -15.828
REMARK INTRA:                  -2.651
REMARK UNBOUND:                -2.740
REMARK  Name = 
REMARK  13 active torsions:
REMARK  status: ('A' for Active; 'I' for Inactive)
REMARK    1  A    between atoms: C_2  and  C_36
REMARK    2  A    between atoms: N_3  and  C_4
REMARK    3  A    between atoms: C_12  and  O_13
REMARK    4  A    between atoms: O_13  and  C_14
REMARK    5  A    between atoms: C_14  and  C_16
REMARK    6  A    between atoms: C_18  and  O_19
REMARK    7  A    between atoms: C_20  and  C_21
REMARK    8  A    between atoms: C_21  and  C_23
REMARK    9  A    between atoms: C_24  and  O_25
REMARK   10  A    between atoms: C_29  and  C_30
REMARK   11  A    between atoms: C_30  and  O_32
REMARK   12  A    between atoms: C_33  and  O_34
REMARK   13  A    between atoms: C_39  and  O_40
REMARK                            x       y       z     vdW  Elec       q    Type
REMARK                         _______ _______ _______ _____ _____    ______ ____
ROOT
ATOM      1  C   UNL     1     -10.598  -0.319  21.065  0.00  0.00    +0.000 C 
ATOM      2  C   UNL     1      -9.887  -0.817  22.297  0.00  0.00    +0.000 A 
ATOM      3  C   UNL     1      -8.579  -0.586  22.699  0.00  0.00    +0.000 A 
ATOM      4  C   UNL     1      -8.169  -1.064  23.946  0.00  0.00    +0.000 A 
ATOM      5  C   UNL     1      -9.067  -1.747  24.780  0.00  0.00    +0.000 A 
ATOM      6  C   UNL     1     -10.387  -1.959  24.379  0.00  0.00    +0.000 A 
ATOM      7  C   UNL     1     -10.782  -1.493  23.135  0.00  0.00    +0.000 A 
ATOM      8  C   UNL     1     -12.157  -1.540  22.531  0.00  0.00    +0.000 C 
ATOM      9  C   UNL     1     -11.875  -1.208  21.047  0.00  0.00    +0.000 C 
ATOM     10  H   UNL     1     -10.889   0.722  21.258  0.00  0.00    +0.000 HD
ATOM     11  H   UNL     1      -7.890  -0.024  22.074  0.00  0.00    +0.000 HD
ATOM     12  H   UNL     1      -7.150  -0.887  24.286  0.00  0.00    +0.000 HD
ATOM     13  H   UNL     1      -8.735  -2.098  25.755  0.00  0.00    +0.000 HD
ATOM     14  H   UNL     1     -11.088  -2.464  25.037  0.00  0.00    +0.000 HD
ATOM     15  H   UNL     1     -12.780  -0.771  22.998  0.00  0.00    +0.000 HD
ATOM     16  H   UNL     1     -12.608  -2.530  22.658  0.00  0.00    +0.000 HD
ATOM     17  H   UNL     1     -12.726  -0.679  20.602  0.00  0.00    +0.000 HD
ENDROOT
BRANCH   1  20
ATOM     18  O   UNL     1     -10.092   1.814  19.330  0.00  0.00    +0.000 OA
ATOM     19  C   UNL     1      -9.645   0.707  19.053  0.00  0.00    +0.000 C 
ATOM     20  N   UNL     1      -9.799  -0.395  19.864  0.00  0.00    +0.000 N 
ATOM     21  H   UNL     1      -9.389  -1.287  19.628  0.00  0.00    +0.000 HD
BRANCH  19  22
ATOM     22  C   UNL     1      -8.848   0.518  17.809  0.00  0.00    +0.000 A 
ATOM     23  C   UNL     1      -7.738   1.350  17.596  0.00  0.00    +0.000 A 
ATOM     24  C   UNL     1      -6.972   1.225  16.434  0.00  0.00    +0.000 A 
ATOM     25  C   UNL     1      -7.326   0.271  15.486  0.00  0.00    +0.000 A 
ATOM     26  C   UNL     1      -8.428  -0.557  15.681  0.00  0.00    +0.000 A 
ATOM     27  C   UNL     1      -9.195  -0.434  16.843  0.00  0.00    +0.000 A 
ATOM     28  H   UNL     1      -7.471   2.102  18.337  0.00  0.00    +0.000 HD
ATOM     29  H   UNL     1      -6.116   1.877  16.287  0.00  0.00    +0.000 HD
ATOM     30  H   UNL     1      -8.698  -1.285  14.921  0.00  0.00    +0.000 HD
ATOM     31  H   UNL     1     -10.072  -1.062  16.958  0.00  0.00    +0.000 HD
BRANCH  25  32
ATOM     32  O   UNL     1      -6.620   0.118  14.330  0.00  0.00    +0.000 OA
ATOM     33  H   UNL     1      -6.471  -0.830  14.176  0.00  0.00    +0.000 HD
ENDBRANCH  25  32
ENDBRANCH  19  22
ENDBRANCH   1  20
BRANCH   9  34
ATOM     34  O   UNL     1     -11.662  -2.480  20.380  0.00  0.00    +0.000 OA
BRANCH  34  35
ATOM     35  C   UNL     1     -11.542  -2.467  19.027  0.00  0.00    +0.000 C 
ATOM     36  O   UNL     1     -12.001  -1.623  18.268  0.00  0.00    +0.000 OA
BRANCH  35  37
ATOM     37  C   UNL     1     -10.850  -3.694  18.554  0.00  0.00    +0.000 A 
ATOM     38  C   UNL     1      -9.620  -4.052  19.126  0.00  0.00    +0.000 A 
ATOM     39  C   UNL     1      -8.883  -5.119  18.596  0.00  0.00    +0.000 A 
ATOM     40  C   UNL     1      -9.374  -5.889  17.520  0.00  0.00    +0.000 A 
ATOM     41  C   UNL     1     -10.649  -5.565  17.011  0.00  0.00    +0.000 A 
ATOM     42  C   UNL     1     -11.353  -4.465  17.494  0.00  0.00    +0.000 A 
ATOM     43  H   UNL     1      -9.235  -3.472  19.961  0.00  0.00    +0.000 HD
ATOM     44  H   UNL     1     -12.292  -4.201  17.017  0.00  0.00    +0.000 HD
BRANCH  39  45
ATOM     45  O   UNL     1      -7.637  -5.367  19.115  0.00  0.00    +0.000 OA
ATOM     46  H   UNL     1      -7.630  -5.192  20.069  0.00  0.00    +0.000 HD
ENDBRANCH  39  45
BRANCH  40  47
ATOM     47  C   UNL     1      -8.556  -6.987  16.942  0.00  0.00    +0.000 C 
ATOM     48  O   UNL     1      -7.401  -6.736  16.576  0.00  0.00    +0.000 OA
BRANCH  47  49
ATOM     49  C   UNL     1      -8.953  -8.434  16.933  0.00  0.00    +0.000 A 
ATOM     50  C   UNL     1      -9.272  -8.985  15.670  0.00  0.00    +0.000 A 
ATOM     51  C   UNL     1      -9.598 -10.332  15.513  0.00  0.00    +0.000 A 
ATOM     52  C   UNL     1      -9.599 -11.173  16.615  0.00  0.00    +0.000 A 
ATOM     53  C   UNL     1      -9.283 -10.664  17.874  0.00  0.00    +0.000 A 
ATOM     54  C   UNL     1      -8.959  -9.301  18.052  0.00  0.00    +0.000 A 
ATOM     55  H   UNL     1      -9.853 -10.717  14.528  0.00  0.00    +0.000 HD
ATOM     56  H   UNL     1      -9.863 -12.222  16.496  0.00  0.00    +0.000 HD
ATOM     57  H   UNL     1      -9.327 -11.349  18.718  0.00  0.00    +0.000 HD
BRANCH  50  58
ATOM     58  O   UNL     1      -9.245  -8.268  14.498  0.00  0.00    +0.000 OA
ATOM     59  H   UNL     1      -8.522  -7.599  14.561  0.00  0.00    +0.000 HD
ENDBRANCH  50  58
BRANCH  54  60
ATOM     60  C   UNL     1      -8.690  -8.833  19.437  0.00  0.00    +0.000 C 
ATOM     61  O   UNL     1      -7.732  -8.141  19.727  0.00  0.00    +0.000 OA
BRANCH  60  62
ATOM     62  O   UNL     1      -9.588  -9.245  20.361  0.00  0.00    +0.000 OA
ATOM     63  H   UNL     1     -10.153 -10.007  20.140  0.00  0.00    +0.000 HD
ENDBRANCH  60  62
ENDBRANCH  54  60
ENDBRANCH  47  49
ENDBRANCH  40  47
BRANCH  41  64
ATOM     64  O   UNL     1     -11.281  -6.247  16.005  0.00  0.00    +0.000 OA
ATOM     65  H   UNL     1     -11.509  -7.146  16.290  0.00  0.00    +0.000 HD
ENDBRANCH  41  64
ENDBRANCH  35  37
ENDBRANCH  34  35
ENDBRANCH   9  34
TORSDOF 13
ENDMDL
MODEL 7
REMARK VINA RESULT:    -9.666      2.514      8.818
REMARK INTER + INTRA:         -18.339
REMARK INTER:                 -16.713
REMARK INTRA:                  -1.626
REMARK UNBOUND:                -2.740
REMARK  Name = 
REMARK  13 active torsions:
REMARK  status: ('A' for Active; 'I' for Inactive)
REMARK    1  A    between atoms: C_2  and  C_36
REMARK    2  A    between atoms: N_3  and  C_4
REMARK    3  A    between atoms: C_12  and  O_13
REMARK    4  A    between atoms: O_13  and  C_14
REMARK    5  A    between atoms: C_14  and  C_16
REMARK    6  A    between atoms: C_18  and  O_19
REMARK    7  A    between atoms: C_20  and  C_21
REMARK    8  A    between atoms: C_21  and  C_23
REMARK    9  A    between atoms: C_24  and  O_25
REMARK   10  A    between atoms: C_29  and  C_30
REMARK   11  A    between atoms: C_30  and  O_32
REMARK   12  A    between atoms: C_33  and  O_34
REMARK   13  A    between atoms: C_39  and  O_40
REMARK                            x       y       z     vdW  Elec       q    Type
REMARK                         _______ _______ _______ _____ _____    ______ ____
ROOT
ATOM      1  C   UNL     1      -9.370  -8.782  18.658  0.00  0.00    +0.000 C 
ATOM      2  C   UNL     1      -8.912 -10.189  18.370  0.00  0.00    +0.000 A 
ATOM      3  C   UNL     1      -8.117 -11.020  19.146  0.00  0.00    +0.000 A 
ATOM      4  C   UNL     1      -7.912 -12.335  18.722  0.00  0.00    +0.000 A 
ATOM      5  C   UNL     1      -8.513 -12.810  17.546  0.00  0.00    +0.000 A 
ATOM      6  C   UNL     1      -9.329 -11.975  16.780  0.00  0.00    +0.000 A 
ATOM      7  C   UNL     1      -9.516 -10.667  17.200  0.00  0.00    +0.000 A 
ATOM      8  C   UNL     1     -10.402  -9.622  16.583  0.00  0.00    +0.000 C 
ATOM      9  C   UNL     1      -9.909  -8.327  17.270  0.00  0.00    +0.000 C 
ATOM     10  H   UNL     1     -10.210  -8.854  19.361  0.00  0.00    +0.000 HD
ATOM     11  H   UNL     1      -7.680 -10.670  20.077  0.00  0.00    +0.000 HD
ATOM     12  H   UNL     1      -7.299 -13.008  19.319  0.00  0.00    +0.000 HD
ATOM     13  H   UNL     1      -8.357 -13.841  17.240  0.00  0.00    +0.000 HD
ATOM     14  H   UNL     1      -9.815 -12.351  15.885  0.00  0.00    +0.000 HD
ATOM     15  H   UNL     1     -11.443  -9.837  16.841  0.00  0.00    +0.000 HD
ATOM     16  H   UNL     1     -10.273  -9.591  15.496  0.00  0.00    +0.000 HD
ATOM     17  H   UNL     1     -10.730  -7.610  17.373  0.00  0.00    +0.000 HD
ENDROOT
BRANCH   1  20
ATOM     18  O   UNL     1      -9.635  -6.050  19.182  0.00  0.00    +0.000 OA
ATOM     19  C   UNL     1      -8.555  -6.589  19.387  0.00  0.00    +0.000 C 
ATOM     20  N   UNL     1      -8.336  -7.937  19.205  0.00  0.00    +0.000 N 
ATOM     21  H   UNL     1      -7.444  -8.361  19.416  0.00  0.00    +0.000 HD
BRANCH  19  22
ATOM     22  C   UNL     1      -7.412  -5.788  19.906  0.00  0.00    +0.000 A 
ATOM     23  C   UNL     1      -7.683  -4.748  20.810  0.00  0.00    +0.000 A 
ATOM     24  C   UNL     1      -6.645  -3.956  21.309  0.00  0.00    +0.000 A 
ATOM     25  C   UNL     1      -5.341  -4.204  20.894  0.00  0.00    +0.000 A 
ATOM     26  C   UNL     1      -5.059  -5.228  19.995  0.00  0.00    +0.000 A 
ATOM     27  C   UNL     1      -6.094  -6.022  19.495  0.00  0.00    +0.000 A 
ATOM     28  H   UNL     1      -8.707  -4.552  21.123  0.00  0.00    +0.000 HD
ATOM     29  H   UNL     1      -6.874  -3.156  22.007  0.00  0.00    +0.000 HD
ATOM     30  H   UNL     1      -4.035  -5.395  19.671  0.00  0.00    +0.000 HD
ATOM     31  H   UNL     1      -5.857  -6.789  18.767  0.00  0.00    +0.000 HD
BRANCH  25  32
ATOM     32  O   UNL     1      -4.296  -3.451  21.341  0.00  0.00    +0.000 OA
ATOM     33  H   UNL     1      -4.586  -2.941  22.116  0.00  0.00    +0.000 HD
ENDBRANCH  25  32
ENDBRANCH  19  22
ENDBRANCH   1  20
BRANCH   9  34
ATOM     34  O   UNL     1      -8.865  -7.786  16.416  0.00  0.00    +0.000 OA
BRANCH  34  35
ATOM     35  C   UNL     1      -9.179  -7.546  15.117  0.00  0.00    +0.000 C 
ATOM     36  O   UNL     1      -9.022  -8.317  14.179  0.00  0.00    +0.000 OA
BRANCH  35  37
ATOM     37  C   UNL     1      -9.660  -6.150  14.948  0.00  0.00    +0.000 A 
ATOM     38  C   UNL     1      -9.051  -5.326  13.989  0.00  0.00    +0.000 A 
ATOM     39  C   UNL     1      -9.388  -3.969  13.913  0.00  0.00    +0.000 A 
ATOM     40  C   UNL     1     -10.375  -3.409  14.751  0.00  0.00    +0.000 A 
ATOM     41  C   UNL     1     -11.034  -4.270  15.654  0.00  0.00    +0.000 A 
ATOM     42  C   UNL     1     -10.654  -5.604  15.775  0.00  0.00    +0.000 A 
ATOM     43  H   UNL     1      -8.295  -5.748  13.331  0.00  0.00    +0.000 HD
ATOM     44  H   UNL     1     -11.129  -6.210  16.540  0.00  0.00    +0.000 HD
BRANCH  39  45
ATOM     45  O   UNL     1      -8.691  -3.176  13.035  0.00  0.00    +0.000 OA
ATOM     46  H   UNL     1      -7.743  -3.374  13.085  0.00  0.00    +0.000 HD
ENDBRANCH  39  45
BRANCH  40  47
ATOM     47  C   UNL     1     -10.684  -1.956  14.687  0.00  0.00    +0.000 C 
ATOM     48  O   UNL     1      -9.818  -1.149  15.048  0.00  0.00    +0.000 OA
BRANCH  47  49
ATOM     49  C   UNL     1     -11.906  -1.371  14.042  0.00  0.00    +0.000 A 
ATOM     50  C   UNL     1     -12.581  -0.370  14.780  0.00  0.00    +0.000 A 
ATOM     51  C   UNL     1     -13.694   0.297  14.270  0.00  0.00    +0.000 A 
ATOM     52  C   UNL     1     -14.157  -0.006  12.999  0.00  0.00    +0.000 A 
ATOM     53  C   UNL     1     -13.511  -0.981  12.242  0.00  0.00    +0.000 A 
ATOM     54  C   UNL     1     -12.388  -1.674  12.747  0.00  0.00    +0.000 A 
ATOM     55  H   UNL     1     -14.198   1.050  14.873  0.00  0.00    +0.000 HD
ATOM     56  H   UNL     1     -15.032   0.508  12.604  0.00  0.00    +0.000 HD
ATOM     57  H   UNL     1     -13.924  -1.213  11.263  0.00  0.00    +0.000 HD
BRANCH  50  58
ATOM     58  O   UNL     1     -12.182   0.059  16.023  0.00  0.00    +0.000 OA
ATOM     59  H   UNL     1     -11.752  -0.698  16.489  0.00  0.00    +0.000 HD
ENDBRANCH  50  58
BRANCH  54  60
ATOM     60  C   UNL     1     -11.796  -2.738  11.894  0.00  0.00    +0.000 C 
ATOM     61  O   UNL     1     -10.861  -2.539  11.141  0.00  0.00    +0.000 OA
BRANCH  60  62
ATOM     62  O   UNL     1     -12.386  -3.950  12.005  0.00  0.00    +0.000 OA
ATOM     63  H   UNL     1     -11.811  -4.727  12.133  0.00  0.00    +0.000 HD
ENDBRANCH  60  62
ENDBRANCH  54  60
ENDBRANCH  47  49
ENDBRANCH  40  47
BRANCH  41  64
ATOM     64  O   UNL     1     -12.044  -3.888  16.496  0.00  0.00    +0.000 OA
ATOM     65  H   UNL     1     -11.687  -3.582  17.345  0.00  0.00    +0.000 HD
ENDBRANCH  41  64
ENDBRANCH  35  37
ENDBRANCH  34  35
ENDBRANCH   9  34
TORSDOF 13
ENDMDL
MODEL 8
REMARK VINA RESULT:    -9.645      1.595      3.038
REMARK INTER + INTRA:         -18.305
REMARK INTER:                 -15.015
REMARK INTRA:                  -3.289
REMARK UNBOUND:                -2.740
REMARK  Name = 
REMARK  13 active torsions:
REMARK  status: ('A' for Active; 'I' for Inactive)
REMARK    1  A    between atoms: C_2  and  C_36
REMARK    2  A    between atoms: N_3  and  C_4
REMARK    3  A    between atoms: C_12  and  O_13
REMARK    4  A    between atoms: O_13  and  C_14
REMARK    5  A    between atoms: C_14  and  C_16
REMARK    6  A    between atoms: C_18  and  O_19
REMARK    7  A    between atoms: C_20  and  C_21
REMARK    8  A    between atoms: C_21  and  C_23
REMARK    9  A    between atoms: C_24  and  O_25
REMARK   10  A    between atoms: C_29  and  C_30
REMARK   11  A    between atoms: C_30  and  O_32
REMARK   12  A    between atoms: C_33  and  O_34
REMARK   13  A    between atoms: C_39  and  O_40
REMARK                            x       y       z     vdW  Elec       q    Type
REMARK                         _______ _______ _______ _____ _____    ______ ____
ROOT
ATOM      1  C   UNL     1      -9.839  -2.345  21.784  0.00  0.00    +0.000 C 
ATOM      2  C   UNL     1      -9.655  -1.065  22.558  0.00  0.00    +0.000 A 
ATOM      3  C   UNL     1     -10.300   0.153  22.391  0.00  0.00    +0.000 A 
ATOM      4  C   UNL     1     -10.042   1.176  23.306  0.00  0.00    +0.000 A 
ATOM      5  C   UNL     1      -9.164   0.970  24.381  0.00  0.00    +0.000 A 
ATOM      6  C   UNL     1      -8.534  -0.264  24.556  0.00  0.00    +0.000 A 
ATOM      7  C   UNL     1      -8.785  -1.269  23.636  0.00  0.00    +0.000 A 
ATOM      8  C   UNL     1      -8.283  -2.686  23.664  0.00  0.00    +0.000 C 
ATOM      9  C   UNL     1      -8.601  -3.175  22.231  0.00  0.00    +0.000 C 
ATOM     10  H   UNL     1     -10.750  -2.825  22.166  0.00  0.00    +0.000 HD
ATOM     11  H   UNL     1     -11.009   0.306  21.582  0.00  0.00    +0.000 HD
ATOM     12  H   UNL     1     -10.543   2.137  23.199  0.00  0.00    +0.000 HD
ATOM     13  H   UNL     1      -8.989   1.772  25.094  0.00  0.00    +0.000 HD
ATOM     14  H   UNL     1      -7.877  -0.430  25.403  0.00  0.00    +0.000 HD
ATOM     15  H   UNL     1      -8.848  -3.251  24.411  0.00  0.00    +0.000 HD
ATOM     16  H   UNL     1      -7.211  -2.718  23.887  0.00  0.00    +0.000 HD
ATOM     17  H   UNL     1      -8.816  -4.249  22.231  0.00  0.00    +0.000 HD
ENDROOT
BRANCH   1  20
ATOM     18  O   UNL     1     -12.194  -2.579  20.297  0.00  0.00    +0.000 OA
ATOM     19  C   UNL     1     -11.147  -2.330  19.711  0.00  0.00    +0.000 C 
ATOM     20  N   UNL     1      -9.945  -2.149  20.357  0.00  0.00    +0.000 N 
ATOM     21  H   UNL     1      -9.104  -1.910  19.852  0.00  0.00    +0.000 HD
BRANCH  19  22
ATOM     22  C   UNL     1     -11.146  -2.159  18.231  0.00  0.00    +0.000 A 
ATOM     23  C   UNL     1     -10.106  -1.421  17.647  0.00  0.00    +0.000 A 
ATOM     24  C   UNL     1     -10.073  -1.215  16.264  0.00  0.00    +0.000 A 
ATOM     25  C   UNL     1     -11.088  -1.744  15.474  0.00  0.00    +0.000 A 
ATOM     26  C   UNL     1     -12.129  -2.474  16.042  0.00  0.00    +0.000 A 
ATOM     27  C   UNL     1     -12.164  -2.682  17.423  0.00  0.00    +0.000 A 
ATOM     28  H   UNL     1      -9.319  -1.000  18.271  0.00  0.00    +0.000 HD
ATOM     29  H   UNL     1      -9.260  -0.642  15.830  0.00  0.00    +0.000 HD
ATOM     30  H   UNL     1     -12.921  -2.865  15.409  0.00  0.00    +0.000 HD
ATOM     31  H   UNL     1     -13.003  -3.219  17.849  0.00  0.00    +0.000 HD
BRANCH  25  32
ATOM     32  O   UNL     1     -11.109  -1.561  14.124  0.00  0.00    +0.000 OA
ATOM     33  H   UNL     1     -11.389  -2.389  13.700  0.00  0.00    +0.000 HD
ENDBRANCH  25  32
ENDBRANCH  19  22
ENDBRANCH   1  20
BRANCH   9  34
ATOM     34  O   UNL     1      -7.420  -2.891  21.434  0.00  0.00    +0.000 OA
BRANCH  34  35
ATOM     35  C   UNL     1      -6.611  -3.935  21.118  0.00  0.00    +0.000 C 
ATOM     36  O   UNL     1      -5.412  -4.019  21.355  0.00  0.00    +0.000 OA
BRANCH  35  37
ATOM     37  C   UNL     1      -7.357  -4.952  20.334  0.00  0.00    +0.000 A 
ATOM     38  C   UNL     1      -8.098  -4.548  19.213  0.00  0.00    +0.000 A 
ATOM     39  C   UNL     1      -8.922  -5.464  18.548  0.00  0.00    +0.000 A 
ATOM     40  C   UNL     1      -8.991  -6.816  18.947  0.00  0.00    +0.000 A 
ATOM     41  C   UNL     1      -8.178  -7.223  20.026  0.00  0.00    +0.000 A 
ATOM     42  C   UNL     1      -7.408  -6.299  20.728  0.00  0.00    +0.000 A 
ATOM     43  H   UNL     1      -8.046  -3.511  18.890  0.00  0.00    +0.000 HD
ATOM     44  H   UNL     1      -6.862  -6.638  21.603  0.00  0.00    +0.000 HD
BRANCH  39  45
ATOM     45  O   UNL     1      -9.711  -5.002  17.525  0.00  0.00    +0.000 OA
ATOM     46  H   UNL     1     -10.613  -4.840  17.844  0.00  0.00    +0.000 HD
ENDBRANCH  39  45
BRANCH  40  47
ATOM     47  C   UNL     1      -9.907  -7.761  18.258  0.00  0.00    +0.000 C 
ATOM     48  O   UNL     1     -11.115  -7.714  18.522  0.00  0.00    +0.000 OA
BRANCH  47  49
ATOM     49  C   UNL     1      -9.514  -8.656  17.119  0.00  0.00    +0.000 A 
ATOM     50  C   UNL     1      -9.165  -9.983  17.462  0.00  0.00    +0.000 A 
ATOM     51  C   UNL     1      -8.838 -10.933  16.494  0.00  0.00    +0.000 A 
ATOM     52  C   UNL     1      -8.866 -10.587  15.152  0.00  0.00    +0.000 A 
ATOM     53  C   UNL     1      -9.212  -9.289  14.779  0.00  0.00    +0.000 A 
ATOM     54  C   UNL     1      -9.537  -8.312  15.747  0.00  0.00    +0.000 A 
ATOM     55  H   UNL     1      -8.559 -11.940  16.796  0.00  0.00    +0.000 HD
ATOM     56  H   UNL     1      -8.602 -11.325  14.397  0.00  0.00    +0.000 HD
ATOM     57  H   UNL     1      -9.191  -9.049  13.719  0.00  0.00    +0.000 HD
BRANCH  50  58
ATOM     58  O   UNL     1      -9.161 -10.461  18.750  0.00  0.00    +0.000 OA
ATOM     59  H   UNL     1      -8.917 -11.417  18.725  0.00  0.00    +0.000 HD
ENDBRANCH  50  58
BRANCH  54  60
ATOM     60  C   UNL     1      -9.839  -6.940  15.263  0.00  0.00    +0.000 C 
ATOM     61  O   UNL     1      -9.027  -6.252  14.672  0.00  0.00    +0.000 OA
BRANCH  60  62
ATOM     62  O   UNL     1     -11.088  -6.500  15.541  0.00  0.00    +0.000 OA
ATOM     63  H   UNL     1     -11.783  -6.649  14.875  0.00  0.00    +0.000 HD
ENDBRANCH  60  62
ENDBRANCH  54  60
ENDBRANCH  47  49
ENDBRANCH  40  47
BRANCH  41  64
ATOM     64  O   UNL     1      -8.096  -8.506  20.498  0.00  0.00    +0.000 OA
ATOM     65  H   UNL     1      -8.053  -9.140  19.764  0.00  0.00    +0.000 HD
ENDBRANCH  41  64
ENDBRANCH  35  37
ENDBRANCH  34  35
ENDBRANCH   9  34
TORSDOF 13
ENDMDL
MODEL 9
REMARK VINA RESULT:    -9.625      2.447      8.958
REMARK INTER + INTRA:         -18.272
REMARK INTER:                 -16.804
REMARK INTRA:                  -1.468
REMARK UNBOUND:                -2.740
REMARK  Name = 
REMARK  13 active torsions:
REMARK  status: ('A' for Active; 'I' for Inactive)
REMARK    1  A    between atoms: C_2  and  C_36
REMARK    2  A    between atoms: N_3  and  C_4
REMARK    3  A    between atoms: C_12  and  O_13
REMARK    4  A    between atoms: O_13  and  C_14
REMARK    5  A    between atoms: C_14  and  C_16
REMARK    6  A    between atoms: C_18  and  O_19
REMARK    7  A    between atoms: C_20  and  C_21
REMARK    8  A    between atoms: C_21  and  C_23
REMARK    9  A    between atoms: C_24  and  O_25
REMARK   10  A    between atoms: C_29  and  C_30
REMARK   11  A    between atoms: C_30  and  O_32
REMARK   12  A    between atoms: C_33  and  O_34
REMARK   13  A    between atoms: C_39  and  O_40
REMARK                            x       y       z     vdW  Elec       q    Type
REMARK                         _______ _______ _______ _____ _____    ______ ____
ROOT
ATOM      1  C   UNL     1     -10.701  -6.001  17.635  0.00  0.00    +0.000 C 
ATOM      2  C   UNL     1     -10.887  -5.043  16.486  0.00  0.00    +0.000 A 
ATOM      3  C   UNL     1     -11.265  -5.317  15.179  0.00  0.00    +0.000 A 
ATOM      4  C   UNL     1     -11.480  -4.246  14.308  0.00  0.00    +0.000 A 
ATOM      5  C   UNL     1     -11.335  -2.923  14.751  0.00  0.00    +0.000 A 
ATOM      6  C   UNL     1     -10.975  -2.653  16.073  0.00  0.00    +0.000 A 
ATOM      7  C   UNL     1     -10.750  -3.722  16.927  0.00  0.00    +0.000 A 
ATOM      8  C   UNL     1     -10.429  -3.672  18.394  0.00  0.00    +0.000 C 
ATOM      9  C   UNL     1      -9.953  -5.117  18.675  0.00  0.00    +0.000 C 
ATOM     10  H   UNL     1     -11.701  -6.239  18.021  0.00  0.00    +0.000 HD
ATOM     11  H   UNL     1     -11.416  -6.338  14.840  0.00  0.00    +0.000 HD
ATOM     12  H   UNL     1     -11.785  -4.437  13.281  0.00  0.00    +0.000 HD
ATOM     13  H   UNL     1     -11.524  -2.101  14.065  0.00  0.00    +0.000 HD
ATOM     14  H   UNL     1     -10.890  -1.629  16.422  0.00  0.00    +0.000 HD
ATOM     15  H   UNL     1     -11.341  -3.439  18.953  0.00  0.00    +0.000 HD
ATOM     16  H   UNL     1      -9.651  -2.930  18.601  0.00  0.00    +0.000 HD
ATOM     17  H   UNL     1     -10.198  -5.410  19.702  0.00  0.00    +0.000 HD
ENDROOT
BRANCH   1  20
ATOM     18  O   UNL     1     -11.931  -8.366  16.794  0.00  0.00    +0.000 OA
ATOM     19  C   UNL     1     -10.712  -8.342  16.911  0.00  0.00    +0.000 C 
ATOM     20  N   UNL     1     -10.008  -7.215  17.272  0.00  0.00    +0.000 N 
ATOM     21  H   UNL     1      -9.000  -7.215  17.326  0.00  0.00    +0.000 HD
BRANCH  19  22
ATOM     22  C   UNL     1      -9.913  -9.562  16.605  0.00  0.00    +0.000 A 
ATOM     23  C   UNL     1      -9.807  -9.972  15.267  0.00  0.00    +0.000 A 
ATOM     24  C   UNL     1      -9.086 -11.121  14.933  0.00  0.00    +0.000 A 
ATOM     25  C   UNL     1      -8.479 -11.860  15.943  0.00  0.00    +0.000 A 
ATOM     26  C   UNL     1      -8.580 -11.468  17.275  0.00  0.00    +0.000 A 
ATOM     27  C   UNL     1      -9.300 -10.318  17.612  0.00  0.00    +0.000 A 
ATOM     28  H   UNL     1     -10.293  -9.395  14.481  0.00  0.00    +0.000 HD
ATOM     29  H   UNL     1      -9.015 -11.422  13.892  0.00  0.00    +0.000 HD
ATOM     30  H   UNL     1      -8.112 -12.067  18.051  0.00  0.00    +0.000 HD
ATOM     31  H   UNL     1      -9.398 -10.052  18.658  0.00  0.00    +0.000 HD
BRANCH  25  32
ATOM     32  O   UNL     1      -7.775 -12.995  15.672  0.00  0.00    +0.000 OA
ATOM     33  H   UNL     1      -7.425 -13.354  16.504  0.00  0.00    +0.000 HD
ENDBRANCH  25  32
ENDBRANCH  19  22
ENDBRANCH   1  20
BRANCH   9  34
ATOM     34  O   UNL     1      -8.514  -5.116  18.475  0.00  0.00    +0.000 OA
BRANCH  34  35
ATOM     35  C   UNL     1      -7.729  -5.298  19.567  0.00  0.00    +0.000 C 
ATOM     36  O   UNL     1      -7.002  -6.261  19.784  0.00  0.00    +0.000 OA
BRANCH  35  37
ATOM     37  C   UNL     1      -7.939  -4.203  20.549  0.00  0.00    +0.000 A 
ATOM     38  C   UNL     1      -8.047  -4.515  21.913  0.00  0.00    +0.000 A 
ATOM     39  C   UNL     1      -8.390  -3.519  22.836  0.00  0.00    +0.000 A 
ATOM     40  C   UNL     1      -8.583  -2.180  22.435  0.00  0.00    +0.000 A 
ATOM     41  C   UNL     1      -8.392  -1.870  21.073  0.00  0.00    +0.000 A 
ATOM     42  C   UNL     1      -8.115  -2.871  20.145  0.00  0.00    +0.000 A 
ATOM     43  H   UNL     1      -7.892  -5.542  22.235  0.00  0.00    +0.000 HD
ATOM     44  H   UNL     1      -8.058  -2.601  19.094  0.00  0.00    +0.000 HD
BRANCH  39  45
ATOM     45  O   UNL     1      -8.590  -3.889  24.143  0.00  0.00    +0.000 OA
ATOM     46  H   UNL     1      -8.293  -4.802  24.282  0.00  0.00    +0.000 HD
ENDBRANCH  39  45
BRANCH  40  47
ATOM     47  C   UNL     1      -8.993  -1.148  23.423  0.00  0.00    +0.000 C 
ATOM     48  O   UNL     1      -8.342  -1.038  24.470  0.00  0.00    +0.000 OA
BRANCH  47  49
ATOM     49  C   UNL     1     -10.029  -0.092  23.175  0.00  0.00    +0.000 A 
ATOM     50  C   UNL     1      -9.644   1.238  23.467  0.00  0.00    +0.000 A 
ATOM     51  C   UNL     1     -10.490   2.320  23.225  0.00  0.00    +0.000 A 
ATOM     52  C   UNL     1     -11.742   2.105  22.670  0.00  0.00    +0.000 A 
ATOM     53  C   UNL     1     -12.150   0.808  22.364  0.00  0.00    +0.000 A 
ATOM     54  C   UNL     1     -11.309  -0.300  22.610  0.00  0.00    +0.000 A 
ATOM     55  H   UNL     1     -10.167   3.328  23.477  0.00  0.00    +0.000 HD
ATOM     56  H   UNL     1     -12.407   2.948  22.490  0.00  0.00    +0.000 HD
ATOM     57  H   UNL     1     -13.151   0.679  21.959  0.00  0.00    +0.000 HD
BRANCH  50  58
ATOM     58  O   UNL     1      -8.410   1.583  23.961  0.00  0.00    +0.000 OA
ATOM     59  H   UNL     1      -7.864   1.931  23.216  0.00  0.00    +0.000 HD
ENDBRANCH  50  58
BRANCH  54  60
ATOM     60  C   UNL     1     -11.847  -1.652  22.306  0.00  0.00    +0.000 C 
ATOM     61  O   UNL     1     -11.997  -2.064  21.171  0.00  0.00    +0.000 OA
BRANCH  60  62
ATOM     62  O   UNL     1     -12.173  -2.392  23.390  0.00  0.00    +0.000 OA
ATOM     63  H   UNL     1     -12.017  -2.006  24.270  0.00  0.00    +0.000 HD
ENDBRANCH  60  62
ENDBRANCH  54  60
ENDBRANCH  47  49
ENDBRANCH  40  47
BRANCH  41  64
ATOM     64  O   UNL     1      -8.494  -0.613  20.540  0.00  0.00    +0.000 OA
ATOM     65  H   UNL     1      -9.156  -0.089  21.019  0.00  0.00    +0.000 HD
ENDBRANCH  41  64
ENDBRANCH  35  37
ENDBRANCH  34  35
ENDBRANCH   9  34
TORSDOF 13
ENDMDL
