REMARK  Name = 
REMARK  10 active torsions:
REMARK  status: ('A' for Active; 'I' for Inactive)
REMARK    1  A    between atoms: C_1  and  O_2
REMARK    2  A    between atoms: O_2  and  C_3
REMARK    3  A    between atoms: C_3  and  C_5
REMARK    4  A    between atoms: C_9  and  N_10
REMARK    5  A    between atoms: C_11  and  C_13
REMARK    6  A    between atoms: C_13  and  N_14
REMARK    7  A    between atoms: N_14  and  C_15
REMARK    8  A    between atoms: N_14  and  C_16
REMARK    9  A    between atoms: N_19  and  C_20
REMARK   10  A    between atoms: C_27  and  C_28
REMARK                            x       y       z     vdW  Elec       q    Type
REMARK                         _______ _______ _______ _____ _____    ______ ____
ROOT
ATOM      1  C   UNL     1      -0.629  -1.408   0.531  0.00  0.00    +0.000 C 
ATOM      2  C   UNL     1       0.772  -0.760   0.320  0.00  0.00    +0.000 C 
ATOM      3  C   UNL     1       1.106  -0.626  -1.172  0.00  0.00    +0.000 C 
ATOM      4  N   UNL     1       1.096  -1.971  -1.700  0.00  0.00    +0.000 N 
ATOM      5  C   UNL     1      -0.243  -2.543  -1.794  0.00  0.00    +0.000 C 
ATOM      6  C   UNL     1      -0.779  -2.686  -0.360  0.00  0.00    +0.000 C 
ATOM      7  H   UNL     1       1.523  -1.402   0.779  0.00  0.00    +0.000 HD
ATOM      8  H   UNL     1       0.856   0.221   0.801  0.00  0.00    +0.000 HD
ATOM      9  H   UNL     1       2.044  -0.105  -1.351  0.00  0.00    +0.000 HD
ATOM     10  H   UNL     1       0.360  -0.006  -1.687  0.00  0.00    +0.000 HD
ATOM     11  H   UNL     1      -0.257  -3.539  -2.252  0.00  0.00    +0.000 HD
ATOM     12  H   UNL     1      -0.890  -1.910  -2.413  0.00  0.00    +0.000 HD
ATOM     13  H   UNL     1      -0.206  -3.510   0.078  0.00  0.00    +0.000 HD
ATOM     14  H   UNL     1      -1.824  -3.015  -0.406  0.00  0.00    +0.000 HD
ENDROOT
BRANCH   4  15
ATOM     15  C   UNL     1       2.139  -2.496  -2.435  0.00  0.00    +0.000 A 
ATOM     16  N   UNL     1       1.803  -3.336  -3.462  0.00  0.00    +0.000 NA
ATOM     17  C   UNL     1       2.754  -3.912  -4.212  0.00  0.00    +0.000 A 
ATOM     18  N   UNL     1       4.075  -3.777  -4.094  0.00  0.00    +0.000 NA
ATOM     19  C   UNL     1       4.392  -2.978  -3.069  0.00  0.00    +0.000 A 
ATOM     20  N   UNL     1       5.685  -2.716  -2.727  0.00  0.00    +0.000 N 
ATOM     21  C   UNL     1       5.721  -1.930  -1.618  0.00  0.00    +0.000 A 
ATOM     22  C   UNL     1       4.418  -1.672  -1.222  0.00  0.00    +0.000 A 
ATOM     23  C   UNL     1       3.536  -2.314  -2.188  0.00  0.00    +0.000 A 
ATOM     24  H   UNL     1       2.407  -4.568  -5.004  0.00  0.00    +0.000 HD
ATOM     25  H   UNL     1       6.479  -3.096  -3.219  0.00  0.00    +0.000 HD
ATOM     26  H   UNL     1       6.664  -1.642  -1.171  0.00  0.00    +0.000 HD
BRANCH  22  27
ATOM     27  C   UNL     1       4.121  -0.917   0.021  0.00  0.00    +0.000 C 
ATOM     28  H   UNL     1       5.043  -0.666   0.560  0.00  0.00    +0.000 HD
ATOM     29  H   UNL     1       3.528  -1.524   0.704  0.00  0.00    +0.000 HD
ATOM     30  H   UNL     1       3.632   0.038  -0.177  0.00  0.00    +0.000 HD
ENDBRANCH  22  27
ENDBRANCH   4  15
BRANCH   1  32
ATOM     31  N   UNL     1      -1.718   0.789   0.924  0.00  0.00    +0.000 N 
ATOM     32  C   UNL     1      -1.639  -0.304   0.068  0.00  0.00    +0.000 C 
ATOM     33  O   UNL     1      -2.227  -0.408  -1.007  0.00  0.00    +0.000 OA
ATOM     34  H   UNL     1      -1.197   0.699   1.795  0.00  0.00    +0.000 HD
BRANCH  31  39
ATOM     35  C   UNL     1      -2.862   4.313   1.293  0.00  0.00    +0.000 A 
ATOM     36  C   UNL     1      -3.666   4.456   0.155  0.00  0.00    +0.000 A 
ATOM     37  C   UNL     1      -3.884   3.372  -0.683  0.00  0.00    +0.000 A 
ATOM     38  C   UNL     1      -3.277   2.150  -0.408  0.00  0.00    +0.000 A 
ATOM     39  C   UNL     1      -2.430   1.990   0.694  0.00  0.00    +0.000 A 
ATOM     40  C   UNL     1      -2.256   3.070   1.571  0.00  0.00    +0.000 A 
ATOM     41  H   UNL     1      -4.124   5.408  -0.102  0.00  0.00    +0.000 HD
ATOM     42  H   UNL     1      -4.514   3.470  -1.561  0.00  0.00    +0.000 HD
ATOM     43  H   UNL     1      -3.496   1.335  -1.085  0.00  0.00    +0.000 HD
ATOM     44  H   UNL     1      -1.628   2.973   2.453  0.00  0.00    +0.000 HD
BRANCH  35  45
ATOM     45  C   UNL     1      -2.617   5.468   2.201  0.00  0.00    +0.000 C 
ATOM     46  O   UNL     1      -1.941   5.402   3.215  0.00  0.00    +0.000 OA
BRANCH  45  47
ATOM     47  O   UNL     1      -3.228   6.577   1.716  0.00  0.00    +0.000 OA
BRANCH  47  48
ATOM     48  C   UNL     1      -3.041   7.762   2.489  0.00  0.00    +0.000 C 
ATOM     49  H   UNL     1      -3.664   8.547   2.051  0.00  0.00    +0.000 HD
ATOM     50  H   UNL     1      -1.996   8.083   2.440  0.00  0.00    +0.000 HD
ATOM     51  H   UNL     1      -3.357   7.608   3.524  0.00  0.00    +0.000 HD
ENDBRANCH  47  48
ENDBRANCH  45  47
ENDBRANCH  35  45
ENDBRANCH  31  39
ENDBRANCH   1  32
BRANCH   1  52
ATOM     52  N   UNL     1      -0.878  -1.677   2.006  0.00  0.00    +0.000 NA
BRANCH  52  53
ATOM     53  C   UNL     1      -2.280  -2.047   2.282  0.00  0.00    +0.000 C 
ATOM     54  H   UNL     1      -2.971  -1.231   2.054  0.00  0.00    +0.000 HD
ATOM     55  H   UNL     1      -2.415  -2.251   3.351  0.00  0.00    +0.000 HD
ATOM     56  H   UNL     1      -2.599  -2.936   1.729  0.00  0.00    +0.000 HD
ENDBRANCH  52  53
BRANCH  52  57
ATOM     57  C   UNL     1      -0.028  -2.749   2.558  0.00  0.00    +0.000 C 
ATOM     58  H   UNL     1       1.038  -2.554   2.419  0.00  0.00    +0.000 HD
ATOM     59  H   UNL     1      -0.261  -3.734   2.147  0.00  0.00    +0.000 HD
ATOM     60  H   UNL     1      -0.175  -2.817   3.645  0.00  0.00    +0.000 HD
ENDBRANCH  52  57
ENDBRANCH   1  52
TORSDOF 10
