MODEL 1
REMARK VINA RESULT:   -10.357      0.000      0.000
REMARK INTER + INTRA:         -10.941
REMARK INTER:                 -10.963
REMARK INTRA:                   0.022
REMARK UNBOUND:                 0.022
REMARK  Name = 
REMARK  1 active torsions:
REMARK  status: ('A' for Active; 'I' for Inactive)
REMARK    1  A    between atoms: C_6  and  C_7
REMARK                            x       y       z     vdW  Elec       q    Type
REMARK                         _______ _______ _______ _____ _____    ______ ____
ROOT
ATOM      1  C   UNL     1      -8.920  -8.640  16.493  0.00  0.00    +0.000 A 
ATOM      2  C   UNL     1      -9.004  -8.222  15.176  0.00  0.00    +0.000 A 
ATOM      3  N   UNL     1      -8.989  -9.327  14.368  0.00  0.00    +0.000 N 
ATOM      4  C   UNL     1      -8.906 -10.469  15.128  0.00  0.00    +0.000 A 
ATOM      5  C   UNL     1      -8.847 -11.812  14.731  0.00  0.00    +0.000 A 
ATOM      6  C   UNL     1      -8.768 -12.791  15.733  0.00  0.00    +0.000 A 
ATOM      7 BR   UNL     1      -8.688 -14.598  15.146  0.00  0.00    +0.000 Br
ATOM      8  C   UNL     1      -8.750 -12.431  17.082  0.00  0.00    +0.000 A 
ATOM      9 BR   UNL     1      -8.649 -13.703  18.492  0.00  0.00    +0.000 Br
ATOM     10  C   UNL     1      -8.802 -11.079  17.455  0.00  0.00    +0.000 A 
ATOM     11  C   UNL     1      -8.881 -10.075  16.465  0.00  0.00    +0.000 A 
ATOM     12  H   UNL     1      -9.073  -7.235  14.737  0.00  0.00    +0.000 HD
ATOM     13  H   UNL     1      -9.026  -9.312  13.359  0.00  0.00    +0.000 HD
ATOM     14  H   UNL     1      -8.859 -12.082  13.680  0.00  0.00    +0.000 HD
ATOM     15  H   UNL     1      -8.780 -10.794  18.504  0.00  0.00    +0.000 HD
ENDROOT
BRANCH   1  21
ATOM     16  N   UNL     1      -9.232  -4.245  18.161  0.00  0.00    +0.000 N 
ATOM     17  C   UNL     1      -9.026  -5.587  18.408  0.00  0.00    +0.000 A 
ATOM     18  N   UNL     1      -8.860  -5.951  19.682  0.00  0.00    +0.000 NA
ATOM     19  C   UNL     1      -8.714  -7.267  19.914  0.00  0.00    +0.000 A 
ATOM     20  C   UNL     1      -8.713  -8.214  18.922  0.00  0.00    +0.000 A 
ATOM     21  C   UNL     1      -8.859  -7.733  17.638  0.00  0.00    +0.000 A 
ATOM     22  N   UNL     1      -9.006  -6.420  17.366  0.00  0.00    +0.000 NA
ATOM     23  H   UNL     1      -8.877  -3.690  18.923  0.00  0.00    +0.000 HD
ATOM     24  H   UNL     1      -8.944  -4.006  17.223  0.00  0.00    +0.000 HD
ATOM     25  H   UNL     1      -8.612  -7.545  20.958  0.00  0.00    +0.000 HD
ATOM     26  H   UNL     1      -8.630  -9.265  19.153  0.00  0.00    +0.000 HD
ENDBRANCH   1  21
TORSDOF 1
ENDMDL
MODEL 2
REMARK VINA RESULT:    -9.855      3.443      6.084
REMARK INTER + INTRA:         -10.410
REMARK INTER:                 -10.444
REMARK INTRA:                   0.035
REMARK UNBOUND:                 0.022
REMARK  Name = 
REMARK  1 active torsions:
REMARK  status: ('A' for Active; 'I' for Inactive)
REMARK    1  A    between atoms: C_6  and  C_7
REMARK                            x       y       z     vdW  Elec       q    Type
REMARK                         _______ _______ _______ _____ _____    ______ ____
ROOT
ATOM      1  C   UNL     1      -8.906 -10.921  15.537  0.00  0.00    +0.000 A 
ATOM      2  C   UNL     1      -9.006 -10.394  14.261  0.00  0.00    +0.000 A 
ATOM      3  N   UNL     1      -9.139  -9.035  14.361  0.00  0.00    +0.000 N 
ATOM      4  C   UNL     1      -9.120  -8.653  15.681  0.00  0.00    +0.000 A 
ATOM      5  C   UNL     1      -9.241  -7.378  16.250  0.00  0.00    +0.000 A 
ATOM      6  C   UNL     1      -9.183  -7.273  17.648  0.00  0.00    +0.000 A 
ATOM      7 BR   UNL     1      -9.354  -5.524  18.375  0.00  0.00    +0.000 Br
ATOM      8  C   UNL     1      -9.010  -8.410  18.441  0.00  0.00    +0.000 A 
ATOM      9 BR   UNL     1      -8.918  -8.344  20.339  0.00  0.00    +0.000 Br
ATOM     10  C   UNL     1      -8.900  -9.677  17.848  0.00  0.00    +0.000 A 
ATOM     11  C   UNL     1      -8.955  -9.808  16.444  0.00  0.00    +0.000 A 
ATOM     12  H   UNL     1      -8.994 -10.863  13.285  0.00  0.00    +0.000 HD
ATOM     13  H   UNL     1      -9.244  -8.400  13.582  0.00  0.00    +0.000 HD
ATOM     14  H   UNL     1      -9.378  -6.500  15.625  0.00  0.00    +0.000 HD
ATOM     15  H   UNL     1      -8.773 -10.565  18.463  0.00  0.00    +0.000 HD
ENDROOT
BRANCH   1  21
ATOM     16  N   UNL     1      -8.802 -14.372  18.741  0.00  0.00    +0.000 N 
ATOM     17  C   UNL     1      -8.763 -13.995  17.415  0.00  0.00    +0.000 A 
ATOM     18  N   UNL     1      -8.704 -14.972  16.507  0.00  0.00    +0.000 NA
ATOM     19  C   UNL     1      -8.721 -14.594  15.218  0.00  0.00    +0.000 A 
ATOM     20  C   UNL     1      -8.777 -13.284  14.815  0.00  0.00    +0.000 A 
ATOM     21  C   UNL     1      -8.801 -12.349  15.828  0.00  0.00    +0.000 A 
ATOM     22  N   UNL     1      -8.784 -12.691  17.133  0.00  0.00    +0.000 NA
ATOM     23  H   UNL     1      -8.425 -15.300  18.853  0.00  0.00    +0.000 HD
ATOM     24  H   UNL     1      -8.441 -13.637  19.332  0.00  0.00    +0.000 HD
ATOM     25  H   UNL     1      -8.704 -15.404  14.496  0.00  0.00    +0.000 HD
ATOM     26  H   UNL     1      -8.826 -13.023  13.769  0.00  0.00    +0.000 HD
ENDBRANCH   1  21
TORSDOF 1
ENDMDL
MODEL 3
REMARK VINA RESULT:    -9.816      1.953      3.047
REMARK INTER + INTRA:         -10.368
REMARK INTER:                 -10.128
REMARK INTRA:                  -0.240
REMARK UNBOUND:                 0.022
REMARK  Name = 
REMARK  1 active torsions:
REMARK  status: ('A' for Active; 'I' for Inactive)
REMARK    1  A    between atoms: C_6  and  C_7
REMARK                            x       y       z     vdW  Elec       q    Type
REMARK                         _______ _______ _______ _____ _____    ______ ____
ROOT
ATOM      1  C   UNL     1      -8.836  -8.330  19.073  0.00  0.00    +0.000 A 
ATOM      2  C   UNL     1      -8.586  -9.042  20.233  0.00  0.00    +0.000 A 
ATOM      3  N   UNL     1      -8.494 -10.371  19.916  0.00  0.00    +0.000 N 
ATOM      4  C   UNL     1      -8.668 -10.549  18.564  0.00  0.00    +0.000 A 
ATOM      5  C   UNL     1      -8.671 -11.727  17.806  0.00  0.00    +0.000 A 
ATOM      6  C   UNL     1      -8.873 -11.618  16.422  0.00  0.00    +0.000 A 
ATOM      7 BR   UNL     1      -8.870 -13.243  15.434  0.00  0.00    +0.000 Br
ATOM      8  C   UNL     1      -9.065 -10.369  15.826  0.00  0.00    +0.000 A 
ATOM      9 BR   UNL     1      -9.340 -10.144  13.958  0.00  0.00    +0.000 Br
ATOM     10  C   UNL     1      -9.066  -9.204  16.608  0.00  0.00    +0.000 A 
ATOM     11  C   UNL     1      -8.865  -9.288  18.003  0.00  0.00    +0.000 A 
ATOM     12  H   UNL     1      -8.465  -8.724  21.261  0.00  0.00    +0.000 HD
ATOM     13  H   UNL     1      -8.328 -11.118  20.576  0.00  0.00    +0.000 HD
ATOM     14  H   UNL     1      -8.523 -12.694  18.278  0.00  0.00    +0.000 HD
ATOM     15  H   UNL     1      -9.223  -8.231  16.150  0.00  0.00    +0.000 HD
ENDROOT
BRANCH   1  21
ATOM     16  N   UNL     1     -11.601  -4.706  17.884  0.00  0.00    +0.000 N 
ATOM     17  C   UNL     1     -10.421  -5.154  18.442  0.00  0.00    +0.000 A 
ATOM     18  N   UNL     1      -9.605  -4.232  18.957  0.00  0.00    +0.000 NA
ATOM     19  C   UNL     1      -8.485  -4.686  19.545  0.00  0.00    +0.000 A 
ATOM     20  C   UNL     1      -8.154  -6.015  19.617  0.00  0.00    +0.000 A 
ATOM     21  C   UNL     1      -9.046  -6.884  19.027  0.00  0.00    +0.000 A 
ATOM     22  N   UNL     1     -10.180  -6.466  18.427  0.00  0.00    +0.000 NA
ATOM     23  H   UNL     1     -11.519  -3.736  17.625  0.00  0.00    +0.000 HD
ATOM     24  H   UNL     1     -11.938  -5.358  17.190  0.00  0.00    +0.000 HD
ATOM     25  H   UNL     1      -7.850  -3.923  19.985  0.00  0.00    +0.000 HD
ATOM     26  H   UNL     1      -7.262  -6.342  20.131  0.00  0.00    +0.000 HD
ENDBRANCH   1  21
TORSDOF 1
ENDMDL
MODEL 4
REMARK VINA RESULT:    -9.784      3.814      6.167
REMARK INTER + INTRA:         -10.334
REMARK INTER:                 -10.041
REMARK INTRA:                  -0.293
REMARK UNBOUND:                 0.022
REMARK  Name = 
REMARK  1 active torsions:
REMARK  status: ('A' for Active; 'I' for Inactive)
REMARK    1  A    between atoms: C_6  and  C_7
REMARK                            x       y       z     vdW  Elec       q    Type
REMARK                         _______ _______ _______ _____ _____    ______ ____
ROOT
ATOM      1  C   UNL     1      -9.901  -9.237  16.577  0.00  0.00    +0.000 A 
ATOM      2  C   UNL     1     -11.073  -8.945  15.901  0.00  0.00    +0.000 A 
ATOM      3  N   UNL     1     -11.407  -7.641  16.155  0.00  0.00    +0.000 N 
ATOM      4  C   UNL     1     -10.472  -7.064  16.979  0.00  0.00    +0.000 A 
ATOM      5  C   UNL     1     -10.417  -5.767  17.507  0.00  0.00    +0.000 A 
ATOM      6  C   UNL     1      -9.330  -5.438  18.331  0.00  0.00    +0.000 A 
ATOM      7 BR   UNL     1      -9.299  -3.668  19.026  0.00  0.00    +0.000 Br
ATOM      8  C   UNL     1      -8.338  -6.380  18.613  0.00  0.00    +0.000 A 
ATOM      9 BR   UNL     1      -6.836  -6.004  19.717  0.00  0.00    +0.000 Br
ATOM     10  C   UNL     1      -8.420  -7.675  18.079  0.00  0.00    +0.000 A 
ATOM     11  C   UNL     1      -9.503  -8.030  17.247  0.00  0.00    +0.000 A 
ATOM     12  H   UNL     1     -11.703  -9.547  15.259  0.00  0.00    +0.000 HD
ATOM     13  H   UNL     1     -12.226  -7.169  15.796  0.00  0.00    +0.000 HD
ATOM     14  H   UNL     1     -11.194  -5.042  17.285  0.00  0.00    +0.000 HD
ATOM     15  H   UNL     1      -7.653  -8.414  18.302  0.00  0.00    +0.000 HD
ENDROOT
BRANCH   1  21
ATOM     16  N   UNL     1      -8.804 -13.160  18.943  0.00  0.00    +0.000 N 
ATOM     17  C   UNL     1      -8.759 -12.444  17.765  0.00  0.00    +0.000 A 
ATOM     18  N   UNL     1      -8.201 -13.043  16.711  0.00  0.00    +0.000 NA
ATOM     19  C   UNL     1      -8.211 -12.356  15.556  0.00  0.00    +0.000 A 
ATOM     20  C   UNL     1      -8.741 -11.098  15.430  0.00  0.00    +0.000 A 
ATOM     21  C   UNL     1      -9.265 -10.553  16.583  0.00  0.00    +0.000 A 
ATOM     22  N   UNL     1      -9.271 -11.212  17.761  0.00  0.00    +0.000 NA
ATOM     23  H   UNL     1      -8.101 -13.882  18.941  0.00  0.00    +0.000 HD
ATOM     24  H   UNL     1      -8.846 -12.538  19.738  0.00  0.00    +0.000 HD
ATOM     25  H   UNL     1      -7.781 -12.873  14.704  0.00  0.00    +0.000 HD
ATOM     26  H   UNL     1      -8.763 -10.594  14.476  0.00  0.00    +0.000 HD
ENDBRANCH   1  21
TORSDOF 1
ENDMDL
MODEL 5
REMARK VINA RESULT:    -9.473      2.084      3.648
REMARK INTER + INTRA:         -10.005
REMARK INTER:                  -9.733
REMARK INTRA:                  -0.271
REMARK UNBOUND:                 0.022
REMARK  Name = 
REMARK  1 active torsions:
REMARK  status: ('A' for Active; 'I' for Inactive)
REMARK    1  A    between atoms: C_6  and  C_7
REMARK                            x       y       z     vdW  Elec       q    Type
REMARK                         _______ _______ _______ _____ _____    ______ ____
ROOT
ATOM      1  C   UNL     1      -9.517  -7.452  17.990  0.00  0.00    +0.000 A 
ATOM      2  C   UNL     1      -9.295  -7.165  19.325  0.00  0.00    +0.000 A 
ATOM      3  N   UNL     1      -8.888  -8.312  19.954  0.00  0.00    +0.000 N 
ATOM      4  C   UNL     1      -8.828  -9.350  19.054  0.00  0.00    +0.000 A 
ATOM      5  C   UNL     1      -8.481 -10.693  19.252  0.00  0.00    +0.000 A 
ATOM      6  C   UNL     1      -8.501 -11.548  18.141  0.00  0.00    +0.000 A 
ATOM      7 BR   UNL     1      -8.025 -13.362  18.458  0.00  0.00    +0.000 Br
ATOM      8  C   UNL     1      -8.858 -11.068  16.878  0.00  0.00    +0.000 A 
ATOM      9 BR   UNL     1      -8.903 -12.167  15.327  0.00  0.00    +0.000 Br
ATOM     10  C   UNL     1      -9.209  -9.721  16.707  0.00  0.00    +0.000 A 
ATOM     11  C   UNL     1      -9.196  -8.840  17.810  0.00  0.00    +0.000 A 
ATOM     12  H   UNL     1      -9.390  -6.247  19.891  0.00  0.00    +0.000 HD
ATOM     13  H   UNL     1      -8.669  -8.392  20.937  0.00  0.00    +0.000 HD
ATOM     14  H   UNL     1      -8.207 -11.057  20.238  0.00  0.00    +0.000 HD
ATOM     15  H   UNL     1      -9.494  -9.344  15.727  0.00  0.00    +0.000 HD
ENDROOT
BRANCH   1  21
ATOM     16  N   UNL     1      -8.927  -5.235  13.876  0.00  0.00    +0.000 N 
ATOM     17  C   UNL     1      -9.690  -5.433  15.008  0.00  0.00    +0.000 A 
ATOM     18  N   UNL     1     -10.849  -4.774  15.082  0.00  0.00    +0.000 NA
ATOM     19  C   UNL     1     -11.607  -5.016  16.165  0.00  0.00    +0.000 A 
ATOM     20  C   UNL     1     -11.238  -5.874  17.169  0.00  0.00    +0.000 A 
ATOM     21  C   UNL     1     -10.010  -6.481  17.014  0.00  0.00    +0.000 A 
ATOM     22  N   UNL     1      -9.221  -6.261  15.942  0.00  0.00    +0.000 NA
ATOM     23  H   UNL     1      -9.174  -4.362  13.435  0.00  0.00    +0.000 HD
ATOM     24  H   UNL     1      -7.952  -5.413  14.066  0.00  0.00    +0.000 HD
ATOM     25  H   UNL     1     -12.559  -4.495  16.192  0.00  0.00    +0.000 HD
ATOM     26  H   UNL     1     -11.892  -6.070  18.005  0.00  0.00    +0.000 HD
ENDBRANCH   1  21
TORSDOF 1
ENDMDL
MODEL 6
REMARK VINA RESULT:    -9.402      3.828      6.713
REMARK INTER + INTRA:          -9.929
REMARK INTER:                  -9.929
REMARK INTRA:                  -0.001
REMARK UNBOUND:                 0.022
REMARK  Name = 
REMARK  1 active torsions:
REMARK  status: ('A' for Active; 'I' for Inactive)
REMARK    1  A    between atoms: C_6  and  C_7
REMARK                            x       y       z     vdW  Elec       q    Type
REMARK                         _______ _______ _______ _____ _____    ______ ____
ROOT
ATOM      1  C   UNL     1      -8.697 -10.906  17.994  0.00  0.00    +0.000 A 
ATOM      2  C   UNL     1      -8.520 -11.190  19.337  0.00  0.00    +0.000 A 
ATOM      3  N   UNL     1      -8.578 -10.015  20.040  0.00  0.00    +0.000 N 
ATOM      4  C   UNL     1      -8.801  -8.962  19.185  0.00  0.00    +0.000 A 
ATOM      5  C   UNL     1      -8.915  -7.592  19.458  0.00  0.00    +0.000 A 
ATOM      6  C   UNL     1      -9.148  -6.725  18.380  0.00  0.00    +0.000 A 
ATOM      7 BR   UNL     1      -9.294  -4.875  18.797  0.00  0.00    +0.000 Br
ATOM      8  C   UNL     1      -9.261  -7.219  17.078  0.00  0.00    +0.000 A 
ATOM      9 BR   UNL     1      -9.581  -6.105  15.572  0.00  0.00    +0.000 Br
ATOM     10  C   UNL     1      -9.135  -8.594  16.830  0.00  0.00    +0.000 A 
ATOM     11  C   UNL     1      -8.900  -9.488  17.898  0.00  0.00    +0.000 A 
ATOM     12  H   UNL     1      -8.357 -12.123  19.861  0.00  0.00    +0.000 HD
ATOM     13  H   UNL     1      -8.468  -9.929  21.040  0.00  0.00    +0.000 HD
ATOM     14  H   UNL     1      -8.823  -7.217  20.472  0.00  0.00    +0.000 HD
ATOM     15  H   UNL     1      -9.215  -8.983  15.818  0.00  0.00    +0.000 HD
ENDROOT
BRANCH   1  21
ATOM     16  N   UNL     1      -8.948 -15.436  16.729  0.00  0.00    +0.000 N 
ATOM     17  C   UNL     1      -8.783 -14.118  16.358  0.00  0.00    +0.000 A 
ATOM     18  N   UNL     1      -8.663 -13.864  15.053  0.00  0.00    +0.000 NA
ATOM     19  C   UNL     1      -8.557 -12.571  14.702  0.00  0.00    +0.000 A 
ATOM     20  C   UNL     1      -8.551 -11.540  15.607  0.00  0.00    +0.000 A 
ATOM     21  C   UNL     1      -8.647 -11.909  16.931  0.00  0.00    +0.000 A 
ATOM     22  N   UNL     1      -8.754 -13.196  17.322  0.00  0.00    +0.000 NA
ATOM     23  H   UNL     1      -8.601 -16.049  16.007  0.00  0.00    +0.000 HD
ATOM     24  H   UNL     1      -8.626 -15.585  17.675  0.00  0.00    +0.000 HD
ATOM     25  H   UNL     1      -8.493 -12.384  13.635  0.00  0.00    +0.000 HD
ATOM     26  H   UNL     1      -8.501 -10.512  15.281  0.00  0.00    +0.000 HD
ENDBRANCH   1  21
TORSDOF 1
ENDMDL
MODEL 7
REMARK VINA RESULT:    -9.262      3.729      6.159
REMARK INTER + INTRA:          -9.782
REMARK INTER:                  -9.658
REMARK INTRA:                  -0.124
REMARK UNBOUND:                 0.022
REMARK  Name = 
REMARK  1 active torsions:
REMARK  status: ('A' for Active; 'I' for Inactive)
REMARK    1  A    between atoms: C_6  and  C_7
REMARK                            x       y       z     vdW  Elec       q    Type
REMARK                         _______ _______ _______ _____ _____    ______ ____
ROOT
ATOM      1  C   UNL     1      -9.960  -9.340  16.854  0.00  0.00    +0.000 A 
ATOM      2  C   UNL     1     -11.052  -9.124  16.032  0.00  0.00    +0.000 A 
ATOM      3  N   UNL     1     -11.394  -7.799  16.104  0.00  0.00    +0.000 N 
ATOM      4  C   UNL     1     -10.541  -7.135  16.953  0.00  0.00    +0.000 A 
ATOM      5  C   UNL     1     -10.524  -5.787  17.337  0.00  0.00    +0.000 A 
ATOM      6  C   UNL     1      -9.524  -5.370  18.228  0.00  0.00    +0.000 A 
ATOM      7 BR   UNL     1      -9.542  -3.534  18.722  0.00  0.00    +0.000 Br
ATOM      8  C   UNL     1      -8.578  -6.277  18.713  0.00  0.00    +0.000 A 
ATOM      9 BR   UNL     1      -7.194  -5.782  19.919  0.00  0.00    +0.000 Br
ATOM     10  C   UNL     1      -8.621  -7.623  18.320  0.00  0.00    +0.000 A 
ATOM     11  C   UNL     1      -9.618  -8.067  17.424  0.00  0.00    +0.000 A 
ATOM     12  H   UNL     1     -11.620  -9.793  15.399  0.00  0.00    +0.000 HD
ATOM     13  H   UNL     1     -12.165  -7.369  15.613  0.00  0.00    +0.000 HD
ATOM     14  H   UNL     1     -11.265  -5.091  16.957  0.00  0.00    +0.000 HD
ATOM     15  H   UNL     1      -7.891  -8.333  18.701  0.00  0.00    +0.000 HD
ENDROOT
BRANCH   1  21
ATOM     16  N   UNL     1      -8.468 -13.428  15.052  0.00  0.00    +0.000 N 
ATOM     17  C   UNL     1      -8.626 -12.616  16.155  0.00  0.00    +0.000 A 
ATOM     18  N   UNL     1      -8.138 -13.064  17.314  0.00  0.00    +0.000 NA
ATOM     19  C   UNL     1      -8.250 -12.240  18.369  0.00  0.00    +0.000 A 
ATOM     20  C   UNL     1      -8.843 -11.005  18.305  0.00  0.00    +0.000 A 
ATOM     21  C   UNL     1      -9.344 -10.648  17.071  0.00  0.00    +0.000 A 
ATOM     22  N   UNL     1      -9.251 -11.449  15.989  0.00  0.00    +0.000 NA
ATOM     23  H   UNL     1      -8.330 -14.385  15.338  0.00  0.00    +0.000 HD
ATOM     24  H   UNL     1      -9.180 -13.236  14.361  0.00  0.00    +0.000 HD
ATOM     25  H   UNL     1      -7.819 -12.609  19.295  0.00  0.00    +0.000 HD
ATOM     26  H   UNL     1      -8.880 -10.357  19.167  0.00  0.00    +0.000 HD
ENDBRANCH   1  21
TORSDOF 1
ENDMDL
MODEL 8
REMARK VINA RESULT:    -8.777      1.503      2.180
REMARK INTER + INTRA:          -9.268
REMARK INTER:                  -8.999
REMARK INTRA:                  -0.269
REMARK UNBOUND:                 0.022
REMARK  Name = 
REMARK  1 active torsions:
REMARK  status: ('A' for Active; 'I' for Inactive)
REMARK    1  A    between atoms: C_6  and  C_7
REMARK                            x       y       z     vdW  Elec       q    Type
REMARK                         _______ _______ _______ _____ _____    ______ ____
ROOT
ATOM      1  C   UNL     1      -8.967  -6.847  16.681  0.00  0.00    +0.000 A 
ATOM      2  C   UNL     1      -9.154  -6.428  15.375  0.00  0.00    +0.000 A 
ATOM      3  N   UNL     1      -9.191  -7.533  14.566  0.00  0.00    +0.000 N 
ATOM      4  C   UNL     1      -9.042  -8.675  15.316  0.00  0.00    +0.000 A 
ATOM      5  C   UNL     1      -9.002 -10.016  14.913  0.00  0.00    +0.000 A 
ATOM      6  C   UNL     1      -8.840 -10.996  15.905  0.00  0.00    +0.000 A 
ATOM      7 BR   UNL     1      -8.790 -12.802  15.311  0.00  0.00    +0.000 Br
ATOM      8  C   UNL     1      -8.723 -10.637  17.250  0.00  0.00    +0.000 A 
ATOM      9 BR   UNL     1      -8.507 -11.909  18.646  0.00  0.00    +0.000 Br
ATOM     10  C   UNL     1      -8.758  -9.286  17.627  0.00  0.00    +0.000 A 
ATOM     11  C   UNL     1      -8.920  -8.282  16.648  0.00  0.00    +0.000 A 
ATOM     12  H   UNL     1      -9.264  -5.442  14.944  0.00  0.00    +0.000 HD
ATOM     13  H   UNL     1      -9.304  -7.517  13.562  0.00  0.00    +0.000 HD
ATOM     14  H   UNL     1      -9.091 -10.286  13.866  0.00  0.00    +0.000 HD
ATOM     15  H   UNL     1      -8.660  -9.002  18.672  0.00  0.00    +0.000 HD
ENDROOT
BRANCH   1  21
ATOM     16  N   UNL     1      -6.304  -5.190  20.196  0.00  0.00    +0.000 N 
ATOM     17  C   UNL     1      -7.500  -5.158  19.509  0.00  0.00    +0.000 A 
ATOM     18  N   UNL     1      -8.401  -4.253  19.898  0.00  0.00    +0.000 NA
ATOM     19  C   UNL     1      -9.539  -4.197  19.186  0.00  0.00    +0.000 A 
ATOM     20  C   UNL     1      -9.807  -5.019  18.122  0.00  0.00    +0.000 A 
ATOM     21  C   UNL     1      -8.828  -5.941  17.820  0.00  0.00    +0.000 A 
ATOM     22  N   UNL     1      -7.673  -6.028  18.512  0.00  0.00    +0.000 NA
ATOM     23  H   UNL     1      -6.414  -4.778  21.109  0.00  0.00    +0.000 HD
ATOM     24  H   UNL     1      -5.881  -6.105  20.134  0.00  0.00    +0.000 HD
ATOM     25  H   UNL     1     -10.245  -3.433  19.499  0.00  0.00    +0.000 HD
ATOM     26  H   UNL     1     -10.719  -4.917  17.553  0.00  0.00    +0.000 HD
ENDBRANCH   1  21
TORSDOF 1
ENDMDL
MODEL 9
REMARK VINA RESULT:    -8.546      2.814      4.388
REMARK INTER + INTRA:          -9.024
REMARK INTER:                  -8.722
REMARK INTRA:                  -0.302
REMARK UNBOUND:                 0.022
REMARK  Name = 
REMARK  1 active torsions:
REMARK  status: ('A' for Active; 'I' for Inactive)
REMARK    1  A    between atoms: C_6  and  C_7
REMARK                            x       y       z     vdW  Elec       q    Type
REMARK                         _______ _______ _______ _____ _____    ______ ____
ROOT
ATOM      1  C   UNL     1     -10.008  -6.251  17.041  0.00  0.00    +0.000 A 
ATOM      2  C   UNL     1     -10.039  -5.822  18.357  0.00  0.00    +0.000 A 
ATOM      3  N   UNL     1      -9.729  -6.883  19.166  0.00  0.00    +0.000 N 
ATOM      4  C   UNL     1      -9.483  -8.003  18.407  0.00  0.00    +0.000 A 
ATOM      5  C   UNL     1      -9.149  -9.304  18.806  0.00  0.00    +0.000 A 
ATOM      6  C   UNL     1      -8.948 -10.267  17.805  0.00  0.00    +0.000 A 
ATOM      7 BR   UNL     1      -8.498 -12.018  18.393  0.00  0.00    +0.000 Br
ATOM      8  C   UNL     1      -9.078  -9.930  16.455  0.00  0.00    +0.000 A 
ATOM      9 BR   UNL     1      -8.816 -11.181  15.047  0.00  0.00    +0.000 Br
ATOM     10  C   UNL     1      -9.422  -8.622  16.082  0.00  0.00    +0.000 A 
ATOM     11  C   UNL     1      -9.629  -7.636  17.070  0.00  0.00    +0.000 A 
ATOM     12  H   UNL     1     -10.255  -4.857  18.795  0.00  0.00    +0.000 HD
ATOM     13  H   UNL     1      -9.691  -6.855  20.175  0.00  0.00    +0.000 HD
ATOM     14  H   UNL     1      -9.052  -9.556  19.857  0.00  0.00    +0.000 HD
ATOM     15  H   UNL     1      -9.532  -8.358  15.033  0.00  0.00    +0.000 HD
ENDROOT
BRANCH   1  21
ATOM     16  N   UNL     1      -8.534  -3.853  13.264  0.00  0.00    +0.000 N 
ATOM     17  C   UNL     1      -9.580  -4.258  14.067  0.00  0.00    +0.000 A 
ATOM     18  N   UNL     1     -10.809  -3.901  13.689  0.00  0.00    +0.000 NA
ATOM     19  C   UNL     1     -11.823  -4.348  14.450  0.00  0.00    +0.000 A 
ATOM     20  C   UNL     1     -11.644  -5.116  15.572  0.00  0.00    +0.000 A 
ATOM     21  C   UNL     1     -10.335  -5.403  15.896  0.00  0.00    +0.000 A 
ATOM     22  N   UNL     1      -9.292  -4.972  15.157  0.00  0.00    +0.000 NA
ATOM     23  H   UNL     1      -8.806  -3.055  12.711  0.00  0.00    +0.000 HD
ATOM     24  H   UNL     1      -7.677  -3.795  13.795  0.00  0.00    +0.000 HD
ATOM     25  H   UNL     1     -12.816  -4.073  14.108  0.00  0.00    +0.000 HD
ATOM     26  H   UNL     1     -12.487  -5.486  16.136  0.00  0.00    +0.000 HD
ENDBRANCH   1  21
TORSDOF 1
ENDMDL
