MODEL 1
REMARK VINA RESULT:    -9.215      0.000      0.000
REMARK INTER + INTRA:         -11.998
REMARK INTER:                 -11.370
REMARK INTRA:                  -0.629
REMARK UNBOUND:                -0.629
REMARK  Name = 
REMARK  6 active torsions:
REMARK  status: ('A' for Active; 'I' for Inactive)
REMARK    1  A    between atoms: C_2  and  C_3
REMARK    2  A    between atoms: C_6  and  C_7
REMARK    3  A    between atoms: C_16  and  O_17
REMARK    4  A    between atoms: C_18  and  O_19
REMARK    5  A    between atoms: C_25  and  O_26
REMARK    6  A    between atoms: C_27  and  O_28
REMARK                            x       y       z     vdW  Elec       q    Type
REMARK                         _______ _______ _______ _____ _____    ______ ____
ROOT
ATOM      1  O   UNL     1     -11.042  -5.859  18.778  0.00  0.00    +0.000 OA
ATOM      2  C   UNL     1     -10.829  -5.631  17.583  0.00  0.00    +0.000 C 
ATOM      3  N   UNL     1     -10.947  -4.319  17.065  0.00  0.00    +0.000 N 
ATOM      4  C   UNL     1     -10.677  -3.936  15.735  0.00  0.00    +0.000 A 
ATOM      5  C   UNL     1      -9.980  -4.464  14.641  0.00  0.00    +0.000 A 
ATOM      6  C   UNL     1     -10.661  -4.347  13.433  0.00  0.00    +0.000 A 
ATOM      7  C   UNL     1     -11.839  -3.613  13.340  0.00  0.00    +0.000 A 
ATOM      8  C   UNL     1     -12.197  -2.720  14.345  0.00  0.00    +0.000 A 
ATOM      9  C   UNL     1     -11.501  -2.841  15.558  0.00  0.00    +0.000 A 
ATOM     10  C   UNL     1     -11.228  -2.148  16.738  0.00  0.00    +0.000 A 
ATOM     11  C   UNL     1     -10.883  -0.833  17.132  0.00  0.00    +0.000 A 
ATOM     12  C   UNL     1     -10.865  -0.533  18.497  0.00  0.00    +0.000 A 
ATOM     13  C   UNL     1     -11.381  -1.454  19.399  0.00  0.00    +0.000 A 
ATOM     14  C   UNL     1     -11.640  -2.778  19.023  0.00  0.00    +0.000 A 
ATOM     15  C   UNL     1     -11.308  -3.143  17.718  0.00  0.00    +0.000 A 
ATOM     16  H   UNL     1      -9.107  -5.086  14.761  0.00  0.00    +0.000 HD
ATOM     17  H   UNL     1     -13.059  -2.072  14.247  0.00  0.00    +0.000 HD
ATOM     18  H   UNL     1     -10.532  -0.118  16.395  0.00  0.00    +0.000 HD
ATOM     19  H   UNL     1     -10.495   0.432  18.824  0.00  0.00    +0.000 HD
ENDROOT
BRANCH   2  20
ATOM     20  C   UNL     1     -10.317  -6.755  16.771  0.00  0.00    +0.000 A 
ATOM     21  C   UNL     1      -8.943  -6.984  16.644  0.00  0.00    +0.000 A 
ATOM     22  C   UNL     1      -8.503  -8.303  16.500  0.00  0.00    +0.000 A 
ATOM     23  C   UNL     1      -9.429  -9.356  16.462  0.00  0.00    +0.000 A 
ATOM     24  C   UNL     1     -10.806  -9.059  16.349  0.00  0.00    +0.000 A 
ATOM     25  C   UNL     1     -11.253  -7.755  16.499  0.00  0.00    +0.000 A 
ATOM     26  H   UNL     1      -8.221  -6.202  16.864  0.00  0.00    +0.000 HD
ATOM     27  H   UNL     1      -7.437  -8.514  16.616  0.00  0.00    +0.000 HD
ATOM     28  H   UNL     1     -11.545  -9.863  16.286  0.00  0.00    +0.000 HD
ATOM     29  H   UNL     1     -12.313  -7.534  16.556  0.00  0.00    +0.000 HD
BRANCH  23  30
ATOM     30  C   UNL     1      -9.019 -10.775  16.781  0.00  0.00    +0.000 C 
ATOM     31  F   UNL     1      -8.186 -10.861  17.856  0.00  0.00    +0.000 F 
ATOM     32  F   UNL     1     -10.096 -11.546  17.115  0.00  0.00    +0.000 F 
ATOM     33  F   UNL     1      -8.402 -11.408  15.751  0.00  0.00    +0.000 F 
ENDBRANCH  23  30
ENDBRANCH   2  20
BRANCH   6  34
ATOM     34  O   UNL     1     -10.251  -5.035  12.324  0.00  0.00    +0.000 OA
ATOM     35  H   UNL     1      -9.392  -4.670  12.043  0.00  0.00    +0.000 HD
ENDBRANCH   6  34
BRANCH   7  36
ATOM     36  O   UNL     1     -12.643  -3.770  12.247  0.00  0.00    +0.000 OA
ATOM     37  H   UNL     1     -12.979  -2.870  12.057  0.00  0.00    +0.000 HD
ENDBRANCH   7  36
BRANCH  13  38
ATOM     38  O   UNL     1     -11.642  -1.105  20.696  0.00  0.00    +0.000 OA
ATOM     39  H   UNL     1     -11.270  -0.220  20.846  0.00  0.00    +0.000 HD
ENDBRANCH  13  38
BRANCH  14  40
ATOM     40  O   UNL     1     -12.236  -3.632  19.900  0.00  0.00    +0.000 OA
ATOM     41  H   UNL     1     -12.395  -3.103  20.706  0.00  0.00    +0.000 HD
ENDBRANCH  14  40
TORSDOF 6
ENDMDL
MODEL 2
REMARK VINA RESULT:    -8.686      1.476      4.572
REMARK INTER + INTRA:         -11.346
REMARK INTER:                 -10.645
REMARK INTRA:                  -0.701
REMARK UNBOUND:                -0.629
REMARK  Name = 
REMARK  6 active torsions:
REMARK  status: ('A' for Active; 'I' for Inactive)
REMARK    1  A    between atoms: C_2  and  C_3
REMARK    2  A    between atoms: C_6  and  C_7
REMARK    3  A    between atoms: C_16  and  O_17
REMARK    4  A    between atoms: C_18  and  O_19
REMARK    5  A    between atoms: C_25  and  O_26
REMARK    6  A    between atoms: C_27  and  O_28
REMARK                            x       y       z     vdW  Elec       q    Type
REMARK                         _______ _______ _______ _____ _____    ______ ____
ROOT
ATOM      1  O   UNL     1      -9.184  -5.413  14.250  0.00  0.00    +0.000 OA
ATOM      2  C   UNL     1      -9.855  -5.111  15.241  0.00  0.00    +0.000 C 
ATOM      3  N   UNL     1     -10.525  -3.866  15.308  0.00  0.00    +0.000 N 
ATOM      4  C   UNL     1     -11.359  -3.440  16.362  0.00  0.00    +0.000 A 
ATOM      5  C   UNL     1     -12.053  -4.038  17.422  0.00  0.00    +0.000 A 
ATOM      6  C   UNL     1     -11.939  -3.351  18.627  0.00  0.00    +0.000 A 
ATOM      7  C   UNL     1     -11.329  -2.103  18.687  0.00  0.00    +0.000 A 
ATOM      8  C   UNL     1     -11.110  -1.365  17.527  0.00  0.00    +0.000 A 
ATOM      9  C   UNL     1     -11.234  -2.064  16.316  0.00  0.00    +0.000 A 
ATOM     10  C   UNL     1     -11.389  -1.861  14.944  0.00  0.00    +0.000 A 
ATOM     11  C   UNL     1     -12.145  -1.033  14.081  0.00  0.00    +0.000 A 
ATOM     12  C   UNL     1     -11.850  -1.054  12.715  0.00  0.00    +0.000 A 
ATOM     13  C   UNL     1     -10.708  -1.712  12.280  0.00  0.00    +0.000 A 
ATOM     14  C   UNL     1     -10.013  -2.597  13.114  0.00  0.00    +0.000 A 
ATOM     15  C   UNL     1     -10.549  -2.827  14.381  0.00  0.00    +0.000 A 
ATOM     16  H   UNL     1     -12.453  -5.038  17.356  0.00  0.00    +0.000 HD
ATOM     17  H   UNL     1     -10.725  -0.354  17.561  0.00  0.00    +0.000 HD
ATOM     18  H   UNL     1     -13.003  -0.488  14.462  0.00  0.00    +0.000 HD
ATOM     19  H   UNL     1     -12.489  -0.515  12.025  0.00  0.00    +0.000 HD
ENDROOT
BRANCH   2  20
ATOM     20  C   UNL     1     -10.032  -6.157  16.271  0.00  0.00    +0.000 A 
ATOM     21  C   UNL     1     -11.056  -7.104  16.165  0.00  0.00    +0.000 A 
ATOM     22  C   UNL     1     -10.826  -8.385  16.676  0.00  0.00    +0.000 A 
ATOM     23  C   UNL     1      -9.605  -8.690  17.295  0.00  0.00    +0.000 A 
ATOM     24  C   UNL     1      -8.704  -7.643  17.594  0.00  0.00    +0.000 A 
ATOM     25  C   UNL     1      -8.919  -6.371  17.085  0.00  0.00    +0.000 A 
ATOM     26  H   UNL     1     -11.916  -6.931  15.524  0.00  0.00    +0.000 HD
ATOM     27  H   UNL     1     -11.522  -9.185  16.412  0.00  0.00    +0.000 HD
ATOM     28  H   UNL     1      -7.760  -7.852  18.105  0.00  0.00    +0.000 HD
ATOM     29  H   UNL     1      -8.165  -5.598  17.187  0.00  0.00    +0.000 HD
BRANCH  23  30
ATOM     30  C   UNL     1      -9.127 -10.117  17.429  0.00  0.00    +0.000 C 
ATOM     31  F   UNL     1     -10.141 -11.026  17.389  0.00  0.00    +0.000 F 
ATOM     32  F   UNL     1      -8.305 -10.471  16.398  0.00  0.00    +0.000 F 
ATOM     33  F   UNL     1      -8.431 -10.353  18.570  0.00  0.00    +0.000 F 
ENDBRANCH  23  30
ENDBRANCH   2  20
BRANCH   6  34
ATOM     34  O   UNL     1     -12.327  -3.927  19.805  0.00  0.00    +0.000 OA
ATOM     35  H   UNL     1     -12.957  -3.324  20.242  0.00  0.00    +0.000 HD
ENDBRANCH   6  34
BRANCH   7  36
ATOM     36  O   UNL     1     -10.950  -1.598  19.898  0.00  0.00    +0.000 OA
ATOM     37  H   UNL     1     -11.390  -2.177  20.555  0.00  0.00    +0.000 HD
ENDBRANCH   7  36
BRANCH  13  38
ATOM     38  O   UNL     1     -10.226  -1.532  11.012  0.00  0.00    +0.000 OA
ATOM     39  H   UNL     1     -10.127  -2.409  10.605  0.00  0.00    +0.000 HD
ENDBRANCH  13  38
BRANCH  14  40
ATOM     40  O   UNL     1      -8.843  -3.153  12.694  0.00  0.00    +0.000 OA
ATOM     41  H   UNL     1      -8.700  -3.922  13.278  0.00  0.00    +0.000 HD
ENDBRANCH  14  40
TORSDOF 6
ENDMDL
MODEL 3
REMARK VINA RESULT:    -8.661      2.058      4.947
REMARK INTER + INTRA:         -11.314
REMARK INTER:                 -10.521
REMARK INTRA:                  -0.794
REMARK UNBOUND:                -0.629
REMARK  Name = 
REMARK  6 active torsions:
REMARK  status: ('A' for Active; 'I' for Inactive)
REMARK    1  A    between atoms: C_2  and  C_3
REMARK    2  A    between atoms: C_6  and  C_7
REMARK    3  A    between atoms: C_16  and  O_17
REMARK    4  A    between atoms: C_18  and  O_19
REMARK    5  A    between atoms: C_25  and  O_26
REMARK    6  A    between atoms: C_27  and  O_28
REMARK                            x       y       z     vdW  Elec       q    Type
REMARK                         _______ _______ _______ _____ _____    ______ ____
ROOT
ATOM      1  O   UNL     1      -9.500  -6.641  15.585  0.00  0.00    +0.000 OA
ATOM      2  C   UNL     1      -9.768  -5.848  16.494  0.00  0.00    +0.000 C 
ATOM      3  N   UNL     1     -10.280  -4.561  16.202  0.00  0.00    +0.000 N 
ATOM      4  C   UNL     1     -10.670  -3.599  17.156  0.00  0.00    +0.000 A 
ATOM      5  C   UNL     1     -11.002  -3.585  18.517  0.00  0.00    +0.000 A 
ATOM      6  C   UNL     1     -10.432  -2.530  19.223  0.00  0.00    +0.000 A 
ATOM      7  C   UNL     1      -9.748  -1.513  18.567  0.00  0.00    +0.000 A 
ATOM      8  C   UNL     1      -9.884  -1.340  17.193  0.00  0.00    +0.000 A 
ATOM      9  C   UNL     1     -10.466  -2.405  16.489  0.00  0.00    +0.000 A 
ATOM     10  C   UNL     1     -11.065  -2.715  15.267  0.00  0.00    +0.000 A 
ATOM     11  C   UNL     1     -12.006  -2.141  14.380  0.00  0.00    +0.000 A 
ATOM     12  C   UNL     1     -12.198  -2.744  13.134  0.00  0.00    +0.000 A 
ATOM     13  C   UNL     1     -11.325  -3.744  12.726  0.00  0.00    +0.000 A 
ATOM     14  C   UNL     1     -10.455  -4.368  13.629  0.00  0.00    +0.000 A 
ATOM     15  C   UNL     1     -10.542  -3.976  14.965  0.00  0.00    +0.000 A 
ATOM     16  H   UNL     1     -11.474  -4.425  19.002  0.00  0.00    +0.000 HD
ATOM     17  H   UNL     1      -9.437  -0.498  16.680  0.00  0.00    +0.000 HD
ATOM     18  H   UNL     1     -12.639  -1.324  14.712  0.00  0.00    +0.000 HD
ATOM     19  H   UNL     1     -12.992  -2.389  12.489  0.00  0.00    +0.000 HD
ENDROOT
BRANCH   2  20
ATOM     20  C   UNL     1      -9.660  -6.357  17.877  0.00  0.00    +0.000 A 
ATOM     21  C   UNL     1     -10.648  -7.187  18.417  0.00  0.00    +0.000 A 
ATOM     22  C   UNL     1     -10.262  -8.154  19.350  0.00  0.00    +0.000 A 
ATOM     23  C   UNL     1      -8.919  -8.261  19.740  0.00  0.00    +0.000 A 
ATOM     24  C   UNL     1      -8.007  -7.253  19.357  0.00  0.00    +0.000 A 
ATOM     25  C   UNL     1      -8.378  -6.294  18.426  0.00  0.00    +0.000 A 
ATOM     26  H   UNL     1     -11.641  -7.235  17.979  0.00  0.00    +0.000 HD
ATOM     27  H   UNL     1     -10.974  -8.940  19.614  0.00  0.00    +0.000 HD
ATOM     28  H   UNL     1      -6.962  -7.298  19.676  0.00  0.00    +0.000 HD
ATOM     29  H   UNL     1      -7.647  -5.604  18.018  0.00  0.00    +0.000 HD
BRANCH  23  30
ATOM     30  C   UNL     1      -8.376  -9.535  20.347  0.00  0.00    +0.000 C 
ATOM     31  F   UNL     1      -8.659 -10.642  19.605  0.00  0.00    +0.000 F 
ATOM     32  F   UNL     1      -7.013  -9.512  20.427  0.00  0.00    +0.000 F 
ATOM     33  F   UNL     1      -8.828  -9.776  21.604  0.00  0.00    +0.000 F 
ENDBRANCH  23  30
ENDBRANCH   2  20
BRANCH   6  34
ATOM     34  O   UNL     1     -10.437  -2.515  20.591  0.00  0.00    +0.000 OA
ATOM     35  H   UNL     1     -11.364  -2.456  20.889  0.00  0.00    +0.000 HD
ENDBRANCH   6  34
BRANCH   7  36
ATOM     36  O   UNL     1      -8.942  -0.676  19.284  0.00  0.00    +0.000 OA
ATOM     37  H   UNL     1      -9.259   0.224  19.061  0.00  0.00    +0.000 HD
ENDBRANCH   7  36
BRANCH  13  38
ATOM     38  O   UNL     1     -11.294  -4.169  11.426  0.00  0.00    +0.000 OA
ATOM     39  H   UNL     1     -11.921  -4.906  11.339  0.00  0.00    +0.000 HD
ENDBRANCH  13  38
BRANCH  14  40
ATOM     40  O   UNL     1      -9.544  -5.275  13.182  0.00  0.00    +0.000 OA
ATOM     41  H   UNL     1      -9.457  -5.102  12.224  0.00  0.00    +0.000 HD
ENDBRANCH  14  40
TORSDOF 6
ENDMDL
MODEL 4
REMARK VINA RESULT:    -8.513      5.400      8.031
REMARK INTER + INTRA:         -11.132
REMARK INTER:                 -10.491
REMARK INTRA:                  -0.641
REMARK UNBOUND:                -0.629
REMARK  Name = 
REMARK  6 active torsions:
REMARK  status: ('A' for Active; 'I' for Inactive)
REMARK    1  A    between atoms: C_2  and  C_3
REMARK    2  A    between atoms: C_6  and  C_7
REMARK    3  A    between atoms: C_16  and  O_17
REMARK    4  A    between atoms: C_18  and  O_19
REMARK    5  A    between atoms: C_25  and  O_26
REMARK    6  A    between atoms: C_27  and  O_28
REMARK                            x       y       z     vdW  Elec       q    Type
REMARK                         _______ _______ _______ _____ _____    ______ ____
ROOT
ATOM      1  O   UNL     1      -7.161  -5.441  20.659  0.00  0.00    +0.000 OA
ATOM      2  C   UNL     1      -7.725  -4.349  20.777  0.00  0.00    +0.000 C 
ATOM      3  N   UNL     1      -8.687  -3.927  19.828  0.00  0.00    +0.000 N 
ATOM      4  C   UNL     1      -9.429  -2.729  19.892  0.00  0.00    +0.000 A 
ATOM      5  C   UNL     1      -9.760  -1.783  20.870  0.00  0.00    +0.000 A 
ATOM      6  C   UNL     1      -9.648  -0.465  20.437  0.00  0.00    +0.000 A 
ATOM      7  C   UNL     1      -9.397  -0.166  19.102  0.00  0.00    +0.000 A 
ATOM      8  C   UNL     1      -9.569  -1.133  18.116  0.00  0.00    +0.000 A 
ATOM      9  C   UNL     1      -9.688  -2.458  18.562  0.00  0.00    +0.000 A 
ATOM     10  C   UNL     1     -10.105  -3.722  18.142  0.00  0.00    +0.000 A 
ATOM     11  C   UNL     1     -11.182  -4.290  17.421  0.00  0.00    +0.000 A 
ATOM     12  C   UNL     1     -11.110  -5.643  17.078  0.00  0.00    +0.000 A 
ATOM     13  C   UNL     1      -9.915  -6.325  17.264  0.00  0.00    +0.000 A 
ATOM     14  C   UNL     1      -8.886  -5.794  18.050  0.00  0.00    +0.000 A 
ATOM     15  C   UNL     1      -9.134  -4.574  18.679  0.00  0.00    +0.000 A 
ATOM     16  H   UNL     1      -9.882  -2.048  21.909  0.00  0.00    +0.000 HD
ATOM     17  H   UNL     1      -9.471  -0.894  17.065  0.00  0.00    +0.000 HD
ATOM     18  H   UNL     1     -12.084  -3.714  17.245  0.00  0.00    +0.000 HD
ATOM     19  H   UNL     1     -11.971  -6.123  16.627  0.00  0.00    +0.000 HD
ENDROOT
BRANCH   2  20
ATOM     20  C   UNL     1      -7.450  -3.586  22.013  0.00  0.00    +0.000 A 
ATOM     21  C   UNL     1      -6.769  -2.365  21.967  0.00  0.00    +0.000 A 
ATOM     22  C   UNL     1      -7.095  -1.391  22.916  0.00  0.00    +0.000 A 
ATOM     23  C   UNL     1      -8.066  -1.655  23.893  0.00  0.00    +0.000 A 
ATOM     24  C   UNL     1      -8.546  -2.974  24.050  0.00  0.00    +0.000 A 
ATOM     25  C   UNL     1      -8.234  -3.945  23.110  0.00  0.00    +0.000 A 
ATOM     26  H   UNL     1      -6.166  -2.090  21.106  0.00  0.00    +0.000 HD
ATOM     27  H   UNL     1      -6.734  -0.371  22.762  0.00  0.00    +0.000 HD
ATOM     28  H   UNL     1      -9.278  -3.211  24.826  0.00  0.00    +0.000 HD
ATOM     29  H   UNL     1      -8.709  -4.920  23.141  0.00  0.00    +0.000 HD
BRANCH  23  30
ATOM     30  C   UNL     1      -8.781  -0.535  24.613  0.00  0.00    +0.000 C 
ATOM     31  F   UNL     1      -8.233   0.690  24.373  0.00  0.00    +0.000 F 
ATOM     32  F   UNL     1     -10.078  -0.420  24.201  0.00  0.00    +0.000 F 
ATOM     33  F   UNL     1      -8.822  -0.691  25.961  0.00  0.00    +0.000 F 
ENDBRANCH  23  30
ENDBRANCH   2  20
BRANCH   6  34
ATOM     34  O   UNL     1      -9.678   0.573  21.327  0.00  0.00    +0.000 OA
ATOM     35  H   UNL     1     -10.021   1.359  20.863  0.00  0.00    +0.000 HD
ENDBRANCH   6  34
BRANCH   7  36
ATOM     36  O   UNL     1      -8.983   1.090  18.763  0.00  0.00    +0.000 OA
ATOM     37  H   UNL     1      -9.744   1.667  18.979  0.00  0.00    +0.000 HD
ENDBRANCH   7  36
BRANCH  13  38
ATOM     38  O   UNL     1      -9.705  -7.553  16.697  0.00  0.00    +0.000 OA
ATOM     39  H   UNL     1      -9.526  -8.184  17.414  0.00  0.00    +0.000 HD
ENDBRANCH  13  38
BRANCH  14  40
ATOM     40  O   UNL     1      -7.690  -6.439  18.136  0.00  0.00    +0.000 OA
ATOM     41  H   UNL     1      -7.303  -6.153  18.986  0.00  0.00    +0.000 HD
ENDBRANCH  14  40
TORSDOF 6
ENDMDL
MODEL 5
REMARK VINA RESULT:    -8.450      5.286      7.395
REMARK INTER + INTRA:         -11.055
REMARK INTER:                 -10.293
REMARK INTRA:                  -0.762
REMARK UNBOUND:                -0.629
REMARK  Name = 
REMARK  6 active torsions:
REMARK  status: ('A' for Active; 'I' for Inactive)
REMARK    1  A    between atoms: C_2  and  C_3
REMARK    2  A    between atoms: C_6  and  C_7
REMARK    3  A    between atoms: C_16  and  O_17
REMARK    4  A    between atoms: C_18  and  O_19
REMARK    5  A    between atoms: C_25  and  O_26
REMARK    6  A    between atoms: C_27  and  O_28
REMARK                            x       y       z     vdW  Elec       q    Type
REMARK                         _______ _______ _______ _____ _____    ______ ____
ROOT
ATOM      1  O   UNL     1     -10.313  -1.013  20.731  0.00  0.00    +0.000 OA
ATOM      2  C   UNL     1      -9.723  -2.019  20.325  0.00  0.00    +0.000 C 
ATOM      3  N   UNL     1      -8.866  -2.750  21.182  0.00  0.00    +0.000 N 
ATOM      4  C   UNL     1      -8.187  -3.938  20.842  0.00  0.00    +0.000 A 
ATOM      5  C   UNL     1      -8.289  -4.928  19.856  0.00  0.00    +0.000 A 
ATOM      6  C   UNL     1      -7.066  -5.308  19.312  0.00  0.00    +0.000 A 
ATOM      7  C   UNL     1      -5.868  -4.848  19.848  0.00  0.00    +0.000 A 
ATOM      8  C   UNL     1      -5.834  -4.272  21.114  0.00  0.00    +0.000 A 
ATOM      9  C   UNL     1      -7.072  -3.898  21.658  0.00  0.00    +0.000 A 
ATOM     10  C   UNL     1      -7.680  -3.556  22.867  0.00  0.00    +0.000 A 
ATOM     11  C   UNL     1      -7.675  -3.999  24.211  0.00  0.00    +0.000 A 
ATOM     12  C   UNL     1      -8.339  -3.225  25.167  0.00  0.00    +0.000 A 
ATOM     13  C   UNL     1      -8.793  -1.961  24.817  0.00  0.00    +0.000 A 
ATOM     14  C   UNL     1      -8.876  -1.559  23.478  0.00  0.00    +0.000 A 
ATOM     15  C   UNL     1      -8.530  -2.504  22.511  0.00  0.00    +0.000 A 
ATOM     16  H   UNL     1      -9.235  -5.208  19.419  0.00  0.00    +0.000 HD
ATOM     17  H   UNL     1      -4.900  -3.995  21.586  0.00  0.00    +0.000 HD
ATOM     18  H   UNL     1      -7.264  -4.971  24.463  0.00  0.00    +0.000 HD
ATOM     19  H   UNL     1      -8.443  -3.604  26.177  0.00  0.00    +0.000 HD
ENDROOT
BRANCH   2  20
ATOM     20  C   UNL     1     -10.064  -2.488  18.965  0.00  0.00    +0.000 A 
ATOM     21  C   UNL     1     -11.213  -3.251  18.734  0.00  0.00    +0.000 A 
ATOM     22  C   UNL     1     -11.866  -3.107  17.506  0.00  0.00    +0.000 A 
ATOM     23  C   UNL     1     -11.356  -2.234  16.533  0.00  0.00    +0.000 A 
ATOM     24  C   UNL     1     -10.071  -1.675  16.714  0.00  0.00    +0.000 A 
ATOM     25  C   UNL     1      -9.420  -1.805  17.931  0.00  0.00    +0.000 A 
ATOM     26  H   UNL     1     -11.712  -3.773  19.546  0.00  0.00    +0.000 HD
ATOM     27  H   UNL     1     -12.869  -3.526  17.396  0.00  0.00    +0.000 HD
ATOM     28  H   UNL     1      -9.639  -1.017  15.955  0.00  0.00    +0.000 HD
ATOM     29  H   UNL     1      -8.501  -1.263  18.130  0.00  0.00    +0.000 HD
BRANCH  23  30
ATOM     30  C   UNL     1     -12.232  -1.691  15.428  0.00  0.00    +0.000 C 
ATOM     31  F   UNL     1     -13.503  -1.419  15.839  0.00  0.00    +0.000 F 
ATOM     32  F   UNL     1     -11.762  -0.501  14.953  0.00  0.00    +0.000 F 
ATOM     33  F   UNL     1     -12.333  -2.517  14.356  0.00  0.00    +0.000 F 
ENDBRANCH  23  30
ENDBRANCH   2  20
BRANCH   6  34
ATOM     34  O   UNL     1      -7.007  -6.059  18.171  0.00  0.00    +0.000 OA
ATOM     35  H   UNL     1      -7.143  -5.465  17.411  0.00  0.00    +0.000 HD
ENDBRANCH   6  34
BRANCH   7  36
ATOM     36  O   UNL     1      -4.718  -4.972  19.123  0.00  0.00    +0.000 OA
ATOM     37  H   UNL     1      -4.025  -4.572  19.688  0.00  0.00    +0.000 HD
ENDBRANCH   7  36
BRANCH  13  38
ATOM     38  O   UNL     1      -9.194  -1.064  25.769  0.00  0.00    +0.000 OA
ATOM     39  H   UNL     1      -8.434  -0.496  25.981  0.00  0.00    +0.000 HD
ENDBRANCH  13  38
BRANCH  14  40
ATOM     40  O   UNL     1      -9.232  -0.282  23.169  0.00  0.00    +0.000 OA
ATOM     41  H   UNL     1     -10.209  -0.288  23.142  0.00  0.00    +0.000 HD
ENDBRANCH  14  40
TORSDOF 6
ENDMDL
MODEL 6
REMARK VINA RESULT:    -8.248      2.436      4.254
REMARK INTER + INTRA:         -10.806
REMARK INTER:                 -10.327
REMARK INTRA:                  -0.478
REMARK UNBOUND:                -0.629
REMARK  Name = 
REMARK  6 active torsions:
REMARK  status: ('A' for Active; 'I' for Inactive)
REMARK    1  A    between atoms: C_2  and  C_3
REMARK    2  A    between atoms: C_6  and  C_7
REMARK    3  A    between atoms: C_16  and  O_17
REMARK    4  A    between atoms: C_18  and  O_19
REMARK    5  A    between atoms: C_25  and  O_26
REMARK    6  A    between atoms: C_27  and  O_28
REMARK                            x       y       z     vdW  Elec       q    Type
REMARK                         _______ _______ _______ _____ _____    ______ ____
ROOT
ATOM      1  O   UNL     1     -10.890  -4.003  15.624  0.00  0.00    +0.000 OA
ATOM      2  C   UNL     1     -10.341  -4.729  16.459  0.00  0.00    +0.000 C 
ATOM      3  N   UNL     1      -9.978  -4.221  17.730  0.00  0.00    +0.000 N 
ATOM      4  C   UNL     1      -9.398  -4.969  18.775  0.00  0.00    +0.000 A 
ATOM      5  C   UNL     1      -9.267  -6.322  19.113  0.00  0.00    +0.000 A 
ATOM      6  C   UNL     1      -7.997  -6.667  19.565  0.00  0.00    +0.000 A 
ATOM      7  C   UNL     1      -7.032  -5.696  19.807  0.00  0.00    +0.000 A 
ATOM      8  C   UNL     1      -7.389  -4.356  19.919  0.00  0.00    +0.000 A 
ATOM      9  C   UNL     1      -8.673  -4.017  19.468  0.00  0.00    +0.000 A 
ATOM     10  C   UNL     1      -9.631  -3.005  19.546  0.00  0.00    +0.000 A 
ATOM     11  C   UNL     1     -10.190  -2.157  20.532  0.00  0.00    +0.000 A 
ATOM     12  C   UNL     1     -11.044  -1.132  20.118  0.00  0.00    +0.000 A 
ATOM     13  C   UNL     1     -11.150  -0.845  18.763  0.00  0.00    +0.000 A 
ATOM     14  C   UNL     1     -10.670  -1.730  17.790  0.00  0.00    +0.000 A 
ATOM     15  C   UNL     1     -10.129  -2.935  18.241  0.00  0.00    +0.000 A 
ATOM     16  H   UNL     1     -10.012  -7.056  18.847  0.00  0.00    +0.000 HD
ATOM     17  H   UNL     1      -6.668  -3.599  20.200  0.00  0.00    +0.000 HD
ATOM     18  H   UNL     1     -10.045  -2.377  21.585  0.00  0.00    +0.000 HD
ATOM     19  H   UNL     1     -11.570  -0.545  20.863  0.00  0.00    +0.000 HD
ENDROOT
BRANCH   2  20
ATOM     20  C   UNL     1     -10.215  -6.161  16.118  0.00  0.00    +0.000 A 
ATOM     21  C   UNL     1      -8.974  -6.715  15.784  0.00  0.00    +0.000 A 
ATOM     22  C   UNL     1      -8.732  -8.048  16.126  0.00  0.00    +0.000 A 
ATOM     23  C   UNL     1      -9.725  -8.805  16.765  0.00  0.00    +0.000 A 
ATOM     24  C   UNL     1     -11.035  -8.283  16.861  0.00  0.00    +0.000 A 
ATOM     25  C   UNL     1     -11.283  -6.959  16.532  0.00  0.00    +0.000 A 
ATOM     26  H   UNL     1      -8.146  -6.086  15.470  0.00  0.00    +0.000 HD
ATOM     27  H   UNL     1      -7.707  -8.425  16.069  0.00  0.00    +0.000 HD
ATOM     28  H   UNL     1     -11.834  -8.867  17.326  0.00  0.00    +0.000 HD
ATOM     29  H   UNL     1     -12.249  -6.508  16.735  0.00  0.00    +0.000 HD
BRANCH  23  30
ATOM     30  C   UNL     1      -9.381 -10.043  17.560  0.00  0.00    +0.000 C 
ATOM     31  F   UNL     1     -10.189 -11.103  17.274  0.00  0.00    +0.000 F 
ATOM     32  F   UNL     1      -8.120 -10.485  17.280  0.00  0.00    +0.000 F 
ATOM     33  F   UNL     1      -9.432  -9.860  18.904  0.00  0.00    +0.000 F 
ENDBRANCH  23  30
ENDBRANCH   2  20
BRANCH   6  34
ATOM     34  O   UNL     1      -7.625  -7.978  19.686  0.00  0.00    +0.000 OA
ATOM     35  H   UNL     1      -7.614  -8.372  18.793  0.00  0.00    +0.000 HD
ENDBRANCH   6  34
BRANCH   7  36
ATOM     36  O   UNL     1      -5.724  -6.068  19.940  0.00  0.00    +0.000 OA
ATOM     37  H   UNL     1      -5.260  -5.247  20.202  0.00  0.00    +0.000 HD
ENDBRANCH   7  36
BRANCH  13  38
ATOM     38  O   UNL     1     -11.743   0.308  18.328  0.00  0.00    +0.000 OA
ATOM     39  H   UNL     1     -11.242   0.629  17.560  0.00  0.00    +0.000 HD
ENDBRANCH  13  38
BRANCH  14  40
ATOM     40  O   UNL     1     -10.701  -1.379  16.475  0.00  0.00    +0.000 OA
ATOM     41  H   UNL     1     -10.473  -0.430  16.457  0.00  0.00    +0.000 HD
ENDBRANCH  14  40
TORSDOF 6
ENDMDL
MODEL 7
REMARK VINA RESULT:    -8.153      6.892     10.178
REMARK INTER + INTRA:         -10.688
REMARK INTER:                  -9.941
REMARK INTRA:                  -0.747
REMARK UNBOUND:                -0.629
REMARK  Name = 
REMARK  6 active torsions:
REMARK  status: ('A' for Active; 'I' for Inactive)
REMARK    1  A    between atoms: C_2  and  C_3
REMARK    2  A    between atoms: C_6  and  C_7
REMARK    3  A    between atoms: C_16  and  O_17
REMARK    4  A    between atoms: C_18  and  O_19
REMARK    5  A    between atoms: C_25  and  O_26
REMARK    6  A    between atoms: C_27  and  O_28
REMARK                            x       y       z     vdW  Elec       q    Type
REMARK                         _______ _______ _______ _____ _____    ______ ____
ROOT
ATOM      1  O   UNL     1     -10.366  -2.076  19.750  0.00  0.00    +0.000 OA
ATOM      2  C   UNL     1     -10.052  -1.600  20.846  0.00  0.00    +0.000 C 
ATOM      3  N   UNL     1      -9.007  -2.173  21.610  0.00  0.00    +0.000 N 
ATOM      4  C   UNL     1      -8.531  -1.682  22.844  0.00  0.00    +0.000 A 
ATOM      5  C   UNL     1      -8.595  -0.479  23.559  0.00  0.00    +0.000 A 
ATOM      6  C   UNL     1      -8.855  -0.646  24.915  0.00  0.00    +0.000 A 
ATOM      7  C   UNL     1      -8.871  -1.910  25.494  0.00  0.00    +0.000 A 
ATOM      8  C   UNL     1      -8.318  -3.000  24.829  0.00  0.00    +0.000 A 
ATOM      9  C   UNL     1      -8.052  -2.822  23.463  0.00  0.00    +0.000 A 
ATOM     10  C   UNL     1      -7.328  -3.375  22.405  0.00  0.00    +0.000 A 
ATOM     11  C   UNL     1      -6.037  -3.908  22.177  0.00  0.00    +0.000 A 
ATOM     12  C   UNL     1      -5.783  -4.529  20.952  0.00  0.00    +0.000 A 
ATOM     13  C   UNL     1      -6.842  -4.789  20.093  0.00  0.00    +0.000 A 
ATOM     14  C   UNL     1      -8.094  -4.191  20.276  0.00  0.00    +0.000 A 
ATOM     15  C   UNL     1      -8.215  -3.283  21.328  0.00  0.00    +0.000 A 
ATOM     16  H   UNL     1      -8.648   0.479  23.067  0.00  0.00    +0.000 HD
ATOM     17  H   UNL     1      -8.235  -3.971  25.301  0.00  0.00    +0.000 HD
ATOM     18  H   UNL     1      -5.241  -3.733  22.894  0.00  0.00    +0.000 HD
ATOM     19  H   UNL     1      -4.772  -4.842  20.714  0.00  0.00    +0.000 HD
ENDROOT
BRANCH   2  20
ATOM     20  C   UNL     1     -10.718  -0.341  21.242  0.00  0.00    +0.000 A 
ATOM     21  C   UNL     1     -10.265   0.893  20.765  0.00  0.00    +0.000 A 
ATOM     22  C   UNL     1     -11.205   1.909  20.564  0.00  0.00    +0.000 A 
ATOM     23  C   UNL     1     -12.558   1.687  20.859  0.00  0.00    +0.000 A 
ATOM     24  C   UNL     1     -12.928   0.519  21.562  0.00  0.00    +0.000 A 
ATOM     25  C   UNL     1     -12.006  -0.498  21.759  0.00  0.00    +0.000 A 
ATOM     26  H   UNL     1      -9.264   1.004  20.358  0.00  0.00    +0.000 HD
ATOM     27  H   UNL     1     -10.905   2.793  19.996  0.00  0.00    +0.000 HD
ATOM     28  H   UNL     1     -13.973   0.340  21.831  0.00  0.00    +0.000 HD
ATOM     29  H   UNL     1     -12.313  -1.454  22.169  0.00  0.00    +0.000 HD
BRANCH  23  30
ATOM     30  C   UNL     1     -13.646   2.534  20.240  0.00  0.00    +0.000 C 
ATOM     31  F   UNL     1     -13.180   3.701  19.712  0.00  0.00    +0.000 F 
ATOM     32  F   UNL     1     -14.245   1.896  19.192  0.00  0.00    +0.000 F 
ATOM     33  F   UNL     1     -14.639   2.863  21.105  0.00  0.00    +0.000 F 
ENDBRANCH  23  30
ENDBRANCH   2  20
BRANCH   6  34
ATOM     34  O   UNL     1      -9.208   0.418  25.700  0.00  0.00    +0.000 OA
ATOM     35  H   UNL     1      -9.995   0.164  26.217  0.00  0.00    +0.000 HD
ENDBRANCH   6  34
BRANCH   7  36
ATOM     36  O   UNL     1      -9.430  -2.076  26.729  0.00  0.00    +0.000 OA
ATOM     37  H   UNL     1     -10.334  -1.709  26.642  0.00  0.00    +0.000 HD
ENDBRANCH   7  36
BRANCH  13  38
ATOM     38  O   UNL     1      -6.696  -5.631  19.023  0.00  0.00    +0.000 OA
ATOM     39  H   UNL     1      -5.995  -5.270  18.455  0.00  0.00    +0.000 HD
ENDBRANCH  13  38
BRANCH  14  40
ATOM     40  O   UNL     1      -9.140  -4.539  19.476  0.00  0.00    +0.000 OA
ATOM     41  H   UNL     1      -9.886  -3.981  19.771  0.00  0.00    +0.000 HD
ENDBRANCH  14  40
TORSDOF 6
ENDMDL
MODEL 8
REMARK VINA RESULT:    -8.095      6.962     10.143
REMARK INTER + INTRA:         -10.616
REMARK INTER:                  -9.969
REMARK INTRA:                  -0.647
REMARK UNBOUND:                -0.629
REMARK  Name = 
REMARK  6 active torsions:
REMARK  status: ('A' for Active; 'I' for Inactive)
REMARK    1  A    between atoms: C_2  and  C_3
REMARK    2  A    between atoms: C_6  and  C_7
REMARK    3  A    between atoms: C_16  and  O_17
REMARK    4  A    between atoms: C_18  and  O_19
REMARK    5  A    between atoms: C_25  and  O_26
REMARK    6  A    between atoms: C_27  and  O_28
REMARK                            x       y       z     vdW  Elec       q    Type
REMARK                         _______ _______ _______ _____ _____    ______ ____
ROOT
ATOM      1  O   UNL     1     -10.361  -2.680  19.415  0.00  0.00    +0.000 OA
ATOM      2  C   UNL     1     -10.063  -2.087  20.457  0.00  0.00    +0.000 C 
ATOM      3  N   UNL     1      -8.965  -2.512  21.241  0.00  0.00    +0.000 N 
ATOM      4  C   UNL     1      -8.503  -1.881  22.415  0.00  0.00    +0.000 A 
ATOM      5  C   UNL     1      -8.644  -0.627  23.024  0.00  0.00    +0.000 A 
ATOM      6  C   UNL     1      -8.866  -0.692  24.396  0.00  0.00    +0.000 A 
ATOM      7  C   UNL     1      -8.776  -1.898  25.083  0.00  0.00    +0.000 A 
ATOM      8  C   UNL     1      -8.155  -2.999  24.501  0.00  0.00    +0.000 A 
ATOM      9  C   UNL     1      -7.928  -2.923  23.118  0.00  0.00    +0.000 A 
ATOM     10  C   UNL     1      -7.185  -3.513  22.095  0.00  0.00    +0.000 A 
ATOM     11  C   UNL     1      -5.862  -3.969  21.882  0.00  0.00    +0.000 A 
ATOM     12  C   UNL     1      -5.585  -4.676  20.708  0.00  0.00    +0.000 A 
ATOM     13  C   UNL     1      -6.638  -5.088  19.902  0.00  0.00    +0.000 A 
ATOM     14  C   UNL     1      -7.928  -4.568  20.064  0.00  0.00    +0.000 A 
ATOM     15  C   UNL     1      -8.097  -3.582  21.036  0.00  0.00    +0.000 A 
ATOM     16  H   UNL     1      -8.779   0.278  22.453  0.00  0.00    +0.000 HD
ATOM     17  H   UNL     1      -7.990  -3.915  25.053  0.00  0.00    +0.000 HD
ATOM     18  H   UNL     1      -5.068  -3.673  22.560  0.00  0.00    +0.000 HD
ATOM     19  H   UNL     1      -4.559  -4.933  20.474  0.00  0.00    +0.000 HD
ENDROOT
BRANCH   2  20
ATOM     20  C   UNL     1     -10.815  -0.851  20.759  0.00  0.00    +0.000 A 
ATOM     21  C   UNL     1     -11.677  -0.783  21.859  0.00  0.00    +0.000 A 
ATOM     22  C   UNL     1     -11.822   0.446  22.509  0.00  0.00    +0.000 A 
ATOM     23  C   UNL     1     -11.133   1.576  22.045  0.00  0.00    +0.000 A 
ATOM     24  C   UNL     1     -10.473   1.517  20.797  0.00  0.00    +0.000 A 
ATOM     25  C   UNL     1     -10.316   0.302  20.149  0.00  0.00    +0.000 A 
ATOM     26  H   UNL     1     -12.054  -1.685  22.332  0.00  0.00    +0.000 HD
ATOM     27  H   UNL     1     -12.313   0.465  23.485  0.00  0.00    +0.000 HD
ATOM     28  H   UNL     1      -9.956   2.395  20.400  0.00  0.00    +0.000 HD
ATOM     29  H   UNL     1      -9.692   0.220  19.266  0.00  0.00    +0.000 HD
BRANCH  23  30
ATOM     30  C   UNL     1     -10.876   2.764  22.944  0.00  0.00    +0.000 C 
ATOM     31  F   UNL     1      -9.565   2.898  23.290  0.00  0.00    +0.000 F 
ATOM     32  F   UNL     1     -11.191   3.940  22.325  0.00  0.00    +0.000 F 
ATOM     33  F   UNL     1     -11.588   2.738  24.099  0.00  0.00    +0.000 F 
ENDBRANCH  23  30
ENDBRANCH   2  20
BRANCH   6  34
ATOM     34  O   UNL     1      -9.282   0.408  25.094  0.00  0.00    +0.000 OA
ATOM     35  H   UNL     1      -9.286   1.169  24.484  0.00  0.00    +0.000 HD
ENDBRANCH   6  34
BRANCH   7  36
ATOM     36  O   UNL     1      -9.297  -1.994  26.341  0.00  0.00    +0.000 OA
ATOM     37  H   UNL     1      -9.787  -2.842  26.341  0.00  0.00    +0.000 HD
ENDBRANCH   7  36
BRANCH  13  38
ATOM     38  O   UNL     1      -6.449  -6.007  18.907  0.00  0.00    +0.000 OA
ATOM     39  H   UNL     1      -7.183  -5.917  18.276  0.00  0.00    +0.000 HD
ENDBRANCH  13  38
BRANCH  14  40
ATOM     40  O   UNL     1      -8.960  -5.062  19.325  0.00  0.00    +0.000 OA
ATOM     41  H   UNL     1      -9.085  -4.421  18.599  0.00  0.00    +0.000 HD
ENDBRANCH  14  40
TORSDOF 6
ENDMDL
MODEL 9
REMARK VINA RESULT:    -7.888      5.264      8.045
REMARK INTER + INTRA:         -10.361
REMARK INTER:                 -10.520
REMARK INTRA:                   0.159
REMARK UNBOUND:                -0.629
REMARK  Name = 
REMARK  6 active torsions:
REMARK  status: ('A' for Active; 'I' for Inactive)
REMARK    1  A    between atoms: C_2  and  C_3
REMARK    2  A    between atoms: C_6  and  C_7
REMARK    3  A    between atoms: C_16  and  O_17
REMARK    4  A    between atoms: C_18  and  O_19
REMARK    5  A    between atoms: C_25  and  O_26
REMARK    6  A    between atoms: C_27  and  O_28
REMARK                            x       y       z     vdW  Elec       q    Type
REMARK                         _______ _______ _______ _____ _____    ______ ____
ROOT
ATOM      1  O   UNL     1      -8.797  -4.743  18.217  0.00  0.00    +0.000 OA
ATOM      2  C   UNL     1      -9.153  -3.919  19.065  0.00  0.00    +0.000 C 
ATOM      3  N   UNL     1      -8.363  -3.677  20.215  0.00  0.00    +0.000 N 
ATOM      4  C   UNL     1      -8.644  -2.725  21.216  0.00  0.00    +0.000 A 
ATOM      5  C   UNL     1      -9.446  -1.583  21.345  0.00  0.00    +0.000 A 
ATOM      6  C   UNL     1     -10.135  -1.514  22.552  0.00  0.00    +0.000 A 
ATOM      7  C   UNL     1      -9.887  -2.425  23.573  0.00  0.00    +0.000 A 
ATOM      8  C   UNL     1      -8.741  -3.214  23.555  0.00  0.00    +0.000 A 
ATOM      9  C   UNL     1      -8.048  -3.272  22.336  0.00  0.00    +0.000 A 
ATOM     10  C   UNL     1      -6.813  -3.630  21.793  0.00  0.00    +0.000 A 
ATOM     11  C   UNL     1      -5.441  -3.478  22.106  0.00  0.00    +0.000 A 
ATOM     12  C   UNL     1      -4.505  -4.170  21.334  0.00  0.00    +0.000 A 
ATOM     13  C   UNL     1      -4.947  -5.132  20.435  0.00  0.00    +0.000 A 
ATOM     14  C   UNL     1      -6.294  -5.221  20.065  0.00  0.00    +0.000 A 
ATOM     15  C   UNL     1      -7.162  -4.268  20.598  0.00  0.00    +0.000 A 
ATOM     16  H   UNL     1      -9.667  -0.939  20.508  0.00  0.00    +0.000 HD
ATOM     17  H   UNL     1      -8.483  -3.858  24.386  0.00  0.00    +0.000 HD
ATOM     18  H   UNL     1      -5.130  -2.754  22.852  0.00  0.00    +0.000 HD
ATOM     19  H   UNL     1      -3.448  -3.979  21.484  0.00  0.00    +0.000 HD
ENDROOT
BRANCH   2  20
ATOM     20  C   UNL     1     -10.352  -3.114  18.750  0.00  0.00    +0.000 A 
ATOM     21  C   UNL     1     -10.266  -1.727  18.589  0.00  0.00    +0.000 A 
ATOM     22  C   UNL     1     -11.137  -1.111  17.685  0.00  0.00    +0.000 A 
ATOM     23  C   UNL     1     -12.082  -1.874  16.984  0.00  0.00    +0.000 A 
ATOM     24  C   UNL     1     -12.294  -3.220  17.356  0.00  0.00    +0.000 A 
ATOM     25  C   UNL     1     -11.431  -3.842  18.245  0.00  0.00    +0.000 A 
ATOM     26  H   UNL     1      -9.419  -1.169  18.979  0.00  0.00    +0.000 HD
ATOM     27  H   UNL     1     -10.939  -0.077  17.391  0.00  0.00    +0.000 HD
ATOM     28  H   UNL     1     -13.048  -3.826  16.846  0.00  0.00    +0.000 HD
ATOM     29  H   UNL     1     -11.498  -4.909  18.430  0.00  0.00    +0.000 HD
BRANCH  23  30
ATOM     30  C   UNL     1     -12.697  -1.374  15.697  0.00  0.00    +0.000 C 
ATOM     31  F   UNL     1     -14.006  -1.018  15.835  0.00  0.00    +0.000 F 
ATOM     32  F   UNL     1     -12.077  -0.243  15.250  0.00  0.00    +0.000 F 
ATOM     33  F   UNL     1     -12.637  -2.270  14.680  0.00  0.00    +0.000 F 
ENDBRANCH  23  30
ENDBRANCH   2  20
BRANCH   6  34
ATOM     34  O   UNL     1     -11.150  -0.616  22.732  0.00  0.00    +0.000 OA
ATOM     35  H   UNL     1     -11.147  -0.341  23.668  0.00  0.00    +0.000 HD
ENDBRANCH   6  34
BRANCH   7  36
ATOM     36  O   UNL     1     -10.776  -2.535  24.604  0.00  0.00    +0.000 OA
ATOM     37  H   UNL     1     -11.171  -1.643  24.686  0.00  0.00    +0.000 HD
ENDBRANCH   7  36
BRANCH  13  38
ATOM     38  O   UNL     1      -4.077  -6.021  19.865  0.00  0.00    +0.000 OA
ATOM     39  H   UNL     1      -3.174  -5.731  20.078  0.00  0.00    +0.000 HD
ENDBRANCH  13  38
BRANCH  14  40
ATOM     40  O   UNL     1      -6.714  -6.234  19.258  0.00  0.00    +0.000 OA
ATOM     41  H   UNL     1      -7.689  -6.170  19.252  0.00  0.00    +0.000 HD
ENDBRANCH  14  40
TORSDOF 6
ENDMDL
