
 OpenBabel01112422343D

 58 63  0  0  0  0  0  0  0  0999 V2000
    1.3352    1.0911   -0.2935 C   0  0  0  0  0  0  0  0  0  0  0  0
    2.4434    0.2027   -0.1962 O   0  0  0  0  0  0  0  0  0  0  0  0
    3.0145   -0.2028   -1.3731 C   0  0  0  0  0  0  0  0  0  0  0  0
    2.5993    0.1827   -2.6416 C   0  0  0  0  0  0  0  0  0  0  0  0
    3.2227   -0.3327   -3.7843 C   0  0  0  0  0  0  0  0  0  0  0  0
    4.2955   -1.2453   -3.6524 C   0  0  0  0  0  0  0  0  0  0  0  0
    5.1028   -2.0206   -4.4816 C   0  0  0  0  0  0  0  0  0  0  0  0
    5.0596   -1.9217   -5.8818 C   0  0  0  0  0  0  0  0  0  0  0  0
    5.8081   -2.8767   -6.5877 C   0  0  0  0  0  0  0  0  0  0  0  0
    6.8647   -3.5887   -6.0170 C   0  0  0  0  0  0  0  0  0  0  0  0
    7.0240   -3.5260   -4.6072 C   0  0  0  0  0  0  0  0  0  0  0  0
    8.2555   -3.8960   -4.0429 C   0  0  0  0  0  0  0  0  0  0  0  0
    9.4117   -3.7546   -4.8237 C   0  0  0  0  0  0  0  0  0  0  0  0
    9.2024   -3.4169   -6.1578 C   0  0  0  0  0  0  0  0  0  0  0  0
    9.4946   -2.2424   -6.9596 C   0  0  0  0  0  0  0  0  0  0  0  0
    8.8334   -2.4070   -8.1672 C   0  0  0  0  0  0  0  0  0  0  0  0
    8.4397   -3.7404   -8.0972 N   0  0  0  0  0  0  0  0  0  0  0  0
    9.2899   -4.7188   -8.7849 C   0  0  0  0  0  0  0  0  0  0  0  0
    8.0329   -3.8867   -6.7765 C   0  0  0  0  0  0  0  0  0  0  0  0
    6.0482   -2.8153   -3.8504 C   0  0  0  0  0  0  0  0  0  0  0  0
    5.8411   -2.4526   -2.5062 N   0  0  0  0  0  0  0  0  0  0  0  0
    6.5932   -2.9644   -1.3617 C   0  0  0  0  0  0  0  0  0  0  0  0
    7.8939   -2.2085   -1.0357 C   0  0  0  0  0  0  0  0  0  0  0  0
    7.7384   -0.8500   -0.4868 N   0  0  0  0  0  0  0  0  0  0  0  0
    9.0670   -0.2842   -0.1689 C   0  0  0  0  0  0  0  0  0  0  0  0
    8.9721    1.1533    0.3529 C   0  0  0  0  0  0  0  0  0  0  0  0
    8.1745    1.2027    1.5334 O   0  0  0  0  0  0  0  0  0  0  0  0
    4.7374   -1.5909   -2.3715 C   0  0  0  0  0  0  0  0  0  0  0  0
    4.0984   -1.0729   -1.2244 C   0  0  0  0  0  0  0  0  0  0  0  0
    5.5414   -2.6771   -7.9806 C   0  0  0  0  0  0  0  0  0  0  0  0
    5.6646   -3.3861   -8.9711 O   0  0  0  0  0  0  0  0  0  0  0  0
    5.0058   -1.4237   -8.0173 N   0  0  0  0  0  0  0  0  0  0  0  0
    4.6260   -0.9158   -6.7970 C   0  0  0  0  0  0  0  0  0  0  0  0
    4.2065    0.2270   -6.6694 O   0  0  0  0  0  0  0  0  0  0  0  0
    0.9522    1.2655    0.7169 H   0  0  0  0  0  0  0  0  0  0  0  0
    0.5192    0.6572   -0.8823 H   0  0  0  0  0  0  0  0  0  0  0  0
    1.6482    2.0566   -0.7043 H   0  0  0  0  0  0  0  0  0  0  0  0
    1.7762    0.8738   -2.7930 H   0  0  0  0  0  0  0  0  0  0  0  0
    2.8525   -0.0298   -4.7558 H   0  0  0  0  0  0  0  0  0  0  0  0
    8.4003   -4.0205   -2.9763 H   0  0  0  0  0  0  0  0  0  0  0  0
   10.3821   -3.6490   -4.3521 H   0  0  0  0  0  0  0  0  0  0  0  0
    9.9856   -1.3404   -6.6299 H   0  0  0  0  0  0  0  0  0  0  0  0
    8.7119   -1.8156   -9.0667 H   0  0  0  0  0  0  0  0  0  0  0  0
    9.1633   -4.6171   -9.8642 H   0  0  0  0  0  0  0  0  0  0  0  0
    9.0414   -5.7228   -8.4399 H   0  0  0  0  0  0  0  0  0  0  0  0
   10.3318   -4.4908   -8.5191 H   0  0  0  0  0  0  0  0  0  0  0  0
    6.7927   -4.0248   -1.5688 H   0  0  0  0  0  0  0  0  0  0  0  0
    5.9348   -2.9632   -0.4891 H   0  0  0  0  0  0  0  0  0  0  0  0
    8.5221   -2.1356   -1.9277 H   0  0  0  0  0  0  0  0  0  0  0  0
    8.4321   -2.8154   -0.3006 H   0  0  0  0  0  0  0  0  0  0  0  0
    7.1885   -0.8886    0.3713 H   0  0  0  0  0  0  0  0  0  0  0  0
    9.7069   -0.2879   -1.0591 H   0  0  0  0  0  0  0  0  0  0  0  0
    9.5429   -0.9043    0.6011 H   0  0  0  0  0  0  0  0  0  0  0  0
    8.5385    1.8268   -0.3937 H   0  0  0  0  0  0  0  0  0  0  0  0
    9.9721    1.5249    0.6029 H   0  0  0  0  0  0  0  0  0  0  0  0
    7.2597    1.0804    1.2372 H   0  0  0  0  0  0  0  0  0  0  0  0
    4.4284   -1.3459   -0.2291 H   0  0  0  0  0  0  0  0  0  0  0  0
    5.4226   -0.7644   -8.6505 H   0  0  0  0  0  0  0  0  0  0  0  0
  1  2  1  0  0  0  0
  1 35  1  0  0  0  0
  1 36  1  0  0  0  0
  1 37  1  0  0  0  0
  2  3  1  0  0  0  0
  3  4  1  0  0  0  0
  3 29  2  0  0  0  0
  4  5  2  0  0  0  0
  4 38  1  0  0  0  0
  5  6  1  0  0  0  0
  5 39  1  0  0  0  0
  6  7  1  0  0  0  0
  6 28  2  0  0  0  0
  7  8  1  0  0  0  0
  7 20  2  0  0  0  0
  8  9  2  0  0  0  0
  8 33  1  0  0  0  0
  9 10  1  0  0  0  0
  9 30  1  0  0  0  0
 10 11  1  0  0  0  0
 10 19  2  0  0  0  0
 11 12  2  0  0  0  0
 11 20  1  0  0  0  0
 12 13  1  0  0  0  0
 12 40  1  0  0  0  0
 13 14  2  0  0  0  0
 13 41  1  0  0  0  0
 14 15  1  0  0  0  0
 14 19  1  0  0  0  0
 15 16  2  0  0  0  0
 15 42  1  0  0  0  0
 16 17  1  0  0  0  0
 16 43  1  0  0  0  0
 17 18  1  0  0  0  0
 17 19  1  0  0  0  0
 18 44  1  0  0  0  0
 18 45  1  0  0  0  0
 18 46  1  0  0  0  0
 20 21  1  0  0  0  0
 21 22  1  0  0  0  0
 21 28  1  0  0  0  0
 22 23  1  0  0  0  0
 22 47  1  0  0  0  0
 22 48  1  0  0  0  0
 23 24  1  0  0  0  0
 23 49  1  0  0  0  0
 23 50  1  0  0  0  0
 24 25  1  0  0  0  0
 24 51  1  0  0  0  0
 25 26  1  0  0  0  0
 25 52  1  0  0  0  0
 25 53  1  0  0  0  0
 26 27  1  0  0  0  0
 26 54  1  0  0  0  0
 26 55  1  0  0  0  0
 27 56  1  0  0  0  0
 28 29  1  0  0  0  0
 29 57  1  0  0  0  0
 30 31  2  0  0  0  0
 30 32  1  0  0  0  0
 32 33  1  0  0  0  0
 32 58  1  0  0  0  0
 33 34  2  0  0  0  0
M  END
$$$$
