REMARK  Name = 
REMARK  5 active torsions:
REMARK  status: ('A' for Active; 'I' for Inactive)
REMARK    1  A    between atoms: C_1  and  N_2
REMARK    2  A    between atoms: N_2  and  C_3
REMARK    3  A    between atoms: C_3  and  C_4
REMARK    4  A    between atoms: C_11  and  C_12
REMARK    5  A    between atoms: C_13  and  C_14
REMARK                            x       y       z     vdW  Elec       q    Type
REMARK                         _______ _______ _______ _____ _____    ______ ____
ROOT
ATOM      1  C   UNL     1      -3.268   1.409  -0.380  0.00  0.00    +0.000 C 
ATOM      2  C   UNL     1      -2.785   2.732  -1.036  0.00  0.00    +0.000 C 
ATOM      3  C   UNL     1      -1.291   2.744  -1.150  0.00  0.00    +0.000 A 
ATOM      4  C   UNL     1      -0.510   3.892  -1.280  0.00  0.00    +0.000 A 
ATOM      5  C   UNL     1       0.870   3.792  -1.477  0.00  0.00    +0.000 A 
ATOM      6  C   UNL     1       1.509   2.540  -1.556  0.00  0.00    +0.000 A 
ATOM      7  C   UNL     1       0.733   1.369  -1.446  0.00  0.00    +0.000 A 
ATOM      8  C   UNL     1       0.956  -0.042  -1.507  0.00  0.00    +0.000 A 
ATOM      9  C   UNL     1      -0.260  -0.686  -1.347  0.00  0.00    +0.000 A 
ATOM     10  N   UNL     1      -1.206   0.282  -1.203  0.00  0.00    +0.000 N 
ATOM     11  C   UNL     1      -0.626   1.524  -1.249  0.00  0.00    +0.000 A 
ATOM     12  C   UNL     1      -2.652   0.151  -1.056  0.00  0.00    +0.000 C 
ATOM     13  H   UNL     1      -2.904   1.433   0.657  0.00  0.00    +0.000 HD
ATOM     14  H   UNL     1      -3.125   3.586  -0.439  0.00  0.00    +0.000 HD
ATOM     15  H   UNL     1      -3.196   2.831  -2.048  0.00  0.00    +0.000 HD
ATOM     16  H   UNL     1      -0.979   4.872  -1.250  0.00  0.00    +0.000 HD
ATOM     17  H   UNL     1       1.458   4.699  -1.595  0.00  0.00    +0.000 HD
ATOM     18  H   UNL     1       2.579   2.487  -1.727  0.00  0.00    +0.000 HD
ATOM     19  H   UNL     1      -0.521  -1.737  -1.346  0.00  0.00    +0.000 HD
ATOM     20  H   UNL     1      -2.831  -0.749  -0.458  0.00  0.00    +0.000 HD
ATOM     21  H   UNL     1      -3.056  -0.004  -2.062  0.00  0.00    +0.000 HD
ENDROOT
BRANCH   8  22
ATOM     22  C   UNL     1       2.188  -0.699  -1.729  0.00  0.00    +0.000 C 
ATOM     23  C   UNL     1       3.106  -1.100  -0.836  0.00  0.00    +0.000 C 
ATOM     24  C   UNL     1       4.226  -1.697  -1.599  0.00  0.00    +0.000 C 
ATOM     25  O   UNL     1       5.259  -2.149  -1.142  0.00  0.00    +0.000 OA
ATOM     26  N   UNL     1       3.897  -1.639  -2.907  0.00  0.00    +0.000 N 
ATOM     27  C   UNL     1       2.690  -1.061  -3.071  0.00  0.00    +0.000 C 
ATOM     28  O   UNL     1       2.125  -0.885  -4.138  0.00  0.00    +0.000 OA
ATOM     29  H   UNL     1       4.477  -1.975  -3.657  0.00  0.00    +0.000 HD
BRANCH  23  30
ATOM     30  C   UNL     1       3.089  -1.007   0.575  0.00  0.00    +0.000 A 
ATOM     31  C   UNL     1       3.537   0.079   1.293  0.00  0.00    +0.000 A 
ATOM     32  N   UNL     1       3.398  -0.216   2.624  0.00  0.00    +0.000 N 
ATOM     33  C   UNL     1       2.867  -1.478   2.780  0.00  0.00    +0.000 A 
ATOM     34  C   UNL     1       2.582  -2.197   3.947  0.00  0.00    +0.000 A 
ATOM     35  C   UNL     1       2.046  -3.474   3.793  0.00  0.00    +0.000 A 
ATOM     36  F   UNL     1       1.773  -4.199   4.887  0.00  0.00    +0.000 F 
ATOM     37  C   UNL     1       1.790  -4.017   2.542  0.00  0.00    +0.000 A 
ATOM     38  C   UNL     1       2.080  -3.286   1.383  0.00  0.00    +0.000 A 
ATOM     39  C   UNL     1       2.641  -1.995   1.501  0.00  0.00    +0.000 A 
ATOM     40  H   UNL     1       3.955   1.027   0.982  0.00  0.00    +0.000 HD
ATOM     41  H   UNL     1       3.664   0.391   3.386  0.00  0.00    +0.000 HD
ATOM     42  H   UNL     1       2.776  -1.796   4.935  0.00  0.00    +0.000 HD
ATOM     43  H   UNL     1       1.372  -5.017   2.469  0.00  0.00    +0.000 HD
ATOM     44  H   UNL     1       1.883  -3.718   0.406  0.00  0.00    +0.000 HD
ENDBRANCH  23  30
ENDBRANCH   8  22
BRANCH   1  45
ATOM     45  C   UNL     1      -4.805   1.362  -0.357  0.00  0.00    +0.000 C 
ATOM     46  H   UNL     1      -5.196   2.238   0.177  0.00  0.00    +0.000 HD
ATOM     47  H   UNL     1      -5.187   1.435  -1.382  0.00  0.00    +0.000 HD
BRANCH  45  48
ATOM     48  N   UNL     1      -5.355   0.143   0.245  0.00  0.00    +0.000 NA
ATOM     49  H   UNL     1      -6.376   0.201   0.229  0.00  0.00    +0.000 HD
BRANCH  48  50
ATOM     50  C   UNL     1      -4.930  -0.047   1.627  0.00  0.00    +0.000 C 
ATOM     51  H   UNL     1      -5.405  -0.946   2.031  0.00  0.00    +0.000 HD
ATOM     52  H   UNL     1      -5.213   0.804   2.254  0.00  0.00    +0.000 HD
ATOM     53  H   UNL     1      -3.851  -0.208   1.705  0.00  0.00    +0.000 HD
ENDBRANCH  48  50
ENDBRANCH  45  48
ENDBRANCH   1  45
TORSDOF 5
