MODEL 1
REMARK VINA RESULT:    -9.712      0.000      0.000
REMARK INTER + INTRA:         -12.828
REMARK INTER:                 -12.551
REMARK INTRA:                  -0.277
REMARK UNBOUND:                -0.277
REMARK  Name = 
REMARK  7 active torsions:
REMARK  status: ('A' for Active; 'I' for Inactive)
REMARK    1  A    between atoms: C_1  and  C_2
REMARK    2  A    between atoms: C_2  and  N_3
REMARK    3  A    between atoms: N_3  and  C_4
REMARK    4  A    between atoms: N_3  and  C_5
REMARK    5  A    between atoms: C_9  and  C_10
REMARK    6  A    between atoms: C_11  and  O_12
REMARK    7  A    between atoms: O_12  and  C_13
REMARK                            x       y       z     vdW  Elec       q    Type
REMARK                         _______ _______ _______ _____ _____    ______ ____
ROOT
ATOM      1  C   UNL     1      -9.452  -9.326  18.159  0.00  0.00    +0.000 C 
ATOM      2  C   UNL     1      -9.002  -8.566  19.441  0.00  0.00    +0.000 C 
ATOM      3  C   UNL     1      -9.266  -7.070  19.415  0.00  0.00    +0.000 C 
ATOM      4  O   UNL     1     -10.572  -7.005  18.758  0.00  0.00    +0.000 OA
ATOM      5  C   UNL     1     -10.566  -7.134  17.284  0.00  0.00    +0.000 C 
ATOM      6  C   UNL     1      -9.767  -8.433  16.888  0.00  0.00    +0.000 C 
ATOM      7  N   UNL     1     -10.075  -5.832  16.746  0.00  0.00    +0.000 N 
ATOM      8  C   UNL     1     -10.783  -4.877  15.930  0.00  0.00    +0.000 A 
ATOM      9  C   UNL     1     -10.585  -4.523  14.576  0.00  0.00    +0.000 A 
ATOM     10  C   UNL     1     -11.099  -3.300  14.119  0.00  0.00    +0.000 A 
ATOM     11  C   UNL     1     -11.890  -2.486  14.922  0.00  0.00    +0.000 A 
ATOM     12  C   UNL     1     -12.140  -2.817  16.243  0.00  0.00    +0.000 A 
ATOM     13  C   UNL     1     -11.465  -3.922  16.793  0.00  0.00    +0.000 A 
ATOM     14  C   UNL     1     -11.037  -4.164  18.124  0.00  0.00    +0.000 A 
ATOM     15  C   UNL     1     -11.043  -3.148  19.075  0.00  0.00    +0.000 A 
ATOM     16  C   UNL     1      -9.775  -2.588  19.345  0.00  0.00    +0.000 A 
ATOM     17  C   UNL     1      -8.804  -3.635  19.207  0.00  0.00    +0.000 A 
ATOM     18  C   UNL     1      -8.110  -4.074  20.343  0.00  0.00    +0.000 A 
ATOM     19  C   UNL     1      -7.854  -3.518  21.615  0.00  0.00    +0.000 A 
ATOM     20  C   UNL     1      -6.538  -3.622  22.030  0.00  0.00    +0.000 A 
ATOM     21  C   UNL     1      -5.623  -4.350  21.258  0.00  0.00    +0.000 A 
ATOM     22  C   UNL     1      -6.049  -5.241  20.241  0.00  0.00    +0.000 A 
ATOM     23  C   UNL     1      -7.427  -5.274  19.944  0.00  0.00    +0.000 A 
ATOM     24  N   UNL     1      -8.267  -6.008  18.998  0.00  0.00    +0.000 N 
ATOM     25  C   UNL     1      -8.841  -4.852  18.505  0.00  0.00    +0.000 A 
ATOM     26  C   UNL     1      -9.943  -4.949  17.735  0.00  0.00    +0.000 A 
ATOM     27  C   UNL     1      -9.908  -1.598  20.363  0.00  0.00    +0.000 C 
ATOM     28  O   UNL     1      -9.230  -0.674  20.740  0.00  0.00    +0.000 OA
ATOM     29  N   UNL     1     -11.109  -1.986  20.981  0.00  0.00    +0.000 N 
ATOM     30  C   UNL     1     -11.743  -3.151  20.381  0.00  0.00    +0.000 C 
ATOM     31  H   UNL     1     -10.455  -9.714  18.413  0.00  0.00    +0.000 HD
ATOM     32  H   UNL     1      -8.032  -8.827  19.864  0.00  0.00    +0.000 HD
ATOM     33  H   UNL     1      -9.712  -8.950  20.199  0.00  0.00    +0.000 HD
ATOM     34  H   UNL     1      -9.471  -6.779  20.455  0.00  0.00    +0.000 HD
ATOM     35  H   UNL     1     -10.426  -9.062  16.270  0.00  0.00    +0.000 HD
ATOM     36  H   UNL     1      -9.917  -5.074  13.925  0.00  0.00    +0.000 HD
ATOM     37  H   UNL     1     -10.824  -2.947  13.127  0.00  0.00    +0.000 HD
ATOM     38  H   UNL     1     -12.239  -1.525  14.554  0.00  0.00    +0.000 HD
ATOM     39  H   UNL     1     -12.651  -2.121  16.902  0.00  0.00    +0.000 HD
ATOM     40  H   UNL     1      -8.501  -2.808  22.086  0.00  0.00    +0.000 HD
ATOM     41  H   UNL     1      -6.223  -3.006  22.867  0.00  0.00    +0.000 HD
ATOM     42  H   UNL     1      -4.570  -4.172  21.439  0.00  0.00    +0.000 HD
ATOM     43  H   UNL     1      -5.314  -5.761  19.633  0.00  0.00    +0.000 HD
ATOM     44  H   UNL     1     -11.320  -1.617  21.887  0.00  0.00    +0.000 HD
ATOM     45  H   UNL     1     -11.428  -4.033  20.960  0.00  0.00    +0.000 HD
ATOM     46  H   UNL     1     -12.830  -3.076  20.345  0.00  0.00    +0.000 HD
ENDROOT
BRANCH   5  47
ATOM     47  C   UNL     1     -12.052  -7.329  16.941  0.00  0.00    +0.000 C 
ATOM     48  H   UNL     1     -12.238  -8.302  16.484  0.00  0.00    +0.000 HD
ATOM     49  H   UNL     1     -12.404  -6.551  16.251  0.00  0.00    +0.000 HD
ATOM     50  H   UNL     1     -12.677  -7.233  17.836  0.00  0.00    +0.000 HD
ENDBRANCH   5  47
BRANCH   1  51
ATOM     51  N   UNL     1      -8.641 -10.514  17.802  0.00  0.00    +0.000 NA
BRANCH  51  52
ATOM     52  C   UNL     1      -9.170 -11.343  16.718  0.00  0.00    +0.000 C 
ATOM     53  H   UNL     1      -8.339 -11.806  16.162  0.00  0.00    +0.000 HD
ATOM     54  H   UNL     1      -9.709 -10.750  15.980  0.00  0.00    +0.000 HD
ATOM     55  H   UNL     1      -9.826 -12.146  17.069  0.00  0.00    +0.000 HD
ENDBRANCH  51  52
BRANCH  51  56
ATOM     56  C   UNL     1      -8.177 -11.307  18.942  0.00  0.00    +0.000 C 
ATOM     57  H   UNL     1      -8.757 -11.094  19.851  0.00  0.00    +0.000 HD
ATOM     58  H   UNL     1      -7.130 -11.082  19.176  0.00  0.00    +0.000 HD
BRANCH  56  59
ATOM     59  C   UNL     1      -8.245 -12.785  18.602  0.00  0.00    +0.000 C 
ATOM     60  H   UNL     1      -7.603 -13.006  17.746  0.00  0.00    +0.000 HD
ATOM     61  H   UNL     1      -7.918 -13.411  19.436  0.00  0.00    +0.000 HD
ATOM     62  H   UNL     1      -9.273 -13.060  18.343  0.00  0.00    +0.000 HD
ENDBRANCH  56  59
ENDBRANCH  51  56
ENDBRANCH   1  51
BRANCH   6  63
ATOM     63  O   UNL     1      -8.591  -8.196  16.094  0.00  0.00    +0.000 OA
BRANCH  63  64
ATOM     64  C   UNL     1      -8.795  -8.508  14.715  0.00  0.00    +0.000 C 
ATOM     65  H   UNL     1      -9.803  -8.261  14.360  0.00  0.00    +0.000 HD
ATOM     66  H   UNL     1      -8.602  -9.567  14.542  0.00  0.00    +0.000 HD
ATOM     67  H   UNL     1      -8.070  -7.970  14.121  0.00  0.00    +0.000 HD
ENDBRANCH  63  64
ENDBRANCH   6  63
TORSDOF 7
ENDMDL
MODEL 2
REMARK VINA RESULT:    -8.715      1.452      1.923
REMARK INTER + INTRA:         -11.539
REMARK INTER:                 -11.152
REMARK INTRA:                  -0.388
REMARK UNBOUND:                -0.277
REMARK  Name = 
REMARK  7 active torsions:
REMARK  status: ('A' for Active; 'I' for Inactive)
REMARK    1  A    between atoms: C_1  and  C_2
REMARK    2  A    between atoms: C_2  and  N_3
REMARK    3  A    between atoms: N_3  and  C_4
REMARK    4  A    between atoms: N_3  and  C_5
REMARK    5  A    between atoms: C_9  and  C_10
REMARK    6  A    between atoms: C_11  and  O_12
REMARK    7  A    between atoms: O_12  and  C_13
REMARK                            x       y       z     vdW  Elec       q    Type
REMARK                         _______ _______ _______ _____ _____    ______ ____
ROOT
ATOM      1  C   UNL     1     -10.124  -7.604  17.335  0.00  0.00    +0.000 C 
ATOM      2  C   UNL     1      -9.668  -7.303  18.792  0.00  0.00    +0.000 C 
ATOM      3  C   UNL     1      -9.747  -5.840  19.191  0.00  0.00    +0.000 C 
ATOM      4  O   UNL     1     -10.992  -5.417  18.548  0.00  0.00    +0.000 OA
ATOM      5  C   UNL     1     -10.909  -5.126  17.099  0.00  0.00    +0.000 C 
ATOM      6  C   UNL     1     -10.250  -6.355  16.367  0.00  0.00    +0.000 C 
ATOM      7  N   UNL     1     -10.231  -3.802  16.971  0.00  0.00    +0.000 N 
ATOM      8  C   UNL     1     -10.767  -2.571  16.446  0.00  0.00    +0.000 A 
ATOM      9  C   UNL     1     -10.443  -1.880  15.256  0.00  0.00    +0.000 A 
ATOM     10  C   UNL     1     -10.776  -0.519  15.158  0.00  0.00    +0.000 A 
ATOM     11  C   UNL     1     -11.512   0.133  16.141  0.00  0.00    +0.000 A 
ATOM     12  C   UNL     1     -11.882  -0.520  17.304  0.00  0.00    +0.000 A 
ATOM     13  C   UNL     1     -11.381  -1.815  17.530  0.00  0.00    +0.000 A 
ATOM     14  C   UNL     1     -11.070  -2.478  18.746  0.00  0.00    +0.000 A 
ATOM     15  C   UNL     1     -11.013  -1.779  19.948  0.00  0.00    +0.000 A 
ATOM     16  C   UNL     1      -9.706  -1.493  20.400  0.00  0.00    +0.000 A 
ATOM     17  C   UNL     1      -8.862  -2.579  19.992  0.00  0.00    +0.000 A 
ATOM     18  C   UNL     1      -8.299  -3.409  20.971  0.00  0.00    +0.000 A 
ATOM     19  C   UNL     1      -8.058  -3.273  22.355  0.00  0.00    +0.000 A 
ATOM     20  C   UNL     1      -6.793  -3.664  22.757  0.00  0.00    +0.000 A 
ATOM     21  C   UNL     1      -5.925  -4.260  21.831  0.00  0.00    +0.000 A 
ATOM     22  C   UNL     1      -6.392  -4.763  20.590  0.00  0.00    +0.000 A 
ATOM     23  C   UNL     1      -7.742  -4.527  20.261  0.00  0.00    +0.000 A 
ATOM     24  N   UNL     1      -8.603  -4.846  19.123  0.00  0.00    +0.000 N 
ATOM     25  C   UNL     1      -9.001  -3.532  18.969  0.00  0.00    +0.000 A 
ATOM     26  C   UNL     1     -10.057  -3.260  18.175  0.00  0.00    +0.000 A 
ATOM     27  C   UNL     1      -9.782  -0.821  21.656  0.00  0.00    +0.000 C 
ATOM     28  O   UNL     1      -9.022  -0.140  22.300  0.00  0.00    +0.000 OA
ATOM     29  N   UNL     1     -11.058  -1.204  22.106  0.00  0.00    +0.000 N 
ATOM     30  C   UNL     1     -11.788  -2.057  21.180  0.00  0.00    +0.000 C 
ATOM     31  H   UNL     1     -11.181  -7.909  17.441  0.00  0.00    +0.000 HD
ATOM     32  H   UNL     1      -8.765  -7.800  19.148  0.00  0.00    +0.000 HD
ATOM     33  H   UNL     1     -10.465  -7.787  19.390  0.00  0.00    +0.000 HD
ATOM     34  H   UNL     1      -9.980  -5.828  20.265  0.00  0.00    +0.000 HD
ATOM     35  H   UNL     1     -10.939  -6.690  15.577  0.00  0.00    +0.000 HD
ATOM     36  H   UNL     1      -9.807  -2.309  14.492  0.00  0.00    +0.000 HD
ATOM     37  H   UNL     1     -10.398   0.058  14.317  0.00  0.00    +0.000 HD
ATOM     38  H   UNL     1     -11.718   1.196  16.056  0.00  0.00    +0.000 HD
ATOM     39  H   UNL     1     -12.346   0.023  18.121  0.00  0.00    +0.000 HD
ATOM     40  H   UNL     1      -8.643  -2.644  22.994  0.00  0.00    +0.000 HD
ATOM     41  H   UNL     1      -6.459  -3.357  23.743  0.00  0.00    +0.000 HD
ATOM     42  H   UNL     1      -4.872  -4.283  22.083  0.00  0.00    +0.000 HD
ATOM     43  H   UNL     1      -5.688  -5.185  19.878  0.00  0.00    +0.000 HD
ATOM     44  H   UNL     1     -11.279  -1.081  23.074  0.00  0.00    +0.000 HD
ATOM     45  H   UNL     1     -11.620  -3.100  21.488  0.00  0.00    +0.000 HD
ATOM     46  H   UNL     1     -12.855  -1.830  21.139  0.00  0.00    +0.000 HD
ENDROOT
BRANCH   5  47
ATOM     47  C   UNL     1     -12.383  -5.016  16.676  0.00  0.00    +0.000 C 
ATOM     48  H   UNL     1     -12.493  -4.510  15.716  0.00  0.00    +0.000 HD
ATOM     49  H   UNL     1     -12.969  -4.466  17.425  0.00  0.00    +0.000 HD
ATOM     50  H   UNL     1     -12.847  -6.007  16.610  0.00  0.00    +0.000 HD
ENDBRANCH   5  47
BRANCH   1  51
ATOM     51  N   UNL     1      -9.442  -8.741  16.673  0.00  0.00    +0.000 NA
BRANCH  51  52
ATOM     52  C   UNL     1     -10.151  -9.334  15.538  0.00  0.00    +0.000 C 
ATOM     53  H   UNL     1      -9.525 -10.109  15.070  0.00  0.00    +0.000 HD
ATOM     54  H   UNL     1     -10.338  -8.606  14.750  0.00  0.00    +0.000 HD
ATOM     55  H   UNL     1     -11.103  -9.798  15.818  0.00  0.00    +0.000 HD
ENDBRANCH  51  52
BRANCH  51  56
ATOM     56  C   UNL     1      -8.897  -9.747  17.585  0.00  0.00    +0.000 C 
ATOM     57  H   UNL     1      -9.208  -9.568  18.624  0.00  0.00    +0.000 HD
ATOM     58  H   UNL     1      -7.801  -9.731  17.577  0.00  0.00    +0.000 HD
BRANCH  56  59
ATOM     59  C   UNL     1      -9.320 -11.133  17.134  0.00  0.00    +0.000 C 
ATOM     60  H   UNL     1      -8.521 -11.853  17.324  0.00  0.00    +0.000 HD
ATOM     61  H   UNL     1     -10.214 -11.478  17.660  0.00  0.00    +0.000 HD
ATOM     62  H   UNL     1      -9.531 -11.126  16.060  0.00  0.00    +0.000 HD
ENDBRANCH  56  59
ENDBRANCH  51  56
ENDBRANCH   1  51
BRANCH   6  63
ATOM     63  O   UNL     1      -9.006  -6.063  15.705  0.00  0.00    +0.000 OA
BRANCH  63  64
ATOM     64  C   UNL     1      -9.200  -5.572  14.378  0.00  0.00    +0.000 C 
ATOM     65  H   UNL     1     -10.016  -6.074  13.846  0.00  0.00    +0.000 HD
ATOM     66  H   UNL     1      -8.278  -5.678  13.805  0.00  0.00    +0.000 HD
ATOM     67  H   UNL     1      -9.406  -4.511  14.421  0.00  0.00    +0.000 HD
ENDBRANCH  63  64
ENDBRANCH   6  63
TORSDOF 7
ENDMDL
MODEL 3
REMARK VINA RESULT:    -7.456      5.006     10.419
REMARK INTER + INTRA:          -9.913
REMARK INTER:                  -9.489
REMARK INTRA:                  -0.423
REMARK UNBOUND:                -0.277
REMARK  Name = 
REMARK  7 active torsions:
REMARK  status: ('A' for Active; 'I' for Inactive)
REMARK    1  A    between atoms: C_1  and  C_2
REMARK    2  A    between atoms: C_2  and  N_3
REMARK    3  A    between atoms: N_3  and  C_4
REMARK    4  A    between atoms: N_3  and  C_5
REMARK    5  A    between atoms: C_9  and  C_10
REMARK    6  A    between atoms: C_11  and  O_12
REMARK    7  A    between atoms: O_12  and  C_13
REMARK                            x       y       z     vdW  Elec       q    Type
REMARK                         _______ _______ _______ _____ _____    ______ ____
ROOT
ATOM      1  C   UNL     1     -13.572   3.653  20.100  0.00  0.00    +0.000 C 
ATOM      2  C   UNL     1     -13.493   2.173  19.623  0.00  0.00    +0.000 C 
ATOM      3  C   UNL     1     -12.465   1.326  20.354  0.00  0.00    +0.000 C 
ATOM      4  O   UNL     1     -12.599   1.808  21.729  0.00  0.00    +0.000 OA
ATOM      5  C   UNL     1     -11.920   3.087  22.039  0.00  0.00    +0.000 C 
ATOM      6  C   UNL     1     -12.363   4.170  20.986  0.00  0.00    +0.000 C 
ATOM      7  N   UNL     1     -10.463   2.779  22.142  0.00  0.00    +0.000 N 
ATOM      8  C   UNL     1      -9.606   2.885  23.296  0.00  0.00    +0.000 A 
ATOM      9  C   UNL     1      -8.551   3.788  23.558  0.00  0.00    +0.000 A 
ATOM     10  C   UNL     1      -7.601   3.447  24.534  0.00  0.00    +0.000 A 
ATOM     11  C   UNL     1      -7.732   2.312  25.326  0.00  0.00    +0.000 A 
ATOM     12  C   UNL     1      -8.774   1.422  25.127  0.00  0.00    +0.000 A 
ATOM     13  C   UNL     1      -9.618   1.620  24.019  0.00  0.00    +0.000 A 
ATOM     14  C   UNL     1     -10.325   0.679  23.227  0.00  0.00    +0.000 A 
ATOM     15  C   UNL     1     -10.065  -0.684  23.330  0.00  0.00    +0.000 A 
ATOM     16  C   UNL     1      -9.275  -1.212  22.285  0.00  0.00    +0.000 A 
ATOM     17  C   UNL     1      -9.595  -0.483  21.092  0.00  0.00    +0.000 A 
ATOM     18  C   UNL     1     -10.240  -1.148  20.040  0.00  0.00    +0.000 A 
ATOM     19  C   UNL     1     -10.387  -2.504  19.677  0.00  0.00    +0.000 A 
ATOM     20  C   UNL     1     -10.151  -2.767  18.339  0.00  0.00    +0.000 A 
ATOM     21  C   UNL     1      -9.921  -1.705  17.454  0.00  0.00    +0.000 A 
ATOM     22  C   UNL     1     -10.228  -0.365  17.803  0.00  0.00    +0.000 A 
ATOM     23  C   UNL     1     -10.653  -0.121  19.125  0.00  0.00    +0.000 A 
ATOM     24  N   UNL     1     -11.047   1.065  19.885  0.00  0.00    +0.000 N 
ATOM     25  C   UNL     1     -10.154   0.792  20.903  0.00  0.00    +0.000 A 
ATOM     26  C   UNL     1     -10.268   1.463  22.067  0.00  0.00    +0.000 A 
ATOM     27  C   UNL     1      -9.120  -2.617  22.480  0.00  0.00    +0.000 C 
ATOM     28  O   UNL     1      -8.351  -3.450  22.067  0.00  0.00    +0.000 OA
ATOM     29  N   UNL     1     -10.221  -2.912  23.303  0.00  0.00    +0.000 N 
ATOM     30  C   UNL     1     -11.035  -1.757  23.652  0.00  0.00    +0.000 C 
ATOM     31  H   UNL     1     -14.401   3.657  20.831  0.00  0.00    +0.000 HD
ATOM     32  H   UNL     1     -13.519   1.990  18.549  0.00  0.00    +0.000 HD
ATOM     33  H   UNL     1     -14.466   1.767  19.965  0.00  0.00    +0.000 HD
ATOM     34  H   UNL     1     -12.875   0.307  20.383  0.00  0.00    +0.000 HD
ATOM     35  H   UNL     1     -12.776   5.030  21.534  0.00  0.00    +0.000 HD
ATOM     36  H   UNL     1      -8.353   4.645  22.927  0.00  0.00    +0.000 HD
ATOM     37  H   UNL     1      -6.706   4.057  24.637  0.00  0.00    +0.000 HD
ATOM     38  H   UNL     1      -6.960   2.053  26.045  0.00  0.00    +0.000 HD
ATOM     39  H   UNL     1      -8.805   0.476  25.659  0.00  0.00    +0.000 HD
ATOM     40  H   UNL     1     -10.363  -3.307  20.385  0.00  0.00    +0.000 HD
ATOM     41  H   UNL     1     -10.001  -3.802  18.047  0.00  0.00    +0.000 HD
ATOM     42  H   UNL     1      -9.458  -1.942  16.504  0.00  0.00    +0.000 HD
ATOM     43  H   UNL     1     -10.003   0.441  17.110  0.00  0.00    +0.000 HD
ATOM     44  H   UNL     1     -10.505  -3.867  23.396  0.00  0.00    +0.000 HD
ATOM     45  H   UNL     1     -11.873  -1.715  22.939  0.00  0.00    +0.000 HD
ATOM     46  H   UNL     1     -11.399  -1.784  24.680  0.00  0.00    +0.000 HD
ENDROOT
BRANCH   5  47
ATOM     47  C   UNL     1     -12.487   3.461  23.419  0.00  0.00    +0.000 C 
ATOM     48  H   UNL     1     -11.699   3.753  24.115  0.00  0.00    +0.000 HD
ATOM     49  H   UNL     1     -13.042   2.622  23.860  0.00  0.00    +0.000 HD
ATOM     50  H   UNL     1     -13.209   4.281  23.337  0.00  0.00    +0.000 HD
ENDBRANCH   5  47
BRANCH   1  51
ATOM     51  N   UNL     1     -13.948   4.640  19.061  0.00  0.00    +0.000 NA
BRANCH  51  52
ATOM     52  C   UNL     1     -14.368   5.953  19.553  0.00  0.00    +0.000 C 
ATOM     53  H   UNL     1     -14.388   6.675  18.722  0.00  0.00    +0.000 HD
ATOM     54  H   UNL     1     -13.659   6.364  20.270  0.00  0.00    +0.000 HD
ATOM     55  H   UNL     1     -15.363   5.944  20.012  0.00  0.00    +0.000 HD
ENDBRANCH  51  52
BRANCH  51  56
ATOM     56  C   UNL     1     -14.828   4.124  18.011  0.00  0.00    +0.000 C 
ATOM     57  H   UNL     1     -15.612   3.471  18.421  0.00  0.00    +0.000 HD
ATOM     58  H   UNL     1     -14.265   3.525  17.287  0.00  0.00    +0.000 HD
BRANCH  56  59
ATOM     59  C   UNL     1     -15.444   5.279  17.243  0.00  0.00    +0.000 C 
ATOM     60  H   UNL     1     -16.030   4.903  16.401  0.00  0.00    +0.000 HD
ATOM     61  H   UNL     1     -16.108   5.880  17.871  0.00  0.00    +0.000 HD
ATOM     62  H   UNL     1     -14.655   5.929  16.852  0.00  0.00    +0.000 HD
ENDBRANCH  56  59
ENDBRANCH  51  56
ENDBRANCH   1  51
BRANCH   6  63
ATOM     63  O   UNL     1     -11.294   4.695  20.179  0.00  0.00    +0.000 OA
BRANCH  63  64
ATOM     64  C   UNL     1     -10.839   5.968  20.642  0.00  0.00    +0.000 C 
ATOM     65  H   UNL     1     -11.589   6.506  21.233  0.00  0.00    +0.000 HD
ATOM     66  H   UNL     1     -10.538   6.585  19.795  0.00  0.00    +0.000 HD
ATOM     67  H   UNL     1      -9.951   5.828  21.243  0.00  0.00    +0.000 HD
ENDBRANCH  63  64
ENDBRANCH   6  63
TORSDOF 7
ENDMDL
MODEL 4
REMARK VINA RESULT:    -7.278      4.972      9.154
REMARK INTER + INTRA:          -9.682
REMARK INTER:                  -9.287
REMARK INTRA:                  -0.395
REMARK UNBOUND:                -0.277
REMARK  Name = 
REMARK  7 active torsions:
REMARK  status: ('A' for Active; 'I' for Inactive)
REMARK    1  A    between atoms: C_1  and  C_2
REMARK    2  A    between atoms: C_2  and  N_3
REMARK    3  A    between atoms: N_3  and  C_4
REMARK    4  A    between atoms: N_3  and  C_5
REMARK    5  A    between atoms: C_9  and  C_10
REMARK    6  A    between atoms: C_11  and  O_12
REMARK    7  A    between atoms: O_12  and  C_13
REMARK                            x       y       z     vdW  Elec       q    Type
REMARK                         _______ _______ _______ _____ _____    ______ ____
ROOT
ATOM      1  C   UNL     1     -10.641  -0.514  18.365  0.00  0.00    +0.000 C 
ATOM      2  C   UNL     1     -10.924   0.995  18.621  0.00  0.00    +0.000 C 
ATOM      3  C   UNL     1     -10.794   1.426  20.072  0.00  0.00    +0.000 C 
ATOM      4  O   UNL     1      -9.631   0.655  20.514  0.00  0.00    +0.000 OA
ATOM      5  C   UNL     1      -9.881  -0.765  20.849  0.00  0.00    +0.000 C 
ATOM      6  C   UNL     1     -10.625  -1.452  19.643  0.00  0.00    +0.000 C 
ATOM      7  N   UNL     1     -10.564  -0.773  22.176  0.00  0.00    +0.000 N 
ATOM      8  C   UNL     1     -10.089  -1.319  23.423  0.00  0.00    +0.000 A 
ATOM      9  C   UNL     1     -10.546  -2.441  24.150  0.00  0.00    +0.000 A 
ATOM     10  C   UNL     1     -10.222  -2.537  25.513  0.00  0.00    +0.000 A 
ATOM     11  C   UNL     1      -9.375  -1.627  26.135  0.00  0.00    +0.000 A 
ATOM     12  C   UNL     1      -8.874  -0.535  25.446  0.00  0.00    +0.000 A 
ATOM     13  C   UNL     1      -9.350  -0.291  24.145  0.00  0.00    +0.000 A 
ATOM     14  C   UNL     1      -9.520   0.932  23.446  0.00  0.00    +0.000 A 
ATOM     15  C   UNL     1      -9.434   2.153  24.107  0.00  0.00    +0.000 A 
ATOM     16  C   UNL     1     -10.679   2.762  24.380  0.00  0.00    +0.000 A 
ATOM     17  C   UNL     1     -11.568   2.423  23.307  0.00  0.00    +0.000 A 
ATOM     18  C   UNL     1     -12.016   3.435  22.447  0.00  0.00    +0.000 A 
ATOM     19  C   UNL     1     -12.094   4.841  22.541  0.00  0.00    +0.000 A 
ATOM     20  C   UNL     1     -13.305   5.375  22.138  0.00  0.00    +0.000 A 
ATOM     21  C   UNL     1     -14.277   4.540  21.570  0.00  0.00    +0.000 A 
ATOM     22  C   UNL     1     -13.960   3.238  21.105  0.00  0.00    +0.000 A 
ATOM     23  C   UNL     1     -12.656   2.761  21.352  0.00  0.00    +0.000 A 
ATOM     24  N   UNL     1     -11.934   1.521  21.067  0.00  0.00    +0.000 N 
ATOM     25  C   UNL     1     -11.552   1.362  22.386  0.00  0.00    +0.000 A 
ATOM     26  C   UNL     1     -10.595   0.460  22.681  0.00  0.00    +0.000 A 
ATOM     27  C   UNL     1     -10.454   4.021  25.013  0.00  0.00    +0.000 C 
ATOM     28  O   UNL     1     -11.131   4.769  25.674  0.00  0.00    +0.000 OA
ATOM     29  N   UNL     1      -9.136   4.307  24.617  0.00  0.00    +0.000 N 
ATOM     30  C   UNL     1      -8.521   3.277  23.792  0.00  0.00    +0.000 C 
ATOM     31  H   UNL     1      -9.580  -0.542  18.056  0.00  0.00    +0.000 HD
ATOM     32  H   UNL     1     -11.781   1.438  18.114  0.00  0.00    +0.000 HD
ATOM     33  H   UNL     1     -10.064   1.481  18.120  0.00  0.00    +0.000 HD
ATOM     34  H   UNL     1     -10.437   2.465  20.051  0.00  0.00    +0.000 HD
ATOM     35  H   UNL     1     -10.034  -2.326  19.332  0.00  0.00    +0.000 HD
ATOM     36  H   UNL     1     -11.269  -3.139  23.744  0.00  0.00    +0.000 HD
ATOM     37  H   UNL     1     -10.693  -3.310  26.116  0.00  0.00    +0.000 HD
ATOM     38  H   UNL     1      -9.176  -1.703  27.200  0.00  0.00    +0.000 HD
ATOM     39  H   UNL     1      -8.316   0.239  25.965  0.00  0.00    +0.000 HD
ATOM     40  H   UNL     1     -11.436   5.426  23.150  0.00  0.00    +0.000 HD
ATOM     41  H   UNL     1     -13.521   6.403  22.415  0.00  0.00    +0.000 HD
ATOM     42  H   UNL     1     -15.294   4.911  21.539  0.00  0.00    +0.000 HD
ATOM     43  H   UNL     1     -14.743   2.600  20.705  0.00  0.00    +0.000 HD
ATOM     44  H   UNL     1      -8.803   5.246  24.710  0.00  0.00    +0.000 HD
ATOM     45  H   UNL     1      -8.657   3.571  22.740  0.00  0.00    +0.000 HD
ATOM     46  H   UNL     1      -7.466   3.119  24.020  0.00  0.00    +0.000 HD
ENDROOT
BRANCH   5  47
ATOM     47  C   UNL     1      -8.465  -1.353  20.972  0.00  0.00    +0.000 C 
ATOM     48  H   UNL     1      -7.888  -0.858  21.753  0.00  0.00    +0.000 HD
ATOM     49  H   UNL     1      -7.915  -1.260  20.026  0.00  0.00    +0.000 HD
ATOM     50  H   UNL     1      -8.504  -2.427  21.186  0.00  0.00    +0.000 HD
ENDBRANCH   5  47
BRANCH   1  51
ATOM     51  N   UNL     1     -11.400  -1.127  17.249  0.00  0.00    +0.000 NA
BRANCH  51  52
ATOM     52  C   UNL     1     -10.635  -2.013  16.371  0.00  0.00    +0.000 C 
ATOM     53  H   UNL     1     -11.136  -2.991  16.298  0.00  0.00    +0.000 HD
ATOM     54  H   UNL     1      -9.647  -2.230  16.774  0.00  0.00    +0.000 HD
ATOM     55  H   UNL     1     -10.520  -1.620  15.355  0.00  0.00    +0.000 HD
ENDBRANCH  51  52
BRANCH  51  56
ATOM     56  C   UNL     1     -12.257  -0.201  16.507  0.00  0.00    +0.000 C 
ATOM     57  H   UNL     1     -11.680   0.414  15.803  0.00  0.00    +0.000 HD
ATOM     58  H   UNL     1     -12.767   0.492  17.186  0.00  0.00    +0.000 HD
BRANCH  56  59
ATOM     59  C   UNL     1     -13.338  -0.975  15.775  0.00  0.00    +0.000 C 
ATOM     60  H   UNL     1     -13.928  -0.301  15.150  0.00  0.00    +0.000 HD
ATOM     61  H   UNL     1     -12.919  -1.751  15.129  0.00  0.00    +0.000 HD
ATOM     62  H   UNL     1     -14.008  -1.452  16.498  0.00  0.00    +0.000 HD
ENDBRANCH  56  59
ENDBRANCH  51  56
ENDBRANCH   1  51
BRANCH   6  63
ATOM     63  O   UNL     1     -11.936  -1.955  19.955  0.00  0.00    +0.000 OA
BRANCH  63  64
ATOM     64  C   UNL     1     -12.061  -3.352  19.681  0.00  0.00    +0.000 C 
ATOM     65  H   UNL     1     -11.305  -3.962  20.189  0.00  0.00    +0.000 HD
ATOM     66  H   UNL     1     -12.001  -3.525  18.606  0.00  0.00    +0.000 HD
ATOM     67  H   UNL     1     -13.044  -3.684  19.984  0.00  0.00    +0.000 HD
ENDBRANCH  63  64
ENDBRANCH   6  63
TORSDOF 7
ENDMDL
MODEL 5
REMARK VINA RESULT:    -6.928      3.146      7.087
REMARK INTER + INTRA:          -9.230
REMARK INTER:                  -8.734
REMARK INTRA:                  -0.496
REMARK UNBOUND:                -0.277
REMARK  Name = 
REMARK  7 active torsions:
REMARK  status: ('A' for Active; 'I' for Inactive)
REMARK    1  A    between atoms: C_1  and  C_2
REMARK    2  A    between atoms: C_2  and  N_3
REMARK    3  A    between atoms: N_3  and  C_4
REMARK    4  A    between atoms: N_3  and  C_5
REMARK    5  A    between atoms: C_9  and  C_10
REMARK    6  A    between atoms: C_11  and  O_12
REMARK    7  A    between atoms: O_12  and  C_13
REMARK                            x       y       z     vdW  Elec       q    Type
REMARK                         _______ _______ _______ _____ _____    ______ ____
ROOT
ATOM      1  C   UNL     1      -9.294  -1.391  21.176  0.00  0.00    +0.000 C 
ATOM      2  C   UNL     1      -8.884  -2.639  20.340  0.00  0.00    +0.000 C 
ATOM      3  C   UNL     1      -9.383  -2.632  18.906  0.00  0.00    +0.000 C 
ATOM      4  O   UNL     1      -9.222  -1.225  18.536  0.00  0.00    +0.000 OA
ATOM      5  C   UNL     1     -10.274  -0.301  19.017  0.00  0.00    +0.000 C 
ATOM      6  C   UNL     1     -10.449  -0.490  20.571  0.00  0.00    +0.000 C 
ATOM      7  N   UNL     1     -11.470  -0.535  18.155  0.00  0.00    +0.000 N 
ATOM      8  C   UNL     1     -12.106   0.381  17.241  0.00  0.00    +0.000 A 
ATOM      9  C   UNL     1     -13.367   1.013  17.327  0.00  0.00    +0.000 A 
ATOM     10  C   UNL     1     -13.946   1.519  16.152  0.00  0.00    +0.000 A 
ATOM     11  C   UNL     1     -13.271   1.519  14.937  0.00  0.00    +0.000 A 
ATOM     12  C   UNL     1     -12.016   0.944  14.820  0.00  0.00    +0.000 A 
ATOM     13  C   UNL     1     -11.500   0.240  15.923  0.00  0.00    +0.000 A 
ATOM     14  C   UNL     1     -10.627  -0.878  15.969  0.00  0.00    +0.000 A 
ATOM     15  C   UNL     1     -10.333  -1.605  14.819  0.00  0.00    +0.000 A 
ATOM     16  C   UNL     1     -11.023  -2.833  14.707  0.00  0.00    +0.000 A 
ATOM     17  C   UNL     1     -11.198  -3.350  16.034  0.00  0.00    +0.000 A 
ATOM     18  C   UNL     1     -10.529  -4.525  16.401  0.00  0.00    +0.000 A 
ATOM     19  C   UNL     1      -9.941  -5.588  15.681  0.00  0.00    +0.000 A 
ATOM     20  C   UNL     1     -10.272  -6.847  16.147  0.00  0.00    +0.000 A 
ATOM     21  C   UNL     1     -11.025  -6.976  17.322  0.00  0.00    +0.000 A 
ATOM     22  C   UNL     1     -11.195  -5.891  18.219  0.00  0.00    +0.000 A 
ATOM     23  C   UNL     1     -10.687  -4.636  17.824  0.00  0.00    +0.000 A 
ATOM     24  N   UNL     1     -10.653  -3.298  18.414  0.00  0.00    +0.000 N 
ATOM     25  C   UNL     1     -11.201  -2.715  17.287  0.00  0.00    +0.000 A 
ATOM     26  C   UNL     1     -11.163  -1.373  17.166  0.00  0.00    +0.000 A 
ATOM     27  C   UNL     1     -10.601  -3.499  13.518  0.00  0.00    +0.000 C 
ATOM     28  O   UNL     1     -11.055  -4.388  12.840  0.00  0.00    +0.000 OA
ATOM     29  N   UNL     1      -9.354  -2.896  13.282  0.00  0.00    +0.000 N 
ATOM     30  C   UNL     1      -8.992  -1.869  14.248  0.00  0.00    +0.000 C 
ATOM     31  H   UNL     1      -8.422  -0.717  21.100  0.00  0.00    +0.000 HD
ATOM     32  H   UNL     1      -8.964  -3.613  20.821  0.00  0.00    +0.000 HD
ATOM     33  H   UNL     1      -7.788  -2.503  20.243  0.00  0.00    +0.000 HD
ATOM     34  H   UNL     1      -8.620  -3.157  18.314  0.00  0.00    +0.000 HD
ATOM     35  H   UNL     1     -10.309   0.490  21.051  0.00  0.00    +0.000 HD
ATOM     36  H   UNL     1     -13.973   0.976  18.224  0.00  0.00    +0.000 HD
ATOM     37  H   UNL     1     -14.977   1.868  16.179  0.00  0.00    +0.000 HD
ATOM     38  H   UNL     1     -13.761   1.880  14.037  0.00  0.00    +0.000 HD
ATOM     39  H   UNL     1     -11.546   0.834  13.848  0.00  0.00    +0.000 HD
ATOM     40  H   UNL     1      -9.545  -5.479  14.692  0.00  0.00    +0.000 HD
ATOM     41  H   UNL     1     -10.065  -7.695  15.501  0.00  0.00    +0.000 HD
ATOM     42  H   UNL     1     -11.510  -7.928  17.499  0.00  0.00    +0.000 HD
ATOM     43  H   UNL     1     -11.817  -6.011  19.103  0.00  0.00    +0.000 HD
ATOM     44  H   UNL     1      -8.719  -3.344  12.651  0.00  0.00    +0.000 HD
ATOM     45  H   UNL     1      -8.359  -2.344  15.013  0.00  0.00    +0.000 HD
ATOM     46  H   UNL     1      -8.484  -1.016  13.796  0.00  0.00    +0.000 HD
ENDROOT
BRANCH   5  47
ATOM     47  C   UNL     1      -9.677   1.088  18.740  0.00  0.00    +0.000 C 
ATOM     48  H   UNL     1      -9.584   1.679  19.652  0.00  0.00    +0.000 HD
ATOM     49  H   UNL     1     -10.295   1.650  18.027  0.00  0.00    +0.000 HD
ATOM     50  H   UNL     1      -8.690   1.004  18.271  0.00  0.00    +0.000 HD
ENDBRANCH   5  47
BRANCH   1  51
ATOM     51  N   UNL     1      -9.492  -1.630  22.626  0.00  0.00    +0.000 NA
BRANCH  51  52
ATOM     52  C   UNL     1      -9.228  -0.486  23.500  0.00  0.00    +0.000 C 
ATOM     53  H   UNL     1      -8.144  -0.296  23.550  0.00  0.00    +0.000 HD
ATOM     54  H   UNL     1      -9.530  -0.682  24.527  0.00  0.00    +0.000 HD
ATOM     55  H   UNL     1      -9.713   0.436  23.163  0.00  0.00    +0.000 HD
ENDBRANCH  51  52
BRANCH  51  56
ATOM     56  C   UNL     1      -8.904  -2.872  23.131  0.00  0.00    +0.000 C 
ATOM     57  H   UNL     1      -7.885  -3.026  22.749  0.00  0.00    +0.000 HD
ATOM     58  H   UNL     1      -9.493  -3.741  22.816  0.00  0.00    +0.000 HD
BRANCH  56  59
ATOM     59  C   UNL     1      -8.908  -2.863  24.648  0.00  0.00    +0.000 C 
ATOM     60  H   UNL     1      -9.679  -2.184  25.020  0.00  0.00    +0.000 HD
ATOM     61  H   UNL     1      -9.107  -3.855  25.062  0.00  0.00    +0.000 HD
ATOM     62  H   UNL     1      -7.937  -2.520  25.021  0.00  0.00    +0.000 HD
ENDBRANCH  56  59
ENDBRANCH  51  56
ENDBRANCH   1  51
BRANCH   6  63
ATOM     63  O   UNL     1     -11.752  -0.944  20.977  0.00  0.00    +0.000 OA
BRANCH  63  64
ATOM     64  C   UNL     1     -12.503   0.079  21.634  0.00  0.00    +0.000 C 
ATOM     65  H   UNL     1     -12.323   1.079  21.223  0.00  0.00    +0.000 HD
ATOM     66  H   UNL     1     -12.272   0.081  22.700  0.00  0.00    +0.000 HD
ATOM     67  H   UNL     1     -13.556  -0.151  21.556  0.00  0.00    +0.000 HD
ENDBRANCH  63  64
ENDBRANCH   6  63
TORSDOF 7
ENDMDL
MODEL 6
REMARK VINA RESULT:    -6.819      4.260      9.505
REMARK INTER + INTRA:          -9.090
REMARK INTER:                  -8.715
REMARK INTRA:                  -0.376
REMARK UNBOUND:                -0.277
REMARK  Name = 
REMARK  7 active torsions:
REMARK  status: ('A' for Active; 'I' for Inactive)
REMARK    1  A    between atoms: C_1  and  C_2
REMARK    2  A    between atoms: C_2  and  N_3
REMARK    3  A    between atoms: N_3  and  C_4
REMARK    4  A    between atoms: N_3  and  C_5
REMARK    5  A    between atoms: C_9  and  C_10
REMARK    6  A    between atoms: C_11  and  O_12
REMARK    7  A    between atoms: O_12  and  C_13
REMARK                            x       y       z     vdW  Elec       q    Type
REMARK                         _______ _______ _______ _____ _____    ______ ____
ROOT
ATOM      1  C   UNL     1     -11.310   2.145  23.667  0.00  0.00    +0.000 C 
ATOM      2  C   UNL     1     -11.976   2.168  22.260  0.00  0.00    +0.000 C 
ATOM      3  C   UNL     1     -11.481   1.094  21.307  0.00  0.00    +0.000 C 
ATOM      4  O   UNL     1     -11.333  -0.057  22.198  0.00  0.00    +0.000 OA
ATOM      5  C   UNL     1     -10.108  -0.083  23.030  0.00  0.00    +0.000 C 
ATOM      6  C   UNL     1      -9.985   1.285  23.801  0.00  0.00    +0.000 C 
ATOM      7  N   UNL     1      -8.988  -0.466  22.122  0.00  0.00    +0.000 N 
ATOM      8  C   UNL     1      -8.165  -1.649  22.166  0.00  0.00    +0.000 A 
ATOM      9  C   UNL     1      -6.798  -1.787  22.496  0.00  0.00    +0.000 A 
ATOM     10  C   UNL     1      -6.117  -2.940  22.074  0.00  0.00    +0.000 A 
ATOM     11  C   UNL     1      -6.772  -3.995  21.448  0.00  0.00    +0.000 A 
ATOM     12  C   UNL     1      -8.120  -3.915  21.142  0.00  0.00    +0.000 A 
ATOM     13  C   UNL     1      -8.781  -2.692  21.356  0.00  0.00    +0.000 A 
ATOM     14  C   UNL     1      -9.875  -2.109  20.665  0.00  0.00    +0.000 A 
ATOM     15  C   UNL     1     -10.314  -2.627  19.451  0.00  0.00    +0.000 A 
ATOM     16  C   UNL     1      -9.905  -1.893  18.315  0.00  0.00    +0.000 A 
ATOM     17  C   UNL     1      -9.852  -0.510  18.694  0.00  0.00    +0.000 A 
ATOM     18  C   UNL     1     -10.761   0.389  18.120  0.00  0.00    +0.000 A 
ATOM     19  C   UNL     1     -11.561   0.370  16.957  0.00  0.00    +0.000 A 
ATOM     20  C   UNL     1     -11.511   1.534  16.210  0.00  0.00    +0.000 A 
ATOM     21  C   UNL     1     -10.809   2.643  16.700  0.00  0.00    +0.000 A 
ATOM     22  C   UNL     1     -10.412   2.732  18.059  0.00  0.00    +0.000 A 
ATOM     23  C   UNL     1     -10.636   1.605  18.875  0.00  0.00    +0.000 A 
ATOM     24  N   UNL     1     -10.383   1.272  20.277  0.00  0.00    +0.000 N 
ATOM     25  C   UNL     1      -9.717   0.106  19.949  0.00  0.00    +0.000 A 
ATOM     26  C   UNL     1      -9.464  -0.793  20.921  0.00  0.00    +0.000 A 
ATOM     27  C   UNL     1     -10.456  -2.496  17.145  0.00  0.00    +0.000 C 
ATOM     28  O   UNL     1     -10.202  -2.445  15.967  0.00  0.00    +0.000 OA
ATOM     29  N   UNL     1     -11.542  -3.211  17.679  0.00  0.00    +0.000 N 
ATOM     30  C   UNL     1     -11.678  -3.104  19.124  0.00  0.00    +0.000 C 
ATOM     31  H   UNL     1     -12.015   1.565  24.290  0.00  0.00    +0.000 HD
ATOM     32  H   UNL     1     -12.111   3.140  21.785  0.00  0.00    +0.000 HD
ATOM     33  H   UNL     1     -13.016   1.862  22.491  0.00  0.00    +0.000 HD
ATOM     34  H   UNL     1     -12.337   0.834  20.669  0.00  0.00    +0.000 HD
ATOM     35  H   UNL     1      -9.912   1.063  24.877  0.00  0.00    +0.000 HD
ATOM     36  H   UNL     1      -6.218  -0.972  22.912  0.00  0.00    +0.000 HD
ATOM     37  H   UNL     1      -5.036  -2.988  22.187  0.00  0.00    +0.000 HD
ATOM     38  H   UNL     1      -6.211  -4.856  21.095  0.00  0.00    +0.000 HD
ATOM     39  H   UNL     1      -8.599  -4.683  20.544  0.00  0.00    +0.000 HD
ATOM     40  H   UNL     1     -11.919  -0.532  16.505  0.00  0.00    +0.000 HD
ATOM     41  H   UNL     1     -11.894   1.498  15.195  0.00  0.00    +0.000 HD
ATOM     42  H   UNL     1     -10.541   3.414  15.989  0.00  0.00    +0.000 HD
ATOM     43  H   UNL     1      -9.835   3.588  18.400  0.00  0.00    +0.000 HD
ATOM     44  H   UNL     1     -12.256  -3.529  17.054  0.00  0.00    +0.000 HD
ATOM     45  H   UNL     1     -12.402  -2.300  19.330  0.00  0.00    +0.000 HD
ATOM     46  H   UNL     1     -11.988  -4.038  19.595  0.00  0.00    +0.000 HD
ENDROOT
BRANCH   5  47
ATOM     47  C   UNL     1     -10.391  -1.209  24.038  0.00  0.00    +0.000 C 
ATOM     48  H   UNL     1     -10.419  -2.187  23.555  0.00  0.00    +0.000 HD
ATOM     49  H   UNL     1     -11.348  -1.050  24.551  0.00  0.00    +0.000 HD
ATOM     50  H   UNL     1      -9.632  -1.227  24.829  0.00  0.00    +0.000 HD
ENDBRANCH   5  47
BRANCH   1  51
ATOM     51  N   UNL     1     -11.175   3.462  24.332  0.00  0.00    +0.000 NA
BRANCH  51  52
ATOM     52  C   UNL     1     -10.829   3.423  25.754  0.00  0.00    +0.000 C 
ATOM     53  H   UNL     1     -10.919   4.431  26.188  0.00  0.00    +0.000 HD
ATOM     54  H   UNL     1      -9.790   3.138  25.912  0.00  0.00    +0.000 HD
ATOM     55  H   UNL     1     -11.468   2.751  26.336  0.00  0.00    +0.000 HD
ENDBRANCH  51  52
BRANCH  51  56
ATOM     56  C   UNL     1     -12.249   4.412  24.040  0.00  0.00    +0.000 C 
ATOM     57  H   UNL     1     -12.620   4.305  23.011  0.00  0.00    +0.000 HD
ATOM     58  H   UNL     1     -11.897   5.445  24.142  0.00  0.00    +0.000 HD
BRANCH  56  59
ATOM     59  C   UNL     1     -13.380   4.233  25.035  0.00  0.00    +0.000 C 
ATOM     60  H   UNL     1     -12.993   4.254  26.056  0.00  0.00    +0.000 HD
ATOM     61  H   UNL     1     -14.132   5.021  24.945  0.00  0.00    +0.000 HD
ATOM     62  H   UNL     1     -13.869   3.267  24.871  0.00  0.00    +0.000 HD
ENDBRANCH  56  59
ENDBRANCH  51  56
ENDBRANCH   1  51
BRANCH   6  63
ATOM     63  O   UNL     1      -8.812   2.053  23.478  0.00  0.00    +0.000 OA
BRANCH  63  64
ATOM     64  C   UNL     1      -7.835   2.014  24.518  0.00  0.00    +0.000 C 
ATOM     65  H   UNL     1      -8.232   1.650  25.473  0.00  0.00    +0.000 HD
ATOM     66  H   UNL     1      -7.407   3.008  24.663  0.00  0.00    +0.000 HD
ATOM     67  H   UNL     1      -7.017   1.378  24.211  0.00  0.00    +0.000 HD
ENDBRANCH  63  64
ENDBRANCH   6  63
TORSDOF 7
ENDMDL
