MODEL 1
REMARK VINA RESULT:   -10.159      0.000      0.000
REMARK INTER + INTRA:         -12.919
REMARK INTER:                 -12.534
REMARK INTRA:                  -0.384
REMARK UNBOUND:                -0.384
REMARK  Name = 
REMARK  6 active torsions:
REMARK  status: ('A' for Active; 'I' for Inactive)
REMARK    1  A    between atoms: C_1  and  N_2
REMARK    2  A    between atoms: N_2  and  C_3
REMARK    3  A    between atoms: C_7  and  C_8
REMARK    4  A    between atoms: C_9  and  O_10
REMARK    5  A    between atoms: O_10  and  C_11
REMARK    6  A    between atoms: C_35  and  O_36
REMARK                            x       y       z     vdW  Elec       q    Type
REMARK                         _______ _______ _______ _____ _____    ______ ____
ROOT
ATOM      1  C   UNL     1     -11.612  -1.362  17.190  0.00  0.00    +0.000 C 
ATOM      2  C   UNL     1     -11.222  -2.797  16.879  0.00  0.00    +0.000 C 
ATOM      3  C   UNL     1     -11.449  -3.730  18.058  0.00  0.00    +0.000 C 
ATOM      4  O   UNL     1     -11.929  -3.114  19.241  0.00  0.00    +0.000 OA
ATOM      5  C   UNL     1     -11.236  -1.935  19.695  0.00  0.00    +0.000 C 
ATOM      6  C   UNL     1     -11.053  -0.868  18.558  0.00  0.00    +0.000 C 
ATOM      7  N   UNL     1     -10.021  -2.333  20.384  0.00  0.00    +0.000 N 
ATOM      8  C   UNL     1      -9.379  -1.725  21.491  0.00  0.00    +0.000 A 
ATOM      9  C   UNL     1      -9.587  -0.466  22.080  0.00  0.00    +0.000 A 
ATOM     10  C   UNL     1      -9.044  -0.207  23.340  0.00  0.00    +0.000 A 
ATOM     11  C   UNL     1      -8.274  -1.157  23.994  0.00  0.00    +0.000 A 
ATOM     12  C   UNL     1      -7.872  -2.318  23.329  0.00  0.00    +0.000 A 
ATOM     13  C   UNL     1      -8.347  -2.579  22.028  0.00  0.00    +0.000 A 
ATOM     14  C   UNL     1      -8.055  -3.513  21.027  0.00  0.00    +0.000 A 
ATOM     15  C   UNL     1      -6.907  -4.322  20.910  0.00  0.00    +0.000 A 
ATOM     16  C   UNL     1      -6.929  -5.157  19.776  0.00  0.00    +0.000 A 
ATOM     17  C   UNL     1      -8.163  -5.180  19.113  0.00  0.00    +0.000 A 
ATOM     18  C   UNL     1      -8.747  -6.278  18.463  0.00  0.00    +0.000 A 
ATOM     19  C   UNL     1      -8.510  -7.667  18.436  0.00  0.00    +0.000 A 
ATOM     20  C   UNL     1      -9.299  -8.481  17.621  0.00  0.00    +0.000 A 
ATOM     21  C   UNL     1     -10.236  -7.922  16.759  0.00  0.00    +0.000 A 
ATOM     22  C   UNL     1     -10.575  -6.568  16.837  0.00  0.00    +0.000 A 
ATOM     23  C   UNL     1      -9.933  -5.784  17.808  0.00  0.00    +0.000 A 
ATOM     24  N   UNL     1     -10.287  -4.527  18.341  0.00  0.00    +0.000 N 
ATOM     25  C   UNL     1      -9.239  -4.300  19.161  0.00  0.00    +0.000 A 
ATOM     26  C   UNL     1      -9.166  -3.361  20.169  0.00  0.00    +0.000 A 
ATOM     27  C   UNL     1      -5.600  -5.481  19.373  0.00  0.00    +0.000 C 
ATOM     28  O   UNL     1      -5.124  -5.950  18.349  0.00  0.00    +0.000 OA
ATOM     29  N   UNL     1      -4.824  -4.943  20.398  0.00  0.00    +0.000 N 
ATOM     30  C   UNL     1      -5.536  -4.235  21.438  0.00  0.00    +0.000 C 
ATOM     31  H   UNL     1     -12.708  -1.374  17.297  0.00  0.00    +0.000 HD
ATOM     32  H   UNL     1     -11.828  -3.165  16.037  0.00  0.00    +0.000 HD
ATOM     33  H   UNL     1     -10.191  -2.866  16.516  0.00  0.00    +0.000 HD
ATOM     34  H   UNL     1     -12.236  -4.444  17.783  0.00  0.00    +0.000 HD
ATOM     35  H   UNL     1     -11.748  -0.054  18.810  0.00  0.00    +0.000 HD
ATOM     36  H   UNL     1     -10.158   0.305  21.577  0.00  0.00    +0.000 HD
ATOM     37  H   UNL     1      -9.248   0.746  23.819  0.00  0.00    +0.000 HD
ATOM     38  H   UNL     1      -7.947  -0.976  25.014  0.00  0.00    +0.000 HD
ATOM     39  H   UNL     1      -7.224  -3.028  23.835  0.00  0.00    +0.000 HD
ATOM     40  H   UNL     1      -7.780  -8.105  19.109  0.00  0.00    +0.000 HD
ATOM     41  H   UNL     1      -9.162  -9.559  17.653  0.00  0.00    +0.000 HD
ATOM     42  H   UNL     1     -10.753  -8.562  16.047  0.00  0.00    +0.000 HD
ATOM     43  H   UNL     1     -11.351  -6.162  16.195  0.00  0.00    +0.000 HD
ATOM     44  H   UNL     1      -3.818  -4.963  20.330  0.00  0.00    +0.000 HD
ATOM     45  H   UNL     1      -5.404  -4.761  22.384  0.00  0.00    +0.000 HD
ENDROOT
BRANCH   5  46
ATOM     46  C   UNL     1     -12.265  -1.386  20.723  0.00  0.00    +0.000 C 
ATOM     47  H   UNL     1     -12.481  -2.129  21.499  0.00  0.00    +0.000 HD
ATOM     48  H   UNL     1     -13.220  -1.116  20.266  0.00  0.00    +0.000 HD
ATOM     49  H   UNL     1     -11.876  -0.500  21.241  0.00  0.00    +0.000 HD
ENDBRANCH   5  46
BRANCH   1  50
ATOM     50  N   UNL     1     -11.306  -0.544  16.000  0.00  0.00    +0.000 NA
ATOM     51  H   UNL     1     -10.967   0.372  16.296  0.00  0.00    +0.000 HD
BRANCH  50  52
ATOM     52  C   UNL     1     -10.310  -1.159  15.133  0.00  0.00    +0.000 C 
ATOM     53  H   UNL     1      -9.301  -1.071  15.550  0.00  0.00    +0.000 HD
ATOM     54  H   UNL     1     -10.536  -2.211  14.946  0.00  0.00    +0.000 HD
ATOM     55  H   UNL     1     -10.317  -0.653  14.163  0.00  0.00    +0.000 HD
ENDBRANCH  50  52
ENDBRANCH   1  50
BRANCH  30  56
ATOM     56  O   UNL     1      -5.012  -2.939  21.475  0.00  0.00    +0.000 OA
ATOM     57  H   UNL     1      -5.770  -2.348  21.617  0.00  0.00    +0.000 HD
ENDBRANCH  30  56
BRANCH   6  58
ATOM     58  O   UNL     1      -9.819  -0.133  18.527  0.00  0.00    +0.000 OA
BRANCH  58  59
ATOM     59  C   UNL     1      -9.825   1.257  18.795  0.00  0.00    +0.000 C 
ATOM     60  H   UNL     1     -10.213   1.450  19.796  0.00  0.00    +0.000 HD
ATOM     61  H   UNL     1      -8.855   1.734  18.668  0.00  0.00    +0.000 HD
ATOM     62  H   UNL     1     -10.534   1.730  18.110  0.00  0.00    +0.000 HD
ENDBRANCH  58  59
ENDBRANCH   6  58
TORSDOF 6
ENDMDL
MODEL 2
REMARK VINA RESULT:    -9.351      1.855      2.953
REMARK INTER + INTRA:         -11.923
REMARK INTER:                 -11.568
REMARK INTRA:                  -0.355
REMARK UNBOUND:                -0.384
REMARK  Name = 
REMARK  6 active torsions:
REMARK  status: ('A' for Active; 'I' for Inactive)
REMARK    1  A    between atoms: C_1  and  N_2
REMARK    2  A    between atoms: N_2  and  C_3
REMARK    3  A    between atoms: C_7  and  C_8
REMARK    4  A    between atoms: C_9  and  O_10
REMARK    5  A    between atoms: O_10  and  C_11
REMARK    6  A    between atoms: C_35  and  O_36
REMARK                            x       y       z     vdW  Elec       q    Type
REMARK                         _______ _______ _______ _____ _____    ______ ____
ROOT
ATOM      1  C   UNL     1     -10.264  -3.239  13.839  0.00  0.00    +0.000 C 
ATOM      2  C   UNL     1      -9.860  -4.617  14.335  0.00  0.00    +0.000 C 
ATOM      3  C   UNL     1     -10.761  -5.122  15.450  0.00  0.00    +0.000 C 
ATOM      4  O   UNL     1     -11.776  -4.225  15.868  0.00  0.00    +0.000 OA
ATOM      5  C   UNL     1     -11.378  -2.870  16.156  0.00  0.00    +0.000 C 
ATOM      6  C   UNL     1     -10.528  -2.233  14.999  0.00  0.00    +0.000 C 
ATOM      7  N   UNL     1     -10.777  -2.820  17.477  0.00  0.00    +0.000 N 
ATOM      8  C   UNL     1     -10.820  -1.784  18.442  0.00  0.00    +0.000 A 
ATOM      9  C   UNL     1     -11.239  -0.448  18.320  0.00  0.00    +0.000 A 
ATOM     10  C   UNL     1     -11.471   0.300  19.475  0.00  0.00    +0.000 A 
ATOM     11  C   UNL     1     -11.255  -0.244  20.733  0.00  0.00    +0.000 A 
ATOM     12  C   UNL     1     -10.626  -1.484  20.866  0.00  0.00    +0.000 A 
ATOM     13  C   UNL     1     -10.315  -2.237  19.716  0.00  0.00    +0.000 A 
ATOM     14  C   UNL     1      -9.578  -3.398  19.451  0.00  0.00    +0.000 A 
ATOM     15  C   UNL     1      -8.611  -4.011  20.274  0.00  0.00    +0.000 A 
ATOM     16  C   UNL     1      -8.054  -5.172  19.703  0.00  0.00    +0.000 A 
ATOM     17  C   UNL     1      -8.711  -5.607  18.545  0.00  0.00    +0.000 A 
ATOM     18  C   UNL     1      -8.906  -6.936  18.138  0.00  0.00    +0.000 A 
ATOM     19  C   UNL     1      -8.782  -8.198  18.751  0.00  0.00    +0.000 A 
ATOM     20  C   UNL     1      -9.036  -9.351  18.005  0.00  0.00    +0.000 A 
ATOM     21  C   UNL     1      -9.300  -9.266  16.642  0.00  0.00    +0.000 A 
ATOM     22  C   UNL     1      -9.539  -8.034  16.025  0.00  0.00    +0.000 A 
ATOM     23  C   UNL     1      -9.494  -6.880  16.823  0.00  0.00    +0.000 A 
ATOM     24  N   UNL     1     -10.004  -5.587  16.580  0.00  0.00    +0.000 N 
ATOM     25  C   UNL     1      -9.575  -4.939  17.684  0.00  0.00    +0.000 A 
ATOM     26  C   UNL     1     -10.014  -3.716  18.148  0.00  0.00    +0.000 A 
ATOM     27  C   UNL     1      -6.748  -5.404  20.228  0.00  0.00    +0.000 C 
ATOM     28  O   UNL     1      -5.815  -6.111  19.875  0.00  0.00    +0.000 OA
ATOM     29  N   UNL     1      -6.638  -4.440  21.228  0.00  0.00    +0.000 N 
ATOM     30  C   UNL     1      -7.761  -3.541  21.379  0.00  0.00    +0.000 C 
ATOM     31  H   UNL     1     -11.234  -3.383  13.337  0.00  0.00    +0.000 HD
ATOM     32  H   UNL     1      -9.919  -5.336  13.503  0.00  0.00    +0.000 HD
ATOM     33  H   UNL     1      -8.807  -4.644  14.637  0.00  0.00    +0.000 HD
ATOM     34  H   UNL     1     -11.307  -5.998  15.079  0.00  0.00    +0.000 HD
ATOM     35  H   UNL     1     -11.192  -1.499  14.521  0.00  0.00    +0.000 HD
ATOM     36  H   UNL     1     -11.385   0.011  17.349  0.00  0.00    +0.000 HD
ATOM     37  H   UNL     1     -11.846   1.316  19.383  0.00  0.00    +0.000 HD
ATOM     38  H   UNL     1     -11.538   0.319  21.618  0.00  0.00    +0.000 HD
ATOM     39  H   UNL     1     -10.414  -1.873  21.857  0.00  0.00    +0.000 HD
ATOM     40  H   UNL     1      -8.578  -8.267  19.815  0.00  0.00    +0.000 HD
ATOM     41  H   UNL     1      -9.009 -10.320  18.496  0.00  0.00    +0.000 HD
ATOM     42  H   UNL     1      -9.375 -10.180  16.056  0.00  0.00    +0.000 HD
ATOM     43  H   UNL     1      -9.801  -7.992  14.973  0.00  0.00    +0.000 HD
ATOM     44  H   UNL     1      -5.768  -4.326  21.723  0.00  0.00    +0.000 HD
ATOM     45  H   UNL     1      -8.210  -3.691  22.362  0.00  0.00    +0.000 HD
ENDROOT
BRANCH   5  46
ATOM     46  C   UNL     1     -12.767  -2.173  16.185  0.00  0.00    +0.000 C 
ATOM     47  H   UNL     1     -13.201  -2.201  17.191  0.00  0.00    +0.000 HD
ATOM     48  H   UNL     1     -13.492  -2.637  15.513  0.00  0.00    +0.000 HD
ATOM     49  H   UNL     1     -12.686  -1.112  15.914  0.00  0.00    +0.000 HD
ENDBRANCH   5  46
BRANCH   1  50
ATOM     50  N   UNL     1      -9.299  -2.833  12.798  0.00  0.00    +0.000 NA
ATOM     51  H   UNL     1      -8.978  -3.659  12.292  0.00  0.00    +0.000 HD
BRANCH  50  52
ATOM     52  C   UNL     1      -9.862  -1.885  11.846  0.00  0.00    +0.000 C 
ATOM     53  H   UNL     1     -10.681  -1.307  12.286  0.00  0.00    +0.000 HD
ATOM     54  H   UNL     1      -9.100  -1.202  11.461  0.00  0.00    +0.000 HD
ATOM     55  H   UNL     1     -10.262  -2.434  10.988  0.00  0.00    +0.000 HD
ENDBRANCH  50  52
ENDBRANCH   1  50
BRANCH  30  56
ATOM     56  O   UNL     1      -7.265  -2.244  21.216  0.00  0.00    +0.000 OA
ATOM     57  H   UNL     1      -6.304  -2.306  21.346  0.00  0.00    +0.000 HD
ENDBRANCH  30  56
BRANCH   6  58
ATOM     58  O   UNL     1      -9.440  -1.371  15.370  0.00  0.00    +0.000 OA
BRANCH  58  59
ATOM     59  C   UNL     1      -9.515   0.013  15.083  0.00  0.00    +0.000 C 
ATOM     60  H   UNL     1      -9.596   0.174  14.007  0.00  0.00    +0.000 HD
ATOM     61  H   UNL     1     -10.321   0.528  15.603  0.00  0.00    +0.000 HD
ATOM     62  H   UNL     1      -8.566   0.471  15.377  0.00  0.00    +0.000 HD
ENDBRANCH  58  59
ENDBRANCH   6  58
TORSDOF 6
ENDMDL
MODEL 3
REMARK VINA RESULT:    -8.390      1.282      1.475
REMARK INTER + INTRA:         -10.736
REMARK INTER:                 -10.366
REMARK INTRA:                  -0.370
REMARK UNBOUND:                -0.384
REMARK  Name = 
REMARK  6 active torsions:
REMARK  status: ('A' for Active; 'I' for Inactive)
REMARK    1  A    between atoms: C_1  and  N_2
REMARK    2  A    between atoms: N_2  and  C_3
REMARK    3  A    between atoms: C_7  and  C_8
REMARK    4  A    between atoms: C_9  and  O_10
REMARK    5  A    between atoms: O_10  and  C_11
REMARK    6  A    between atoms: C_35  and  O_36
REMARK                            x       y       z     vdW  Elec       q    Type
REMARK                         _______ _______ _______ _____ _____    ______ ____
ROOT
ATOM      1  C   UNL     1     -10.734  -2.553  15.468  0.00  0.00    +0.000 C 
ATOM      2  C   UNL     1     -10.330  -4.009  15.637  0.00  0.00    +0.000 C 
ATOM      3  C   UNL     1     -10.868  -4.617  16.921  0.00  0.00    +0.000 C 
ATOM      4  O   UNL     1     -11.599  -3.734  17.756  0.00  0.00    +0.000 OA
ATOM      5  C   UNL     1     -10.998  -2.459  18.050  0.00  0.00    +0.000 C 
ATOM      6  C   UNL     1     -10.508  -1.711  16.759  0.00  0.00    +0.000 C 
ATOM      7  N   UNL     1     -10.001  -2.632  19.092  0.00  0.00    +0.000 N 
ATOM      8  C   UNL     1      -9.627  -1.743  20.130  0.00  0.00    +0.000 A 
ATOM      9  C   UNL     1      -9.929  -0.383  20.312  0.00  0.00    +0.000 A 
ATOM     10  C   UNL     1      -9.700   0.204  21.557  0.00  0.00    +0.000 A 
ATOM     11  C   UNL     1      -9.145  -0.525  22.599  0.00  0.00    +0.000 A 
ATOM     12  C   UNL     1      -8.633  -1.804  22.369  0.00  0.00    +0.000 A 
ATOM     13  C   UNL     1      -8.786  -2.401  21.101  0.00  0.00    +0.000 A 
ATOM     14  C   UNL     1      -8.292  -3.551  20.473  0.00  0.00    +0.000 A 
ATOM     15  C   UNL     1      -7.178  -4.328  20.849  0.00  0.00    +0.000 A 
ATOM     16  C   UNL     1      -6.952  -5.424  19.993  0.00  0.00    +0.000 A 
ATOM     17  C   UNL     1      -7.988  -5.652  19.078  0.00  0.00    +0.000 A 
ATOM     18  C   UNL     1      -8.434  -6.896  18.606  0.00  0.00    +0.000 A 
ATOM     19  C   UNL     1      -8.245  -8.238  18.991  0.00  0.00    +0.000 A 
ATOM     20  C   UNL     1      -8.839  -9.256  18.243  0.00  0.00    +0.000 A 
ATOM     21  C   UNL     1      -9.519  -8.963  17.065  0.00  0.00    +0.000 A 
ATOM     22  C   UNL     1      -9.821  -7.644  16.712  0.00  0.00    +0.000 A 
ATOM     23  C   UNL     1      -9.407  -6.620  17.578  0.00  0.00    +0.000 A 
ATOM     24  N   UNL     1      -9.837  -5.280  17.672  0.00  0.00    +0.000 N 
ATOM     25  C   UNL     1      -9.013  -4.821  18.638  0.00  0.00    +0.000 A 
ATOM     26  C   UNL     1      -9.155  -3.655  19.361  0.00  0.00    +0.000 A 
ATOM     27  C   UNL     1      -5.577  -5.800  20.022  0.00  0.00    +0.000 C 
ATOM     28  O   UNL     1      -4.883  -6.500  19.299  0.00  0.00    +0.000 OA
ATOM     29  N   UNL     1      -5.055  -4.996  21.034  0.00  0.00    +0.000 N 
ATOM     30  C   UNL     1      -5.974  -4.069  21.655  0.00  0.00    +0.000 C 
ATOM     31  H   UNL     1     -11.823  -2.571  15.305  0.00  0.00    +0.000 HD
ATOM     32  H   UNL     1     -10.725  -4.596  14.794  0.00  0.00    +0.000 HD
ATOM     33  H   UNL     1      -9.244  -4.137  15.565  0.00  0.00    +0.000 HD
ATOM     34  H   UNL     1     -11.588  -5.400  16.654  0.00  0.00    +0.000 HD
ATOM     35  H   UNL     1     -11.215  -0.881  16.619  0.00  0.00    +0.000 HD
ATOM     36  H   UNL     1     -10.334   0.218  19.506  0.00  0.00    +0.000 HD
ATOM     37  H   UNL     1      -9.982   1.241  21.715  0.00  0.00    +0.000 HD
ATOM     38  H   UNL     1      -9.069  -0.081  23.587  0.00  0.00    +0.000 HD
ATOM     39  H   UNL     1      -8.152  -2.342  23.180  0.00  0.00    +0.000 HD
ATOM     40  H   UNL     1      -7.716  -8.470  19.910  0.00  0.00    +0.000 HD
ATOM     41  H   UNL     1      -8.751 -10.286  18.580  0.00  0.00    +0.000 HD
ATOM     42  H   UNL     1      -9.869  -9.778  16.435  0.00  0.00    +0.000 HD
ATOM     43  H   UNL     1     -10.403  -7.438  15.819  0.00  0.00    +0.000 HD
ATOM     44  H   UNL     1      -4.065  -5.003  21.221  0.00  0.00    +0.000 HD
ATOM     45  H   UNL     1      -6.094  -4.332  22.706  0.00  0.00    +0.000 HD
ENDROOT
BRANCH   5  46
ATOM     46  C   UNL     1     -12.227  -1.698  18.622  0.00  0.00    +0.000 C 
ATOM     47  H   UNL     1     -11.912  -0.847  19.237  0.00  0.00    +0.000 HD
ATOM     48  H   UNL     1     -12.863  -2.326  19.250  0.00  0.00    +0.000 HD
ATOM     49  H   UNL     1     -12.848  -1.284  17.817  0.00  0.00    +0.000 HD
ENDBRANCH   5  46
BRANCH   1  50
ATOM     50  N   UNL     1     -10.121  -2.056  14.221  0.00  0.00    +0.000 NA
ATOM     51  H   UNL     1      -9.562  -1.227  14.425  0.00  0.00    +0.000 HD
BRANCH  50  52
ATOM     52  C   UNL     1      -9.273  -3.049  13.574  0.00  0.00    +0.000 C 
ATOM     53  H   UNL     1      -9.581  -3.231  12.539  0.00  0.00    +0.000 HD
ATOM     54  H   UNL     1      -8.221  -2.753  13.594  0.00  0.00    +0.000 HD
ATOM     55  H   UNL     1      -9.349  -3.995  14.118  0.00  0.00    +0.000 HD
ENDBRANCH  50  52
ENDBRANCH   1  50
BRANCH  30  56
ATOM     56  O   UNL     1      -5.431  -2.791  21.488  0.00  0.00    +0.000 OA
ATOM     57  H   UNL     1      -4.711  -2.888  20.844  0.00  0.00    +0.000 HD
ENDBRANCH  30  56
BRANCH   6  58
ATOM     58  O   UNL     1      -9.279  -0.972  16.845  0.00  0.00    +0.000 OA
BRANCH  58  59
ATOM     59  C   UNL     1      -9.303   0.440  16.745  0.00  0.00    +0.000 C 
ATOM     60  H   UNL     1      -9.906   0.750  15.890  0.00  0.00    +0.000 HD
ATOM     61  H   UNL     1      -9.645   0.940  17.649  0.00  0.00    +0.000 HD
ATOM     62  H   UNL     1      -8.287   0.781  16.525  0.00  0.00    +0.000 HD
ENDBRANCH  58  59
ENDBRANCH   6  58
TORSDOF 6
ENDMDL
MODEL 4
REMARK VINA RESULT:    -8.127      1.393      1.807
REMARK INTER + INTRA:         -10.412
REMARK INTER:                 -10.065
REMARK INTRA:                  -0.348
REMARK UNBOUND:                -0.384
REMARK  Name = 
REMARK  6 active torsions:
REMARK  status: ('A' for Active; 'I' for Inactive)
REMARK    1  A    between atoms: C_1  and  N_2
REMARK    2  A    between atoms: N_2  and  C_3
REMARK    3  A    between atoms: C_7  and  C_8
REMARK    4  A    between atoms: C_9  and  O_10
REMARK    5  A    between atoms: O_10  and  C_11
REMARK    6  A    between atoms: C_35  and  O_36
REMARK                            x       y       z     vdW  Elec       q    Type
REMARK                         _______ _______ _______ _____ _____    ______ ____
ROOT
ATOM      1  C   UNL     1     -10.385  -1.506  15.301  0.00  0.00    +0.000 C 
ATOM      2  C   UNL     1     -10.057  -2.967  15.556  0.00  0.00    +0.000 C 
ATOM      3  C   UNL     1     -10.835  -3.543  16.728  0.00  0.00    +0.000 C 
ATOM      4  O   UNL     1     -11.683  -2.630  17.405  0.00  0.00    +0.000 OA
ATOM      5  C   UNL     1     -11.113  -1.364  17.790  0.00  0.00    +0.000 C 
ATOM      6  C   UNL     1     -10.377  -0.649  16.602  0.00  0.00    +0.000 C 
ATOM      7  N   UNL     1     -10.327  -1.545  18.998  0.00  0.00    +0.000 N 
ATOM      8  C   UNL     1     -10.126  -0.649  20.078  0.00  0.00    +0.000 A 
ATOM      9  C   UNL     1     -10.420   0.720  20.186  0.00  0.00    +0.000 A 
ATOM     10  C   UNL     1     -10.407   1.322  21.445  0.00  0.00    +0.000 A 
ATOM     11  C   UNL     1     -10.070   0.596  22.579  0.00  0.00    +0.000 A 
ATOM     12  C   UNL     1      -9.558  -0.698  22.460  0.00  0.00    +0.000 A 
ATOM     13  C   UNL     1      -9.493  -1.311  21.193  0.00  0.00    +0.000 A 
ATOM     14  C   UNL     1      -8.923  -2.482  20.678  0.00  0.00    +0.000 A 
ATOM     15  C   UNL     1      -7.916  -3.279  21.259  0.00  0.00    +0.000 A 
ATOM     16  C   UNL     1      -7.567  -4.393  20.471  0.00  0.00    +0.000 A 
ATOM     17  C   UNL     1      -8.424  -4.611  19.385  0.00  0.00    +0.000 A 
ATOM     18  C   UNL     1      -8.809  -5.852  18.854  0.00  0.00    +0.000 A 
ATOM     19  C   UNL     1      -8.728  -7.192  19.281  0.00  0.00    +0.000 A 
ATOM     20  C   UNL     1      -9.202  -8.207  18.449  0.00  0.00    +0.000 A 
ATOM     21  C   UNL     1      -9.648  -7.916  17.164  0.00  0.00    +0.000 A 
ATOM     22  C   UNL     1      -9.846  -6.597  16.747  0.00  0.00    +0.000 A 
ATOM     23  C   UNL     1      -9.571  -5.569  17.662  0.00  0.00    +0.000 A 
ATOM     24  N   UNL     1      -9.976  -4.218  17.662  0.00  0.00    +0.000 N 
ATOM     25  C   UNL     1      -9.330  -3.764  18.756  0.00  0.00    +0.000 A 
ATOM     26  C   UNL     1      -9.571  -2.583  19.428  0.00  0.00    +0.000 A 
ATOM     27  C   UNL     1      -6.230  -4.801  20.755  0.00  0.00    +0.000 C 
ATOM     28  O   UNL     1      -5.434  -5.528  20.178  0.00  0.00    +0.000 OA
ATOM     29  N   UNL     1      -5.880  -3.994  21.836  0.00  0.00    +0.000 N 
ATOM     30  C   UNL     1      -6.873  -3.035  22.268  0.00  0.00    +0.000 C 
ATOM     31  H   UNL     1     -11.427  -1.500  14.942  0.00  0.00    +0.000 HD
ATOM     32  H   UNL     1     -10.306  -3.559  14.662  0.00  0.00    +0.000 HD
ATOM     33  H   UNL     1      -8.980  -3.122  15.686  0.00  0.00    +0.000 HD
ATOM     34  H   UNL     1     -11.515  -4.313  16.342  0.00  0.00    +0.000 HD
ATOM     35  H   UNL     1     -11.025   0.195  16.327  0.00  0.00    +0.000 HD
ATOM     36  H   UNL     1     -10.656   1.318  19.313  0.00  0.00    +0.000 HD
ATOM     37  H   UNL     1     -10.686   2.368  21.537  0.00  0.00    +0.000 HD
ATOM     38  H   UNL     1     -10.164   1.054  23.560  0.00  0.00    +0.000 HD
ATOM     39  H   UNL     1      -9.247  -1.235  23.352  0.00  0.00    +0.000 HD
ATOM     40  H   UNL     1      -8.381  -7.421  20.284  0.00  0.00    +0.000 HD
ATOM     41  H   UNL     1      -9.203  -9.233  18.807  0.00  0.00    +0.000 HD
ATOM     42  H   UNL     1      -9.898  -8.733  16.490  0.00  0.00    +0.000 HD
ATOM     43  H   UNL     1     -10.250  -6.391  15.761  0.00  0.00    +0.000 HD
ATOM     44  H   UNL     1      -4.941  -4.021  22.200  0.00  0.00    +0.000 HD
ATOM     45  H   UNL     1      -7.189  -3.280  23.283  0.00  0.00    +0.000 HD
ENDROOT
BRANCH   5  46
ATOM     46  C   UNL     1     -12.405  -0.566  18.120  0.00  0.00    +0.000 C 
ATOM     47  H   UNL     1     -12.479   0.337  17.503  0.00  0.00    +0.000 HD
ATOM     48  H   UNL     1     -12.452  -0.244  19.163  0.00  0.00    +0.000 HD
ATOM     49  H   UNL     1     -13.304  -1.159  17.908  0.00  0.00    +0.000 HD
ENDBRANCH   5  46
BRANCH   1  50
ATOM     50  N   UNL     1      -9.543  -1.043  14.181  0.00  0.00    +0.000 NA
ATOM     51  H   UNL     1      -8.808  -0.431  14.539  0.00  0.00    +0.000 HD
BRANCH  50  52
ATOM     52  C   UNL     1      -8.926  -2.140  13.448  0.00  0.00    +0.000 C 
ATOM     53  H   UNL     1      -8.445  -1.792  12.528  0.00  0.00    +0.000 HD
ATOM     54  H   UNL     1      -8.195  -2.672  14.061  0.00  0.00    +0.000 HD
ATOM     55  H   UNL     1      -9.697  -2.864  13.170  0.00  0.00    +0.000 HD
ENDBRANCH  50  52
ENDBRANCH   1  50
BRANCH  30  56
ATOM     56  O   UNL     1      -6.276  -1.773  22.189  0.00  0.00    +0.000 OA
ATOM     57  H   UNL     1      -7.001  -1.142  22.051  0.00  0.00    +0.000 HD
ENDBRANCH  30  56
BRANCH   6  58
ATOM     58  O   UNL     1      -9.165   0.063  16.903  0.00  0.00    +0.000 OA
BRANCH  58  59
ATOM     59  C   UNL     1      -9.135   1.474  16.789  0.00  0.00    +0.000 C 
ATOM     60  H   UNL     1      -8.662   1.770  15.852  0.00  0.00    +0.000 HD
ATOM     61  H   UNL     1     -10.112   1.944  16.884  0.00  0.00    +0.000 HD
ATOM     62  H   UNL     1      -8.487   1.862  17.580  0.00  0.00    +0.000 HD
ENDBRANCH  58  59
ENDBRANCH   6  58
TORSDOF 6
ENDMDL
MODEL 5
REMARK VINA RESULT:    -7.749      1.882      5.488
REMARK INTER + INTRA:          -9.946
REMARK INTER:                  -9.616
REMARK INTRA:                  -0.329
REMARK UNBOUND:                -0.384
REMARK  Name = 
REMARK  6 active torsions:
REMARK  status: ('A' for Active; 'I' for Inactive)
REMARK    1  A    between atoms: C_1  and  N_2
REMARK    2  A    between atoms: N_2  and  C_3
REMARK    3  A    between atoms: C_7  and  C_8
REMARK    4  A    between atoms: C_9  and  O_10
REMARK    5  A    between atoms: O_10  and  C_11
REMARK    6  A    between atoms: C_35  and  O_36
REMARK                            x       y       z     vdW  Elec       q    Type
REMARK                         _______ _______ _______ _____ _____    ______ ____
ROOT
ATOM      1  C   UNL     1      -9.857  -0.831  22.734  0.00  0.00    +0.000 C 
ATOM      2  C   UNL     1      -8.809  -1.915  22.548  0.00  0.00    +0.000 C 
ATOM      3  C   UNL     1      -8.039  -1.763  21.246  0.00  0.00    +0.000 C 
ATOM      4  O   UNL     1      -8.450  -0.690  20.416  0.00  0.00    +0.000 OA
ATOM      5  C   UNL     1      -9.860  -0.566  20.150  0.00  0.00    +0.000 C 
ATOM      6  C   UNL     1     -10.726  -0.607  21.459  0.00  0.00    +0.000 C 
ATOM      7  N   UNL     1     -10.236  -1.518  19.120  0.00  0.00    +0.000 N 
ATOM      8  C   UNL     1     -11.213  -1.398  18.101  0.00  0.00    +0.000 A 
ATOM      9  C   UNL     1     -12.239  -0.451  17.937  0.00  0.00    +0.000 A 
ATOM     10  C   UNL     1     -12.887  -0.357  16.705  0.00  0.00    +0.000 A 
ATOM     11  C   UNL     1     -12.560  -1.209  15.660  0.00  0.00    +0.000 A 
ATOM     12  C   UNL     1     -11.709  -2.296  15.877  0.00  0.00    +0.000 A 
ATOM     13  C   UNL     1     -11.090  -2.460  17.132  0.00  0.00    +0.000 A 
ATOM     14  C   UNL     1     -10.334  -3.464  17.749  0.00  0.00    +0.000 A 
ATOM     15  C   UNL     1     -10.234  -4.819  17.377  0.00  0.00    +0.000 A 
ATOM     16  C   UNL     1      -9.383  -5.564  18.218  0.00  0.00    +0.000 A 
ATOM     17  C   UNL     1      -8.644  -4.781  19.115  0.00  0.00    +0.000 A 
ATOM     18  C   UNL     1      -7.336  -5.022  19.560  0.00  0.00    +0.000 A 
ATOM     19  C   UNL     1      -6.281  -5.864  19.156  0.00  0.00    +0.000 A 
ATOM     20  C   UNL     1      -5.087  -5.862  19.879  0.00  0.00    +0.000 A 
ATOM     21  C   UNL     1      -4.972  -5.122  21.051  0.00  0.00    +0.000 A 
ATOM     22  C   UNL     1      -5.950  -4.194  21.422  0.00  0.00    +0.000 A 
ATOM     23  C   UNL     1      -7.061  -4.038  20.578  0.00  0.00    +0.000 A 
ATOM     24  N   UNL     1      -8.003  -2.991  20.499  0.00  0.00    +0.000 N 
ATOM     25  C   UNL     1      -8.835  -3.475  19.553  0.00  0.00    +0.000 A 
ATOM     26  C   UNL     1      -9.786  -2.767  18.847  0.00  0.00    +0.000 A 
ATOM     27  C   UNL     1      -9.753  -6.941  18.202  0.00  0.00    +0.000 C 
ATOM     28  O   UNL     1      -9.484  -7.890  18.924  0.00  0.00    +0.000 OA
ATOM     29  N   UNL     1     -10.731  -6.990  17.211  0.00  0.00    +0.000 N 
ATOM     30  C   UNL     1     -11.081  -5.731  16.592  0.00  0.00    +0.000 C 
ATOM     31  H   UNL     1      -9.290   0.101  22.881  0.00  0.00    +0.000 HD
ATOM     32  H   UNL     1      -8.085  -1.868  23.375  0.00  0.00    +0.000 HD
ATOM     33  H   UNL     1      -9.245  -2.917  22.632  0.00  0.00    +0.000 HD
ATOM     34  H   UNL     1      -6.994  -1.535  21.490  0.00  0.00    +0.000 HD
ATOM     35  H   UNL     1     -11.082   0.423  21.603  0.00  0.00    +0.000 HD
ATOM     36  H   UNL     1     -12.536   0.205  18.747  0.00  0.00    +0.000 HD
ATOM     37  H   UNL     1     -13.644   0.409  16.560  0.00  0.00    +0.000 HD
ATOM     38  H   UNL     1     -13.003  -1.054  14.680  0.00  0.00    +0.000 HD
ATOM     39  H   UNL     1     -11.505  -2.986  15.063  0.00  0.00    +0.000 HD
ATOM     40  H   UNL     1      -6.367  -6.441  18.241  0.00  0.00    +0.000 HD
ATOM     41  H   UNL     1      -4.249  -6.459  19.527  0.00  0.00    +0.000 HD
ATOM     42  H   UNL     1      -4.079  -5.229  21.663  0.00  0.00    +0.000 HD
ATOM     43  H   UNL     1      -5.816  -3.584  22.309  0.00  0.00    +0.000 HD
ATOM     44  H   UNL     1     -11.229  -7.849  17.039  0.00  0.00    +0.000 HD
ATOM     45  H   UNL     1     -10.815  -5.765  15.535  0.00  0.00    +0.000 HD
ENDROOT
BRANCH   5  46
ATOM     46  C   UNL     1      -9.909   0.876  19.573  0.00  0.00    +0.000 C 
ATOM     47  H   UNL     1      -8.906   1.228  19.305  0.00  0.00    +0.000 HD
ATOM     48  H   UNL     1     -10.324   1.602  20.276  0.00  0.00    +0.000 HD
ATOM     49  H   UNL     1     -10.507   0.916  18.653  0.00  0.00    +0.000 HD
ENDBRANCH   5  46
BRANCH   1  50
ATOM     50  N   UNL     1     -10.570  -1.104  23.997  0.00  0.00    +0.000 NA
ATOM     51  H   UNL     1     -11.540  -0.799  23.913  0.00  0.00    +0.000 HD
BRANCH  50  52
ATOM     52  C   UNL     1     -10.549  -2.515  24.363  0.00  0.00    +0.000 C 
ATOM     53  H   UNL     1     -11.510  -2.999  24.160  0.00  0.00    +0.000 HD
ATOM     54  H   UNL     1      -9.754  -3.053  23.842  0.00  0.00    +0.000 HD
ATOM     55  H   UNL     1     -10.348  -2.605  25.434  0.00  0.00    +0.000 HD
ENDBRANCH  50  52
ENDBRANCH   1  50
BRANCH  30  56
ATOM     56  O   UNL     1     -12.455  -5.554  16.787  0.00  0.00    +0.000 OA
ATOM     57  H   UNL     1     -12.694  -4.751  16.295  0.00  0.00    +0.000 HD
ENDBRANCH  30  56
BRANCH   6  58
ATOM     58  O   UNL     1     -11.986  -1.295  21.403  0.00  0.00    +0.000 OA
BRANCH  58  59
ATOM     59  C   UNL     1     -13.176  -0.604  21.733  0.00  0.00    +0.000 C 
ATOM     60  H   UNL     1     -13.129   0.426  21.376  0.00  0.00    +0.000 HD
ATOM     61  H   UNL     1     -14.081  -1.087  21.371  0.00  0.00    +0.000 HD
ATOM     62  H   UNL     1     -13.235  -0.533  22.823  0.00  0.00    +0.000 HD
ENDBRANCH  58  59
ENDBRANCH   6  58
TORSDOF 6
ENDMDL
MODEL 6
REMARK VINA RESULT:    -7.174      2.570      6.207
REMARK INTER + INTRA:          -9.236
REMARK INTER:                  -8.899
REMARK INTRA:                  -0.337
REMARK UNBOUND:                -0.384
REMARK  Name = 
REMARK  6 active torsions:
REMARK  status: ('A' for Active; 'I' for Inactive)
REMARK    1  A    between atoms: C_1  and  N_2
REMARK    2  A    between atoms: N_2  and  C_3
REMARK    3  A    between atoms: C_7  and  C_8
REMARK    4  A    between atoms: C_9  and  O_10
REMARK    5  A    between atoms: O_10  and  C_11
REMARK    6  A    between atoms: C_35  and  O_36
REMARK                            x       y       z     vdW  Elec       q    Type
REMARK                         _______ _______ _______ _____ _____    ______ ____
ROOT
ATOM      1  C   UNL     1     -11.799   1.318  18.978  0.00  0.00    +0.000 C 
ATOM      2  C   UNL     1     -11.040   0.264  19.766  0.00  0.00    +0.000 C 
ATOM      3  C   UNL     1      -9.736  -0.137  19.096  0.00  0.00    +0.000 C 
ATOM      4  O   UNL     1      -9.472   0.486  17.850  0.00  0.00    +0.000 OA
ATOM      5  C   UNL     1     -10.531   0.476  16.873  0.00  0.00    +0.000 C 
ATOM      6  C   UNL     1     -11.897   0.981  17.460  0.00  0.00    +0.000 C 
ATOM      7  N   UNL     1     -10.568  -0.823  16.225  0.00  0.00    +0.000 N 
ATOM      8  C   UNL     1     -10.902  -1.147  14.887  0.00  0.00    +0.000 A 
ATOM      9  C   UNL     1     -11.506  -0.365  13.888  0.00  0.00    +0.000 A 
ATOM     10  C   UNL     1     -11.463  -0.801  12.563  0.00  0.00    +0.000 A 
ATOM     11  C   UNL     1     -10.869  -2.010  12.229  0.00  0.00    +0.000 A 
ATOM     12  C   UNL     1     -10.470  -2.899  13.229  0.00  0.00    +0.000 A 
ATOM     13  C   UNL     1     -10.563  -2.517  14.583  0.00  0.00    +0.000 A 
ATOM     14  C   UNL     1     -10.416  -3.164  15.816  0.00  0.00    +0.000 A 
ATOM     15  C   UNL     1     -10.439  -4.550  16.070  0.00  0.00    +0.000 A 
ATOM     16  C   UNL     1     -10.261  -4.867  17.431  0.00  0.00    +0.000 A 
ATOM     17  C   UNL     1      -9.885  -3.775  18.224  0.00  0.00    +0.000 A 
ATOM     18  C   UNL     1      -9.023  -3.797  19.330  0.00  0.00    +0.000 A 
ATOM     19  C   UNL     1      -8.105  -4.723  19.866  0.00  0.00    +0.000 A 
ATOM     20  C   UNL     1      -7.421  -4.409  21.041  0.00  0.00    +0.000 A 
ATOM     21  C   UNL     1      -7.718  -3.245  21.742  0.00  0.00    +0.000 A 
ATOM     22  C   UNL     1      -8.537  -2.255  21.190  0.00  0.00    +0.000 A 
ATOM     23  C   UNL     1      -9.060  -2.475  19.906  0.00  0.00    +0.000 A 
ATOM     24  N   UNL     1      -9.611  -1.565  18.980  0.00  0.00    +0.000 N 
ATOM     25  C   UNL     1      -9.981  -2.407  17.993  0.00  0.00    +0.000 A 
ATOM     26  C   UNL     1     -10.316  -2.067  16.698  0.00  0.00    +0.000 A 
ATOM     27  C   UNL     1     -10.859  -6.127  17.728  0.00  0.00    +0.000 C 
ATOM     28  O   UNL     1     -11.167  -6.685  18.772  0.00  0.00    +0.000 OA
ATOM     29  N   UNL     1     -11.242  -6.595  16.472  0.00  0.00    +0.000 N 
ATOM     30  C   UNL     1     -10.988  -5.713  15.355  0.00  0.00    +0.000 C 
ATOM     31  H   UNL     1     -11.186   2.231  19.046  0.00  0.00    +0.000 HD
ATOM     32  H   UNL     1     -10.798   0.659  20.764  0.00  0.00    +0.000 HD
ATOM     33  H   UNL     1     -11.663  -0.614  19.971  0.00  0.00    +0.000 HD
ATOM     34  H   UNL     1      -8.907   0.180  19.741  0.00  0.00    +0.000 HD
ATOM     35  H   UNL     1     -12.054   1.974  17.014  0.00  0.00    +0.000 HD
ATOM     36  H   UNL     1     -12.004   0.568  14.127  0.00  0.00    +0.000 HD
ATOM     37  H   UNL     1     -11.882  -0.171  11.783  0.00  0.00    +0.000 HD
ATOM     38  H   UNL     1     -10.755  -2.283  11.183  0.00  0.00    +0.000 HD
ATOM     39  H   UNL     1     -10.057  -3.865  12.953  0.00  0.00    +0.000 HD
ATOM     40  H   UNL     1      -7.870  -5.631  19.319  0.00  0.00    +0.000 HD
ATOM     41  H   UNL     1      -6.663  -5.092  21.415  0.00  0.00    +0.000 HD
ATOM     42  H   UNL     1      -7.263  -3.079  22.716  0.00  0.00    +0.000 HD
ATOM     43  H   UNL     1      -8.711  -1.328  21.727  0.00  0.00    +0.000 HD
ATOM     44  H   UNL     1     -11.768  -7.451  16.394  0.00  0.00    +0.000 HD
ATOM     45  H   UNL     1     -10.270  -6.185  14.683  0.00  0.00    +0.000 HD
ENDROOT
BRANCH   5  46
ATOM     46  C   UNL     1      -9.999   1.544  15.876  0.00  0.00    +0.000 C 
ATOM     47  H   UNL     1      -9.165   1.150  15.284  0.00  0.00    +0.000 HD
ATOM     48  H   UNL     1      -9.638   2.448  16.372  0.00  0.00    +0.000 HD
ATOM     49  H   UNL     1     -10.775   1.839  15.158  0.00  0.00    +0.000 HD
ENDBRANCH   5  46
BRANCH   1  50
ATOM     50  N   UNL     1     -13.061   1.594  19.692  0.00  0.00    +0.000 NA
ATOM     51  H   UNL     1     -13.818   1.062  19.261  0.00  0.00    +0.000 HD
BRANCH  50  52
ATOM     52  C   UNL     1     -12.993   1.256  21.108  0.00  0.00    +0.000 C 
ATOM     53  H   UNL     1     -13.617   1.922  21.712  0.00  0.00    +0.000 HD
ATOM     54  H   UNL     1     -13.289   0.219  21.287  0.00  0.00    +0.000 HD
ATOM     55  H   UNL     1     -11.960   1.358  21.452  0.00  0.00    +0.000 HD
ENDBRANCH  50  52
ENDBRANCH   1  50
BRANCH  30  56
ATOM     56  O   UNL     1     -12.220  -5.481  14.735  0.00  0.00    +0.000 OA
ATOM     57  H   UNL     1     -12.251  -4.529  14.548  0.00  0.00    +0.000 HD
ENDBRANCH  30  56
BRANCH   6  58
ATOM     58  O   UNL     1     -13.095   0.323  17.017  0.00  0.00    +0.000 OA
BRANCH  58  59
ATOM     59  C   UNL     1     -14.014   1.020  16.196  0.00  0.00    +0.000 C 
ATOM     60  H   UNL     1     -15.019   0.965  16.618  0.00  0.00    +0.000 HD
ATOM     61  H   UNL     1     -13.740   2.056  16.009  0.00  0.00    +0.000 HD
ATOM     62  H   UNL     1     -14.072   0.499  15.236  0.00  0.00    +0.000 HD
ENDBRANCH  58  59
ENDBRANCH   6  58
TORSDOF 6
ENDMDL
