
 OpenBabel01112422333D

 68 74  0  0  0  0  0  0  0  0999 V2000
    1.4744   -1.0579   -0.2379 C   0  0  0  0  0  0  0  0  0  0  0  0
    2.5632   -0.2239    0.1298 O   0  0  0  0  0  0  0  0  0  0  0  0
    3.1180   -0.4305    1.3647 C   0  0  0  0  0  0  0  0  0  0  0  0
    2.7574   -1.4128    2.2635 C   0  0  0  0  0  0  0  0  0  0  0  0
    3.3853   -1.4666    3.5209 C   0  0  0  0  0  0  0  0  0  0  0  0
    4.3806   -0.5225    3.8758 C   0  0  0  0  0  0  0  0  0  0  0  0
    5.1237   -0.1970    4.9982 C   0  0  0  0  0  0  0  0  0  0  0  0
    5.1263   -0.9921    6.1638 C   0  0  0  0  0  0  0  0  0  0  0  0
    5.7670   -0.4435    7.2811 C   0  0  0  0  0  0  0  0  0  0  0  0
    6.7660    0.5295    7.1830 C   0  0  0  0  0  0  0  0  0  0  0  0
    6.9542    1.1476    5.9010 C   0  0  0  0  0  0  0  0  0  0  0  0
    8.1846    1.7771    5.6319 C   0  0  0  0  0  0  0  0  0  0  0  0
    9.3178    1.4117    6.3685 C   0  0  0  0  0  0  0  0  0  0  0  0
    9.1070    0.4753    7.3814 C   0  0  0  0  0  0  0  0  0  0  0  0
    9.4680   -0.9202    7.5418 C   0  0  0  0  0  0  0  0  0  0  0  0
    8.7711   -1.3918    8.6437 C   0  0  0  0  0  0  0  0  0  0  0  0
    8.2476   -0.2285    9.1996 N   0  0  0  0  0  0  0  0  0  0  0  0
    9.0129    0.3737   10.3025 C   0  0  0  0  0  0  0  0  0  0  0  0
    7.8757    0.5153    8.0643 C   0  0  0  0  0  0  0  0  0  0  0  0
    6.0146    0.8537    4.8630 C   0  0  0  0  0  0  0  0  0  0  0  0
    5.8241    1.2139    3.5125 N   0  0  0  0  0  0  0  0  0  0  0  0
    6.6497    2.2194    2.8267 C   0  0  0  0  0  0  0  0  0  0  0  0
    6.0128    2.9228    1.6422 C   0  0  0  0  0  0  0  0  0  0  0  0
    6.7748    4.1107    1.0515 C   0  0  0  0  0  0  0  0  0  0  0  0
    6.0206    4.6821   -0.0898 N   0  0  0  0  0  0  0  0  0  0  0  0
    6.8016    5.7279   -0.7653 C   0  0  0  0  0  0  0  0  0  0  0  0
    6.0631    6.2952   -1.9817 C   0  0  0  0  0  0  0  0  0  0  0  0
    4.6676    6.7949   -1.6265 C   0  0  0  0  0  0  0  0  0  0  0  0
    4.7419    7.9941   -0.8560 O   0  0  0  0  0  0  0  0  0  0  0  0
    3.8915    5.7260   -0.8772 C   0  0  0  0  0  0  0  0  0  0  0  0
    4.6847    5.1653    0.2995 C   0  0  0  0  0  0  0  0  0  0  0  0
    4.7812    0.4456    2.9408 C   0  0  0  0  0  0  0  0  0  0  0  0
    4.1292    0.4815    1.6871 C   0  0  0  0  0  0  0  0  0  0  0  0
    5.5290   -1.3336    8.3718 C   0  0  0  0  0  0  0  0  0  0  0  0
    5.5372   -1.2006    9.5921 O   0  0  0  0  0  0  0  0  0  0  0  0
    5.1702   -2.5150    7.7490 N   0  0  0  0  0  0  0  0  0  0  0  0
    4.8591   -2.3656    6.4349 C   0  0  0  0  0  0  0  0  0  0  0  0
    4.5643   -3.3248    5.7230 O   0  0  0  0  0  0  0  0  0  0  0  0
    1.1020   -0.7092   -1.2062 H   0  0  0  0  0  0  0  0  0  0  0  0
    0.6513   -0.9819    0.4800 H   0  0  0  0  0  0  0  0  0  0  0  0
    1.8044   -2.0942   -0.3580 H   0  0  0  0  0  0  0  0  0  0  0  0
    1.9961   -2.1456    2.0509 H   0  0  0  0  0  0  0  0  0  0  0  0
    3.0643   -2.2305    4.2214 H   0  0  0  0  0  0  0  0  0  0  0  0
    8.3804    2.3255    4.7233 H   0  0  0  0  0  0  0  0  0  0  0  0
   10.3090    1.6085    5.9766 H   0  0  0  0  0  0  0  0  0  0  0  0
   10.0373   -1.5221    6.8486 H   0  0  0  0  0  0  0  0  0  0  0  0
    8.6804   -2.3456    9.1470 H   0  0  0  0  0  0  0  0  0  0  0  0
    8.8754   -0.2375   11.1961 H   0  0  0  0  0  0  0  0  0  0  0  0
    8.6863    1.4028   10.4604 H   0  0  0  0  0  0  0  0  0  0  0  0
   10.0766    0.3693   10.0227 H   0  0  0  0  0  0  0  0  0  0  0  0
    7.5747    1.7124    2.5317 H   0  0  0  0  0  0  0  0  0  0  0  0
    6.8687    2.9929    3.5674 H   0  0  0  0  0  0  0  0  0  0  0  0
    5.0253    3.2414    1.9855 H   0  0  0  0  0  0  0  0  0  0  0  0
    5.9210    2.2149    0.8187 H   0  0  0  0  0  0  0  0  0  0  0  0
    7.7417    3.7383    0.6863 H   0  0  0  0  0  0  0  0  0  0  0  0
    6.9820    4.8691    1.8148 H   0  0  0  0  0  0  0  0  0  0  0  0
    7.7517    5.3080   -1.1182 H   0  0  0  0  0  0  0  0  0  0  0  0
    7.0475    6.5382   -0.0681 H   0  0  0  0  0  0  0  0  0  0  0  0
    5.9800    5.5140   -2.7485 H   0  0  0  0  0  0  0  0  0  0  0  0
    6.6543    7.1138   -2.4076 H   0  0  0  0  0  0  0  0  0  0  0  0
    4.1271    7.0537   -2.5431 H   0  0  0  0  0  0  0  0  0  0  0  0
    5.1756    7.7948   -0.0103 H   0  0  0  0  0  0  0  0  0  0  0  0
    3.6436    4.9057   -1.5634 H   0  0  0  0  0  0  0  0  0  0  0  0
    2.9464    6.1335   -0.4992 H   0  0  0  0  0  0  0  0  0  0  0  0
    4.0708    4.3452    0.6824 H   0  0  0  0  0  0  0  0  0  0  0  0
    4.7653    5.9114    1.0992 H   0  0  0  0  0  0  0  0  0  0  0  0
    4.3412    1.2217    0.9314 H   0  0  0  0  0  0  0  0  0  0  0  0
    5.6130   -3.3554    8.0396 H   0  0  0  0  0  0  0  0  0  0  0  0
  1  2  1  0  0  0  0
  1 39  1  0  0  0  0
  1 40  1  0  0  0  0
  1 41  1  0  0  0  0
  2  3  1  0  0  0  0
  3  4  1  0  0  0  0
  3 33  2  0  0  0  0
  4  5  2  0  0  0  0
  4 42  1  0  0  0  0
  5  6  1  0  0  0  0
  5 43  1  0  0  0  0
  6  7  1  0  0  0  0
  6 32  2  0  0  0  0
  7  8  1  0  0  0  0
  7 20  2  0  0  0  0
  8  9  2  0  0  0  0
  8 37  1  0  0  0  0
  9 10  1  0  0  0  0
  9 34  1  0  0  0  0
 10 11  1  0  0  0  0
 10 19  2  0  0  0  0
 11 12  2  0  0  0  0
 11 20  1  0  0  0  0
 12 13  1  0  0  0  0
 12 44  1  0  0  0  0
 13 14  2  0  0  0  0
 13 45  1  0  0  0  0
 14 15  1  0  0  0  0
 14 19  1  0  0  0  0
 15 16  2  0  0  0  0
 15 46  1  0  0  0  0
 16 17  1  0  0  0  0
 16 47  1  0  0  0  0
 17 18  1  0  0  0  0
 17 19  1  0  0  0  0
 18 48  1  0  0  0  0
 18 49  1  0  0  0  0
 18 50  1  0  0  0  0
 20 21  1  0  0  0  0
 21 22  1  0  0  0  0
 21 32  1  0  0  0  0
 22 23  1  0  0  0  0
 22 51  1  0  0  0  0
 22 52  1  0  0  0  0
 23 24  1  0  0  0  0
 23 53  1  0  0  0  0
 23 54  1  0  0  0  0
 24 25  1  0  0  0  0
 24 55  1  0  0  0  0
 24 56  1  0  0  0  0
 25 26  1  0  0  0  0
 25 31  1  0  0  0  0
 26 27  1  0  0  0  0
 26 57  1  0  0  0  0
 26 58  1  0  0  0  0
 27 28  1  0  0  0  0
 27 59  1  0  0  0  0
 27 60  1  0  0  0  0
 28 29  1  0  0  0  0
 28 30  1  0  0  0  0
 28 61  1  0  0  0  0
 29 62  1  0  0  0  0
 30 31  1  0  0  0  0
 30 63  1  0  0  0  0
 30 64  1  0  0  0  0
 31 65  1  0  0  0  0
 31 66  1  0  0  0  0
 32 33  1  0  0  0  0
 33 67  1  0  0  0  0
 34 35  2  0  0  0  0
 34 36  1  0  0  0  0
 36 37  1  0  0  0  0
 36 68  1  0  0  0  0
 37 38  2  0  0  0  0
M  END
$$$$
