REMARK  Name = 
REMARK  7 active torsions:
REMARK  status: ('A' for Active; 'I' for Inactive)
REMARK    1  A    between atoms: C_2  and  C_3
REMARK    2  A    between atoms: C_3  and  C_4
REMARK    3  A    between atoms: C_4  and  C_5
REMARK    4  A    between atoms: C_14  and  O_15
REMARK    5  A    between atoms: C_16  and  O_17
REMARK    6  A    between atoms: C_23  and  O_24
REMARK    7  A    between atoms: C_25  and  O_26
REMARK                            x       y       z     vdW  Elec       q    Type
REMARK                         _______ _______ _______ _____ _____    ______ ____
ROOT
ATOM      1  O   UNL     1      -0.804   1.337  -2.207  0.00  0.00    +0.000 OA
ATOM      2  C   UNL     1      -0.358   0.615  -1.338  0.00  0.00    +0.000 C 
ATOM      3  N   UNL     1       0.851   0.985  -0.712  0.00  0.00    +0.000 N 
ATOM      4  C   UNL     1       1.089   2.275  -0.250  0.00  0.00    +0.000 A 
ATOM      5  C   UNL     1       0.480   3.517  -0.482  0.00  0.00    +0.000 A 
ATOM      6  C   UNL     1       0.496   4.398   0.597  0.00  0.00    +0.000 A 
ATOM      7  C   UNL     1       1.062   4.041   1.817  0.00  0.00    +0.000 A 
ATOM      8  C   UNL     1       1.919   2.950   1.911  0.00  0.00    +0.000 A 
ATOM      9  C   UNL     1       2.002   2.104   0.794  0.00  0.00    +0.000 A 
ATOM     10  C   UNL     1       2.831   1.067   0.311  0.00  0.00    +0.000 A 
ATOM     11  C   UNL     1       4.196   0.741   0.356  0.00  0.00    +0.000 A 
ATOM     12  C   UNL     1       4.619  -0.506  -0.105  0.00  0.00    +0.000 A 
ATOM     13  C   UNL     1       3.661  -1.468  -0.391  0.00  0.00    +0.000 A 
ATOM     14  C   UNL     1       2.304  -1.149  -0.482  0.00  0.00    +0.000 A 
ATOM     15  C   UNL     1       1.932   0.189  -0.320  0.00  0.00    +0.000 A 
ATOM     16  H   UNL     1      -0.075   3.721  -1.390  0.00  0.00    +0.000 HD
ATOM     17  H   UNL     1       2.405   2.698   2.852  0.00  0.00    +0.000 HD
ATOM     18  H   UNL     1       4.928   1.492   0.649  0.00  0.00    +0.000 HD
ATOM     19  H   UNL     1       5.680  -0.726  -0.182  0.00  0.00    +0.000 HD
ENDROOT
BRANCH   2  20
ATOM     20  C   UNL     1      -1.098  -0.472  -0.612  0.00  0.00    +0.000 C 
ATOM     21  H   UNL     1      -1.347  -0.111   0.403  0.00  0.00    +0.000 HD
ATOM     22  H   UNL     1      -0.532  -1.362  -0.513  0.00  0.00    +0.000 HD
BRANCH  20  23
ATOM     23  C   UNL     1      -2.399  -0.818  -1.354  0.00  0.00    +0.000 C 
ATOM     24  H   UNL     1      -2.184  -1.087  -2.394  0.00  0.00    +0.000 HD
ATOM     25  H   UNL     1      -3.075   0.047  -1.399  0.00  0.00    +0.000 HD
BRANCH  23  26
ATOM     26  C   UNL     1      -3.089  -1.973  -0.671  0.00  0.00    +0.000 A 
ATOM     27  C   UNL     1      -3.993  -1.736   0.370  0.00  0.00    +0.000 A 
ATOM     28  C   UNL     1      -4.610  -2.803   1.023  0.00  0.00    +0.000 A 
ATOM     29  C   UNL     1      -4.311  -4.113   0.647  0.00  0.00    +0.000 A 
ATOM     30  C   UNL     1      -3.395  -4.362  -0.368  0.00  0.00    +0.000 A 
ATOM     31  C   UNL     1      -2.774  -3.292  -1.022  0.00  0.00    +0.000 A 
ATOM     32  H   UNL     1      -4.219  -0.719   0.679  0.00  0.00    +0.000 HD
ATOM     33  H   UNL     1      -5.315  -2.611   1.825  0.00  0.00    +0.000 HD
ATOM     34  H   UNL     1      -4.798  -4.943   1.153  0.00  0.00    +0.000 HD
ATOM     35  H   UNL     1      -3.150  -5.380  -0.648  0.00  0.00    +0.000 HD
ATOM     36  H   UNL     1      -2.043  -3.496  -1.801  0.00  0.00    +0.000 HD
ENDBRANCH  23  26
ENDBRANCH  20  23
ENDBRANCH   2  20
BRANCH   6  37
ATOM     37  O   UNL     1      -0.097   5.628   0.511  0.00  0.00    +0.000 OA
ATOM     38  H   UNL     1       0.083   5.953  -0.390  0.00  0.00    +0.000 HD
ENDBRANCH   6  37
BRANCH   7  39
ATOM     39  O   UNL     1       0.761   4.763   2.935  0.00  0.00    +0.000 OA
ATOM     40  H   UNL     1       0.049   5.369   2.646  0.00  0.00    +0.000 HD
ENDBRANCH   7  39
BRANCH  13  41
ATOM     41  O   UNL     1       3.996  -2.772  -0.641  0.00  0.00    +0.000 OA
ATOM     42  H   UNL     1       4.965  -2.846  -0.608  0.00  0.00    +0.000 HD
ENDBRANCH  13  41
BRANCH  14  43
ATOM     43  O   UNL     1       1.424  -2.167  -0.700  0.00  0.00    +0.000 OA
ATOM     44  H   UNL     1       1.936  -2.979  -0.501  0.00  0.00    +0.000 HD
ENDBRANCH  14  43
TORSDOF 7
