MODEL 1
REMARK VINA RESULT:   -11.351      0.000      0.000
REMARK INTER + INTRA:         -14.646
REMARK INTER:                 -14.006
REMARK INTRA:                  -0.640
REMARK UNBOUND:                -0.640
REMARK  Name = 
REMARK  6 active torsions:
REMARK  status: ('A' for Active; 'I' for Inactive)
REMARK    1  A    between atoms: C_2  and  C_3
REMARK    2  A    between atoms: C_6  and  C_7
REMARK    3  A    between atoms: C_18  and  O_19
REMARK    4  A    between atoms: C_20  and  O_21
REMARK    5  A    between atoms: C_27  and  O_28
REMARK    6  A    between atoms: C_29  and  O_30
REMARK                            x       y       z     vdW  Elec       q    Type
REMARK                         _______ _______ _______ _____ _____    ______ ____
ROOT
ATOM      1  O   UNL     1     -10.371  -5.635  18.390  0.00  0.00    +0.000 OA
ATOM      2  C   UNL     1     -10.366  -5.450  17.168  0.00  0.00    +0.000 C 
ATOM      3  N   UNL     1     -10.388  -4.121  16.655  0.00  0.00    +0.000 N 
ATOM      4  C   UNL     1     -10.338  -3.774  15.296  0.00  0.00    +0.000 A 
ATOM      5  C   UNL     1      -9.972  -4.374  14.095  0.00  0.00    +0.000 A 
ATOM      6  C   UNL     1     -10.902  -4.197  13.070  0.00  0.00    +0.000 A 
ATOM      7  C   UNL     1     -12.007  -3.362  13.245  0.00  0.00    +0.000 A 
ATOM      8  C   UNL     1     -12.027  -2.420  14.272  0.00  0.00    +0.000 A 
ATOM      9  C   UNL     1     -11.064  -2.595  15.273  0.00  0.00    +0.000 A 
ATOM     10  C   UNL     1     -10.424  -1.933  16.331  0.00  0.00    +0.000 A 
ATOM     11  C   UNL     1      -9.832  -0.679  16.583  0.00  0.00    +0.000 A 
ATOM     12  C   UNL     1      -9.463  -0.374  17.893  0.00  0.00    +0.000 A 
ATOM     13  C   UNL     1      -9.879  -1.210  18.920  0.00  0.00    +0.000 A 
ATOM     14  C   UNL     1     -10.391  -2.486  18.667  0.00  0.00    +0.000 A 
ATOM     15  C   UNL     1     -10.412  -2.901  17.337  0.00  0.00    +0.000 A 
ATOM     16  H   UNL     1      -9.161  -5.093  14.025  0.00  0.00    +0.000 HD
ATOM     17  H   UNL     1     -12.825  -1.703  14.370  0.00  0.00    +0.000 HD
ATOM     18  H   UNL     1      -9.568  -0.021  15.756  0.00  0.00    +0.000 HD
ATOM     19  H   UNL     1      -8.906   0.534  18.091  0.00  0.00    +0.000 HD
ENDROOT
BRANCH   2  20
ATOM     20  C   UNL     1     -10.202  -6.626  16.297  0.00  0.00    +0.000 A 
ATOM     21  C   UNL     1      -8.958  -7.004  15.801  0.00  0.00    +0.000 A 
ATOM     22  C   UNL     1      -8.682  -8.378  15.648  0.00  0.00    +0.000 A 
ATOM     23  C   UNL     1      -9.637  -9.362  15.991  0.00  0.00    +0.000 A 
ATOM     24  C   UNL     1     -10.956  -8.897  16.197  0.00  0.00    +0.000 A 
ATOM     25  C   UNL     1     -11.243  -7.542  16.355  0.00  0.00    +0.000 A 
ATOM     26  H   UNL     1      -8.142  -6.287  15.738  0.00  0.00    +0.000 HD
ATOM     27  H   UNL     1      -7.647  -8.640  15.437  0.00  0.00    +0.000 HD
ATOM     28  H   UNL     1     -11.784  -9.575  16.379  0.00  0.00    +0.000 HD
ATOM     29  H   UNL     1     -12.232  -7.231  16.681  0.00  0.00    +0.000 HD
BRANCH  23  30
ATOM     30  C   UNL     1      -9.264 -10.776  16.337  0.00  0.00    +0.000 A 
ATOM     31  C   UNL     1      -8.885 -11.727  15.367  0.00  0.00    +0.000 A 
ATOM     32  C   UNL     1      -8.419 -13.007  15.714  0.00  0.00    +0.000 A 
ATOM     33  C   UNL     1      -8.328 -13.384  17.047  0.00  0.00    +0.000 A 
ATOM     34  C   UNL     1      -8.686 -12.479  18.031  0.00  0.00    +0.000 A 
ATOM     35  C   UNL     1      -9.135 -11.201  17.679  0.00  0.00    +0.000 A 
ATOM     36  H   UNL     1      -8.915 -11.498  14.305  0.00  0.00    +0.000 HD
ATOM     37  H   UNL     1      -8.121 -13.708  14.937  0.00  0.00    +0.000 HD
ATOM     38  H   UNL     1      -7.979 -14.377  17.320  0.00  0.00    +0.000 HD
ATOM     39  H   UNL     1      -8.612 -12.751  19.082  0.00  0.00    +0.000 HD
ATOM     40  H   UNL     1      -9.362 -10.539  18.509  0.00  0.00    +0.000 HD
ENDBRANCH  23  30
ENDBRANCH   2  20
BRANCH   6  41
ATOM     41  O   UNL     1     -10.819  -4.912  11.913  0.00  0.00    +0.000 OA
ATOM     42  H   UNL     1      -9.895  -4.837  11.607  0.00  0.00    +0.000 HD
ENDBRANCH   6  41
BRANCH   7  43
ATOM     43  O   UNL     1     -13.073  -3.472  12.398  0.00  0.00    +0.000 OA
ATOM     44  H   UNL     1     -13.773  -3.890  12.941  0.00  0.00    +0.000 HD
ENDBRANCH   7  43
BRANCH  13  45
ATOM     45  O   UNL     1      -9.781  -0.824  20.232  0.00  0.00    +0.000 OA
ATOM     46  H   UNL     1      -9.185  -0.056  20.271  0.00  0.00    +0.000 HD
ENDBRANCH  13  45
BRANCH  14  47
ATOM     47  O   UNL     1     -10.877  -3.248  19.688  0.00  0.00    +0.000 OA
ATOM     48  H   UNL     1     -11.635  -2.742  20.039  0.00  0.00    +0.000 HD
ENDBRANCH  14  47
TORSDOF 6
ENDMDL
MODEL 2
REMARK VINA RESULT:   -11.141      1.535      4.363
REMARK INTER + INTRA:         -14.386
REMARK INTER:                 -13.702
REMARK INTRA:                  -0.685
REMARK UNBOUND:                -0.640
REMARK  Name = 
REMARK  6 active torsions:
REMARK  status: ('A' for Active; 'I' for Inactive)
REMARK    1  A    between atoms: C_2  and  C_3
REMARK    2  A    between atoms: C_6  and  C_7
REMARK    3  A    between atoms: C_18  and  O_19
REMARK    4  A    between atoms: C_20  and  O_21
REMARK    5  A    between atoms: C_27  and  O_28
REMARK    6  A    between atoms: C_29  and  O_30
REMARK                            x       y       z     vdW  Elec       q    Type
REMARK                         _______ _______ _______ _____ _____    ______ ____
ROOT
ATOM      1  O   UNL     1      -9.343  -5.155  14.050  0.00  0.00    +0.000 OA
ATOM      2  C   UNL     1      -9.978  -4.908  15.081  0.00  0.00    +0.000 C 
ATOM      3  N   UNL     1     -10.713  -3.692  15.183  0.00  0.00    +0.000 N 
ATOM      4  C   UNL     1     -11.510  -3.313  16.274  0.00  0.00    +0.000 A 
ATOM      5  C   UNL     1     -12.119  -3.927  17.364  0.00  0.00    +0.000 A 
ATOM      6  C   UNL     1     -11.913  -3.261  18.573  0.00  0.00    +0.000 A 
ATOM      7  C   UNL     1     -11.274  -2.021  18.606  0.00  0.00    +0.000 A 
ATOM      8  C   UNL     1     -11.155  -1.255  17.447  0.00  0.00    +0.000 A 
ATOM      9  C   UNL     1     -11.399  -1.933  16.246  0.00  0.00    +0.000 A 
ATOM     10  C   UNL     1     -11.683  -1.725  14.889  0.00  0.00    +0.000 A 
ATOM     11  C   UNL     1     -12.529  -0.917  14.103  0.00  0.00    +0.000 A 
ATOM     12  C   UNL     1     -12.343  -0.916  12.720  0.00  0.00    +0.000 A 
ATOM     13  C   UNL     1     -11.215  -1.529  12.193  0.00  0.00    +0.000 A 
ATOM     14  C   UNL     1     -10.425  -2.394  12.957  0.00  0.00    +0.000 A 
ATOM     15  C   UNL     1     -10.856  -2.654  14.256  0.00  0.00    +0.000 A 
ATOM     16  H   UNL     1     -12.519  -4.935  17.318  0.00  0.00    +0.000 HD
ATOM     17  H   UNL     1     -10.750  -0.257  17.465  0.00  0.00    +0.000 HD
ATOM     18  H   UNL     1     -13.374  -0.403  14.558  0.00  0.00    +0.000 HD
ATOM     19  H   UNL     1     -13.051  -0.392  12.089  0.00  0.00    +0.000 HD
ENDROOT
BRANCH   2  20
ATOM     20  C   UNL     1     -10.050  -5.958  16.111  0.00  0.00    +0.000 A 
ATOM     21  C   UNL     1     -11.106  -6.864  16.163  0.00  0.00    +0.000 A 
ATOM     22  C   UNL     1     -10.841  -8.185  16.577  0.00  0.00    +0.000 A 
ATOM     23  C   UNL     1      -9.536  -8.597  16.929  0.00  0.00    +0.000 A 
ATOM     24  C   UNL     1      -8.596  -7.561  17.137  0.00  0.00    +0.000 A 
ATOM     25  C   UNL     1      -8.842  -6.251  16.728  0.00  0.00    +0.000 A 
ATOM     26  H   UNL     1     -12.061  -6.634  15.695  0.00  0.00    +0.000 HD
ATOM     27  H   UNL     1     -11.643  -8.905  16.428  0.00  0.00    +0.000 HD
ATOM     28  H   UNL     1      -7.590  -7.759  17.494  0.00  0.00    +0.000 HD
ATOM     29  H   UNL     1      -8.040  -5.518  16.744  0.00  0.00    +0.000 HD
BRANCH  23  30
ATOM     30  C   UNL     1      -9.091 -10.032  16.879  0.00  0.00    +0.000 A 
ATOM     31  C   UNL     1      -8.856 -10.801  18.038  0.00  0.00    +0.000 A 
ATOM     32  C   UNL     1      -8.562 -12.175  17.979  0.00  0.00    +0.000 A 
ATOM     33  C   UNL     1      -8.481 -12.824  16.754  0.00  0.00    +0.000 A 
ATOM     34  C   UNL     1      -8.709 -12.105  15.592  0.00  0.00    +0.000 A 
ATOM     35  C   UNL     1      -9.016 -10.741  15.660  0.00  0.00    +0.000 A 
ATOM     36  H   UNL     1      -8.917 -10.365  19.032  0.00  0.00    +0.000 HD
ATOM     37  H   UNL     1      -8.403 -12.737  18.896  0.00  0.00    +0.000 HD
ATOM     38  H   UNL     1      -8.243 -13.883  16.702  0.00  0.00    +0.000 HD
ATOM     39  H   UNL     1      -8.660 -12.598  14.624  0.00  0.00    +0.000 HD
ATOM     40  H   UNL     1      -9.215 -10.259  14.708  0.00  0.00    +0.000 HD
ENDBRANCH  23  30
ENDBRANCH   2  20
BRANCH   6  41
ATOM     41  O   UNL     1     -12.231  -3.848  19.761  0.00  0.00    +0.000 OA
ATOM     42  H   UNL     1     -12.155  -4.811  19.624  0.00  0.00    +0.000 HD
ENDBRANCH   6  41
BRANCH   7  43
ATOM     43  O   UNL     1     -10.768  -1.557  19.787  0.00  0.00    +0.000 OA
ATOM     44  H   UNL     1     -11.384  -1.900  20.466  0.00  0.00    +0.000 HD
ENDBRANCH   7  43
BRANCH  13  45
ATOM     45  O   UNL     1     -10.843  -1.329  10.889  0.00  0.00    +0.000 OA
ATOM     46  H   UNL     1     -10.182  -0.615  10.876  0.00  0.00    +0.000 HD
ENDBRANCH  13  45
BRANCH  14  47
ATOM     47  O   UNL     1      -9.272  -2.910  12.441  0.00  0.00    +0.000 OA
ATOM     48  H   UNL     1      -9.141  -2.434  11.598  0.00  0.00    +0.000 HD
ENDBRANCH  14  47
TORSDOF 6
ENDMDL
MODEL 3
REMARK VINA RESULT:   -10.113      1.296      4.398
REMARK INTER + INTRA:         -13.118
REMARK INTER:                 -12.403
REMARK INTRA:                  -0.715
REMARK UNBOUND:                -0.640
REMARK  Name = 
REMARK  6 active torsions:
REMARK  status: ('A' for Active; 'I' for Inactive)
REMARK    1  A    between atoms: C_2  and  C_3
REMARK    2  A    between atoms: C_6  and  C_7
REMARK    3  A    between atoms: C_18  and  O_19
REMARK    4  A    between atoms: C_20  and  O_21
REMARK    5  A    between atoms: C_27  and  O_28
REMARK    6  A    between atoms: C_29  and  O_30
REMARK                            x       y       z     vdW  Elec       q    Type
REMARK                         _______ _______ _______ _____ _____    ______ ____
ROOT
ATOM      1  O   UNL     1     -10.384  -5.116  13.991  0.00  0.00    +0.000 OA
ATOM      2  C   UNL     1     -10.489  -4.739  15.163  0.00  0.00    +0.000 C 
ATOM      3  N   UNL     1     -11.004  -3.441  15.444  0.00  0.00    +0.000 N 
ATOM      4  C   UNL     1     -11.219  -2.911  16.726  0.00  0.00    +0.000 A 
ATOM      5  C   UNL     1     -11.348  -3.388  18.026  0.00  0.00    +0.000 A 
ATOM      6  C   UNL     1     -10.586  -2.686  18.962  0.00  0.00    +0.000 A 
ATOM      7  C   UNL     1      -9.895  -1.529  18.597  0.00  0.00    +0.000 A 
ATOM      8  C   UNL     1     -10.223  -0.848  17.425  0.00  0.00    +0.000 A 
ATOM      9  C   UNL     1     -11.016  -1.557  16.515  0.00  0.00    +0.000 A 
ATOM     10  C   UNL     1     -11.839  -1.392  15.392  0.00  0.00    +0.000 A 
ATOM     11  C   UNL     1     -12.871  -0.534  14.960  0.00  0.00    +0.000 A 
ATOM     12  C   UNL     1     -13.299  -0.631  13.636  0.00  0.00    +0.000 A 
ATOM     13  C   UNL     1     -12.563  -1.402  12.746  0.00  0.00    +0.000 A 
ATOM     14  C   UNL     1     -11.597  -2.310  13.187  0.00  0.00    +0.000 A 
ATOM     15  C   UNL     1     -11.446  -2.446  14.565  0.00  0.00    +0.000 A 
ATOM     16  H   UNL     1     -11.811  -4.342  18.255  0.00  0.00    +0.000 HD
ATOM     17  H   UNL     1      -9.769   0.095  17.171  0.00  0.00    +0.000 HD
ATOM     18  H   UNL     1     -13.391   0.100  15.675  0.00  0.00    +0.000 HD
ATOM     19  H   UNL     1     -14.163  -0.063  13.314  0.00  0.00    +0.000 HD
ENDROOT
BRANCH   2  20
ATOM     20  C   UNL     1     -10.198  -5.715  16.227  0.00  0.00    +0.000 A 
ATOM     21  C   UNL     1     -11.195  -6.507  16.790  0.00  0.00    +0.000 A 
ATOM     22  C   UNL     1     -10.871  -7.821  17.182  0.00  0.00    +0.000 A 
ATOM     23  C   UNL     1      -9.567  -8.340  17.009  0.00  0.00    +0.000 A 
ATOM     24  C   UNL     1      -8.560  -7.392  16.717  0.00  0.00    +0.000 A 
ATOM     25  C   UNL     1      -8.865  -6.090  16.323  0.00  0.00    +0.000 A 
ATOM     26  H   UNL     1     -12.240  -6.211  16.733  0.00  0.00    +0.000 HD
ATOM     27  H   UNL     1     -11.709  -8.466  17.442  0.00  0.00    +0.000 HD
ATOM     28  H   UNL     1      -7.512  -7.668  16.650  0.00  0.00    +0.000 HD
ATOM     29  H   UNL     1      -8.082  -5.440  15.941  0.00  0.00    +0.000 HD
BRANCH  23  30
ATOM     30  C   UNL     1      -9.280  -9.813  16.917  0.00  0.00    +0.000 A 
ATOM     31  C   UNL     1      -9.220 -10.506  15.690  0.00  0.00    +0.000 A 
ATOM     32  C   UNL     1      -8.828 -11.853  15.609  0.00  0.00    +0.000 A 
ATOM     33  C   UNL     1      -8.494 -12.558  16.758  0.00  0.00    +0.000 A 
ATOM     34  C   UNL     1      -8.537 -11.913  17.983  0.00  0.00    +0.000 A 
ATOM     35  C   UNL     1      -8.913 -10.567  18.053  0.00  0.00    +0.000 A 
ATOM     36  H   UNL     1      -9.451 -10.015  14.748  0.00  0.00    +0.000 HD
ATOM     37  H   UNL     1      -8.778 -12.349  14.642  0.00  0.00    +0.000 HD
ATOM     38  H   UNL     1      -8.201 -13.603  16.702  0.00  0.00    +0.000 HD
ATOM     39  H   UNL     1      -8.269 -12.445  18.893  0.00  0.00    +0.000 HD
ATOM     40  H   UNL     1      -8.887 -10.126  19.045  0.00  0.00    +0.000 HD
ENDBRANCH  23  30
ENDBRANCH   2  20
BRANCH   6  41
ATOM     41  O   UNL     1     -10.409  -3.164  20.225  0.00  0.00    +0.000 OA
ATOM     42  H   UNL     1      -9.451  -3.121  20.406  0.00  0.00    +0.000 HD
ENDBRANCH   6  41
BRANCH   7  43
ATOM     43  O   UNL     1      -8.892  -1.065  19.400  0.00  0.00    +0.000 OA
ATOM     44  H   UNL     1      -8.070  -1.302  18.923  0.00  0.00    +0.000 HD
ENDBRANCH   7  43
BRANCH  13  45
ATOM     45  O   UNL     1     -12.774  -1.318  11.394  0.00  0.00    +0.000 OA
ATOM     46  H   UNL     1     -13.347  -2.061  11.137  0.00  0.00    +0.000 HD
ENDBRANCH  13  45
BRANCH  14  47
ATOM     47  O   UNL     1     -10.826  -2.987  12.287  0.00  0.00    +0.000 OA
ATOM     48  H   UNL     1     -11.119  -3.916  12.357  0.00  0.00    +0.000 HD
ENDBRANCH  14  47
TORSDOF 6
ENDMDL
MODEL 4
REMARK VINA RESULT:    -9.425      3.294      5.338
REMARK INTER + INTRA:         -12.269
REMARK INTER:                 -11.904
REMARK INTRA:                  -0.365
REMARK UNBOUND:                -0.640
REMARK  Name = 
REMARK  6 active torsions:
REMARK  status: ('A' for Active; 'I' for Inactive)
REMARK    1  A    between atoms: C_2  and  C_3
REMARK    2  A    between atoms: C_6  and  C_7
REMARK    3  A    between atoms: C_18  and  O_19
REMARK    4  A    between atoms: C_20  and  O_21
REMARK    5  A    between atoms: C_27  and  O_28
REMARK    6  A    between atoms: C_29  and  O_30
REMARK                            x       y       z     vdW  Elec       q    Type
REMARK                         _______ _______ _______ _____ _____    ______ ____
ROOT
ATOM      1  O   UNL     1     -10.559  -2.458  18.724  0.00  0.00    +0.000 OA
ATOM      2  C   UNL     1      -9.819  -3.422  18.949  0.00  0.00    +0.000 C 
ATOM      3  N   UNL     1      -8.965  -3.406  20.089  0.00  0.00    +0.000 N 
ATOM      4  C   UNL     1      -8.115  -4.451  20.483  0.00  0.00    +0.000 A 
ATOM      5  C   UNL     1      -7.980  -5.814  20.235  0.00  0.00    +0.000 A 
ATOM      6  C   UNL     1      -6.672  -6.206  19.947  0.00  0.00    +0.000 A 
ATOM      7  C   UNL     1      -5.614  -5.302  20.056  0.00  0.00    +0.000 A 
ATOM      8  C   UNL     1      -5.763  -4.124  20.786  0.00  0.00    +0.000 A 
ATOM      9  C   UNL     1      -7.080  -3.765  21.096  0.00  0.00    +0.000 A 
ATOM     10  C   UNL     1      -7.841  -2.942  21.938  0.00  0.00    +0.000 A 
ATOM     11  C   UNL     1      -7.880  -2.578  23.298  0.00  0.00    +0.000 A 
ATOM     12  C   UNL     1      -8.733  -1.542  23.681  0.00  0.00    +0.000 A 
ATOM     13  C   UNL     1      -9.342  -0.775  22.697  0.00  0.00    +0.000 A 
ATOM     14  C   UNL     1      -9.370  -1.183  21.360  0.00  0.00    +0.000 A 
ATOM     15  C   UNL     1      -8.805  -2.423  21.071  0.00  0.00    +0.000 A 
ATOM     16  H   UNL     1      -8.832  -6.463  20.062  0.00  0.00    +0.000 HD
ATOM     17  H   UNL     1      -4.935  -3.457  20.963  0.00  0.00    +0.000 HD
ATOM     18  H   UNL     1      -7.345  -3.169  24.040  0.00  0.00    +0.000 HD
ATOM     19  H   UNL     1      -8.863  -1.322  24.734  0.00  0.00    +0.000 HD
ENDROOT
BRANCH   2  20
ATOM     20  C   UNL     1      -9.959  -4.609  18.089  0.00  0.00    +0.000 A 
ATOM     21  C   UNL     1      -8.910  -5.074  17.302  0.00  0.00    +0.000 A 
ATOM     22  C   UNL     1      -8.774  -6.464  17.112  0.00  0.00    +0.000 A 
ATOM     23  C   UNL     1      -9.673  -7.378  17.706  0.00  0.00    +0.000 A 
ATOM     24  C   UNL     1     -10.863  -6.823  18.230  0.00  0.00    +0.000 A 
ATOM     25  C   UNL     1     -11.010  -5.451  18.428  0.00  0.00    +0.000 A 
ATOM     26  H   UNL     1      -8.092  -4.415  17.019  0.00  0.00    +0.000 HD
ATOM     27  H   UNL     1      -7.845  -6.798  16.652  0.00  0.00    +0.000 HD
ATOM     28  H   UNL     1     -11.660  -7.442  18.630  0.00  0.00    +0.000 HD
ATOM     29  H   UNL     1     -11.861  -5.071  18.987  0.00  0.00    +0.000 HD
BRANCH  23  30
ATOM     30  C   UNL     1      -9.318  -8.814  17.975  0.00  0.00    +0.000 A 
ATOM     31  C   UNL     1      -9.319  -9.804  16.971  0.00  0.00    +0.000 A 
ATOM     32  C   UNL     1      -8.866 -11.114  17.208  0.00  0.00    +0.000 A 
ATOM     33  C   UNL     1      -8.407 -11.481  18.466  0.00  0.00    +0.000 A 
ATOM     34  C   UNL     1      -8.385 -10.538  19.480  0.00  0.00    +0.000 A 
ATOM     35  C   UNL     1      -8.824  -9.231  19.231  0.00  0.00    +0.000 A 
ATOM     36  H   UNL     1      -9.650  -9.586  15.959  0.00  0.00    +0.000 HD
ATOM     37  H   UNL     1      -8.868 -11.845  16.403  0.00  0.00    +0.000 HD
ATOM     38  H   UNL     1      -8.066 -12.495  18.658  0.00  0.00    +0.000 HD
ATOM     39  H   UNL     1      -8.019 -10.803  20.469  0.00  0.00    +0.000 HD
ATOM     40  H   UNL     1      -8.741  -8.544  20.067  0.00  0.00    +0.000 HD
ENDBRANCH  23  30
ENDBRANCH   2  20
BRANCH   6  41
ATOM     41  O   UNL     1      -6.404  -7.446  19.449  0.00  0.00    +0.000 OA
ATOM     42  H   UNL     1      -7.249  -7.798  19.112  0.00  0.00    +0.000 HD
ENDBRANCH   6  41
BRANCH   7  43
ATOM     43  O   UNL     1      -4.426  -5.581  19.443  0.00  0.00    +0.000 OA
ATOM     44  H   UNL     1      -3.828  -5.832  20.177  0.00  0.00    +0.000 HD
ENDBRANCH   7  43
BRANCH  13  45
ATOM     45  O   UNL     1      -9.964   0.407  23.005  0.00  0.00    +0.000 OA
ATOM     46  H   UNL     1      -9.276   1.048  23.253  0.00  0.00    +0.000 HD
ENDBRANCH  13  45
BRANCH  14  47
ATOM     47  O   UNL     1      -9.894  -0.365  20.402  0.00  0.00    +0.000 OA
ATOM     48  H   UNL     1      -9.899  -0.906  19.588  0.00  0.00    +0.000 HD
ENDBRANCH  14  47
TORSDOF 6
ENDMDL
MODEL 5
REMARK VINA RESULT:    -8.792      2.114      2.786
REMARK INTER + INTRA:         -11.488
REMARK INTER:                 -10.560
REMARK INTRA:                  -0.927
REMARK UNBOUND:                -0.640
REMARK  Name = 
REMARK  6 active torsions:
REMARK  status: ('A' for Active; 'I' for Inactive)
REMARK    1  A    between atoms: C_2  and  C_3
REMARK    2  A    between atoms: C_6  and  C_7
REMARK    3  A    between atoms: C_18  and  O_19
REMARK    4  A    between atoms: C_20  and  O_21
REMARK    5  A    between atoms: C_27  and  O_28
REMARK    6  A    between atoms: C_29  and  O_30
REMARK                            x       y       z     vdW  Elec       q    Type
REMARK                         _______ _______ _______ _____ _____    ______ ____
ROOT
ATOM      1  O   UNL     1      -8.519  -6.105  20.111  0.00  0.00    +0.000 OA
ATOM      2  C   UNL     1      -9.022  -5.558  19.124  0.00  0.00    +0.000 C 
ATOM      3  N   UNL     1      -9.317  -4.165  19.161  0.00  0.00    +0.000 N 
ATOM      4  C   UNL     1      -9.841  -3.416  18.096  0.00  0.00    +0.000 A 
ATOM      5  C   UNL     1      -9.966  -3.540  16.716  0.00  0.00    +0.000 A 
ATOM      6  C   UNL     1     -11.241  -3.237  16.236  0.00  0.00    +0.000 A 
ATOM      7  C   UNL     1     -12.219  -2.718  17.086  0.00  0.00    +0.000 A 
ATOM      8  C   UNL     1     -11.866  -2.156  18.312  0.00  0.00    +0.000 A 
ATOM      9  C   UNL     1     -10.572  -2.445  18.760  0.00  0.00    +0.000 A 
ATOM     10  C   UNL     1      -9.591  -2.030  19.672  0.00  0.00    +0.000 A 
ATOM     11  C   UNL     1      -9.012  -0.825  20.119  0.00  0.00    +0.000 A 
ATOM     12  C   UNL     1      -8.157  -0.872  21.220  0.00  0.00    +0.000 A 
ATOM     13  C   UNL     1      -8.077  -2.044  21.960  0.00  0.00    +0.000 A 
ATOM     14  C   UNL     1      -8.583  -3.254  21.475  0.00  0.00    +0.000 A 
ATOM     15  C   UNL     1      -9.123  -3.239  20.190  0.00  0.00    +0.000 A 
ATOM     16  H   UNL     1      -9.220  -4.038  16.105  0.00  0.00    +0.000 HD
ATOM     17  H   UNL     1     -12.591  -1.667  18.941  0.00  0.00    +0.000 HD
ATOM     18  H   UNL     1      -9.140   0.091  19.545  0.00  0.00    +0.000 HD
ATOM     19  H   UNL     1      -7.614   0.019  21.510  0.00  0.00    +0.000 HD
ENDROOT
BRANCH   2  20
ATOM     20  C   UNL     1      -9.167  -6.359  17.897  0.00  0.00    +0.000 A 
ATOM     21  C   UNL     1      -8.076  -6.676  17.092  0.00  0.00    +0.000 A 
ATOM     22  C   UNL     1      -8.057  -7.928  16.445  0.00  0.00    +0.000 A 
ATOM     23  C   UNL     1      -9.113  -8.853  16.603  0.00  0.00    +0.000 A 
ATOM     24  C   UNL     1     -10.300  -8.344  17.179  0.00  0.00    +0.000 A 
ATOM     25  C   UNL     1     -10.332  -7.110  17.827  0.00  0.00    +0.000 A 
ATOM     26  H   UNL     1      -7.166  -6.082  17.130  0.00  0.00    +0.000 HD
ATOM     27  H   UNL     1      -7.115  -8.215  15.981  0.00  0.00    +0.000 HD
ATOM     28  H   UNL     1     -11.200  -8.944  17.268  0.00  0.00    +0.000 HD
ATOM     29  H   UNL     1     -11.207  -6.825  18.406  0.00  0.00    +0.000 HD
BRANCH  23  30
ATOM     30  C   UNL     1      -8.943 -10.332  16.387  0.00  0.00    +0.000 A 
ATOM     31  C   UNL     1      -8.716 -10.898  15.116  0.00  0.00    +0.000 A 
ATOM     32  C   UNL     1      -8.435 -12.265  14.944  0.00  0.00    +0.000 A 
ATOM     33  C   UNL     1      -8.383 -13.115  16.040  0.00  0.00    +0.000 A 
ATOM     34  C   UNL     1      -8.595 -12.598  17.307  0.00  0.00    +0.000 A 
ATOM     35  C   UNL     1      -8.860 -11.233  17.472  0.00  0.00    +0.000 A 
ATOM     36  H   UNL     1      -8.726 -10.292  14.214  0.00  0.00    +0.000 HD
ATOM     37  H   UNL     1      -8.251 -12.662  13.948  0.00  0.00    +0.000 HD
ATOM     38  H   UNL     1      -8.176 -14.174  15.911  0.00  0.00    +0.000 HD
ATOM     39  H   UNL     1      -8.548 -13.245  18.180  0.00  0.00    +0.000 HD
ATOM     40  H   UNL     1      -8.979 -10.900  18.498  0.00  0.00    +0.000 HD
ENDBRANCH  23  30
ENDBRANCH   2  20
BRANCH   6  41
ATOM     41  O   UNL     1     -11.599  -3.535  14.956  0.00  0.00    +0.000 OA
ATOM     42  H   UNL     1     -10.770  -3.671  14.460  0.00  0.00    +0.000 HD
ENDBRANCH   6  41
BRANCH   7  43
ATOM     43  O   UNL     1     -13.530  -2.762  16.705  0.00  0.00    +0.000 OA
ATOM     44  H   UNL     1     -13.793  -3.695  16.847  0.00  0.00    +0.000 HD
ENDBRANCH   7  43
BRANCH  13  45
ATOM     45  O   UNL     1      -7.473  -2.066  23.190  0.00  0.00    +0.000 OA
ATOM     46  H   UNL     1      -6.512  -2.024  23.050  0.00  0.00    +0.000 HD
ENDBRANCH  13  45
BRANCH  14  47
ATOM     47  O   UNL     1      -8.572  -4.369  22.261  0.00  0.00    +0.000 OA
ATOM     48  H   UNL     1      -7.635  -4.490  22.510  0.00  0.00    +0.000 HD
ENDBRANCH  14  47
TORSDOF 6
ENDMDL
MODEL 6
REMARK VINA RESULT:    -8.683      3.988      6.291
REMARK INTER + INTRA:         -11.354
REMARK INTER:                 -11.155
REMARK INTRA:                  -0.199
REMARK UNBOUND:                -0.640
REMARK  Name = 
REMARK  6 active torsions:
REMARK  status: ('A' for Active; 'I' for Inactive)
REMARK    1  A    between atoms: C_2  and  C_3
REMARK    2  A    between atoms: C_6  and  C_7
REMARK    3  A    between atoms: C_18  and  O_19
REMARK    4  A    between atoms: C_20  and  O_21
REMARK    5  A    between atoms: C_27  and  O_28
REMARK    6  A    between atoms: C_29  and  O_30
REMARK                            x       y       z     vdW  Elec       q    Type
REMARK                         _______ _______ _______ _____ _____    ______ ____
ROOT
ATOM      1  O   UNL     1      -8.277  -4.031  22.982  0.00  0.00    +0.000 OA
ATOM      2  C   UNL     1      -8.463  -3.230  22.060  0.00  0.00    +0.000 C 
ATOM      3  N   UNL     1      -8.886  -1.902  22.352  0.00  0.00    +0.000 N 
ATOM      4  C   UNL     1      -9.086  -0.886  21.404  0.00  0.00    +0.000 A 
ATOM      5  C   UNL     1      -8.720  -0.621  20.089  0.00  0.00    +0.000 A 
ATOM      6  C   UNL     1      -9.778  -0.193  19.285  0.00  0.00    +0.000 A 
ATOM      7  C   UNL     1     -11.032   0.070  19.836  0.00  0.00    +0.000 A 
ATOM      8  C   UNL     1     -11.175   0.269  21.209  0.00  0.00    +0.000 A 
ATOM      9  C   UNL     1     -10.090  -0.136  21.995  0.00  0.00    +0.000 A 
ATOM     10  C   UNL     1      -9.524   0.007  23.270  0.00  0.00    +0.000 A 
ATOM     11  C   UNL     1      -9.251   1.039  24.190  0.00  0.00    +0.000 A 
ATOM     12  C   UNL     1      -8.823   0.687  25.470  0.00  0.00    +0.000 A 
ATOM     13  C   UNL     1      -8.887  -0.645  25.857  0.00  0.00    +0.000 A 
ATOM     14  C   UNL     1      -9.078  -1.671  24.927  0.00  0.00    +0.000 A 
ATOM     15  C   UNL     1      -9.146  -1.299  23.586  0.00  0.00    +0.000 A 
ATOM     16  H   UNL     1      -7.766  -0.931  19.675  0.00  0.00    +0.000 HD
ATOM     17  H   UNL     1     -12.115   0.565  21.645  0.00  0.00    +0.000 HD
ATOM     18  H   UNL     1      -9.264   2.079  23.868  0.00  0.00    +0.000 HD
ATOM     19  H   UNL     1      -8.500   1.461  26.155  0.00  0.00    +0.000 HD
ENDROOT
BRANCH   2  20
ATOM     20  C   UNL     1      -8.103  -3.658  20.698  0.00  0.00    +0.000 A 
ATOM     21  C   UNL     1      -6.961  -4.413  20.442  0.00  0.00    +0.000 A 
ATOM     22  C   UNL     1      -7.007  -5.378  19.416  0.00  0.00    +0.000 A 
ATOM     23  C   UNL     1      -8.180  -5.591  18.658  0.00  0.00    +0.000 A 
ATOM     24  C   UNL     1      -9.179  -4.596  18.773  0.00  0.00    +0.000 A 
ATOM     25  C   UNL     1      -9.150  -3.638  19.786  0.00  0.00    +0.000 A 
ATOM     26  H   UNL     1      -6.131  -4.420  21.144  0.00  0.00    +0.000 HD
ATOM     27  H   UNL     1      -6.167  -6.070  19.370  0.00  0.00    +0.000 HD
ATOM     28  H   UNL     1     -10.082  -4.614  18.172  0.00  0.00    +0.000 HD
ATOM     29  H   UNL     1     -10.013  -2.999  19.953  0.00  0.00    +0.000 HD
BRANCH  23  30
ATOM     30  C   UNL     1      -8.468  -6.881  17.942  0.00  0.00    +0.000 A 
ATOM     31  C   UNL     1      -8.842  -8.063  18.616  0.00  0.00    +0.000 A 
ATOM     32  C   UNL     1      -9.229  -9.226  17.928  0.00  0.00    +0.000 A 
ATOM     33  C   UNL     1      -9.241  -9.251  16.540  0.00  0.00    +0.000 A 
ATOM     34  C   UNL     1      -8.884  -8.110  15.841  0.00  0.00    +0.000 A 
ATOM     35  C   UNL     1      -8.515  -6.950  16.533  0.00  0.00    +0.000 A 
ATOM     36  H   UNL     1      -8.871  -8.114  19.701  0.00  0.00    +0.000 HD
ATOM     37  H   UNL     1      -9.526 -10.113  18.483  0.00  0.00    +0.000 HD
ATOM     38  H   UNL     1      -9.528 -10.152  16.004  0.00  0.00    +0.000 HD
ATOM     39  H   UNL     1      -8.898  -8.106  14.753  0.00  0.00    +0.000 HD
ATOM     40  H   UNL     1      -8.284  -6.090  15.912  0.00  0.00    +0.000 HD
ENDBRANCH  23  30
ENDBRANCH   2  20
BRANCH   6  41
ATOM     41  O   UNL     1      -9.647  -0.124  17.930  0.00  0.00    +0.000 OA
ATOM     42  H   UNL     1      -8.692  -0.048  17.747  0.00  0.00    +0.000 HD
ENDBRANCH   6  41
BRANCH   7  43
ATOM     43  O   UNL     1     -12.125   0.137  19.018  0.00  0.00    +0.000 OA
ATOM     44  H   UNL     1     -11.751   0.292  18.126  0.00  0.00    +0.000 HD
ENDBRANCH   7  43
BRANCH  13  45
ATOM     45  O   UNL     1      -8.740  -1.009  27.170  0.00  0.00    +0.000 OA
ATOM     46  H   UNL     1      -7.794  -1.169  27.330  0.00  0.00    +0.000 HD
ENDBRANCH  13  45
BRANCH  14  47
ATOM     47  O   UNL     1      -9.228  -2.961  25.346  0.00  0.00    +0.000 OA
ATOM     48  H   UNL     1     -10.177  -3.044  25.565  0.00  0.00    +0.000 HD
ENDBRANCH  14  47
TORSDOF 6
ENDMDL
MODEL 7
REMARK VINA RESULT:    -8.678      5.929     11.158
REMARK INTER + INTRA:         -11.348
REMARK INTER:                 -10.540
REMARK INTRA:                  -0.808
REMARK UNBOUND:                -0.640
REMARK  Name = 
REMARK  6 active torsions:
REMARK  status: ('A' for Active; 'I' for Inactive)
REMARK    1  A    between atoms: C_2  and  C_3
REMARK    2  A    between atoms: C_6  and  C_7
REMARK    3  A    between atoms: C_18  and  O_19
REMARK    4  A    between atoms: C_20  and  O_21
REMARK    5  A    between atoms: C_27  and  O_28
REMARK    6  A    between atoms: C_29  and  O_30
REMARK                            x       y       z     vdW  Elec       q    Type
REMARK                         _______ _______ _______ _____ _____    ______ ____
ROOT
ATOM      1  O   UNL     1     -10.312  -2.745  19.435  0.00  0.00    +0.000 OA
ATOM      2  C   UNL     1     -10.027  -2.124  20.465  0.00  0.00    +0.000 C 
ATOM      3  N   UNL     1      -8.903  -2.523  21.242  0.00  0.00    +0.000 N 
ATOM      4  C   UNL     1      -8.445  -1.877  22.401  0.00  0.00    +0.000 A 
ATOM      5  C   UNL     1      -8.595  -0.637  23.013  0.00  0.00    +0.000 A 
ATOM      6  C   UNL     1      -8.871  -0.712  24.379  0.00  0.00    +0.000 A 
ATOM      7  C   UNL     1      -8.841  -1.938  25.047  0.00  0.00    +0.000 A 
ATOM      8  C   UNL     1      -8.197  -3.037  24.482  0.00  0.00    +0.000 A 
ATOM      9  C   UNL     1      -7.897  -2.928  23.119  0.00  0.00    +0.000 A 
ATOM     10  C   UNL     1      -7.107  -3.487  22.104  0.00  0.00    +0.000 A 
ATOM     11  C   UNL     1      -5.776  -3.911  21.921  0.00  0.00    +0.000 A 
ATOM     12  C   UNL     1      -5.458  -4.603  20.751  0.00  0.00    +0.000 A 
ATOM     13  C   UNL     1      -6.487  -5.032  19.924  0.00  0.00    +0.000 A 
ATOM     14  C   UNL     1      -7.791  -4.545  20.060  0.00  0.00    +0.000 A 
ATOM     15  C   UNL     1      -7.997  -3.567  21.031  0.00  0.00    +0.000 A 
ATOM     16  H   UNL     1      -8.710   0.283  22.448  0.00  0.00    +0.000 HD
ATOM     17  H   UNL     1      -8.080  -3.964  25.018  0.00  0.00    +0.000 HD
ATOM     18  H   UNL     1      -5.001  -3.603  22.620  0.00  0.00    +0.000 HD
ATOM     19  H   UNL     1      -4.423  -4.838  20.538  0.00  0.00    +0.000 HD
ENDROOT
BRANCH   2  20
ATOM     20  C   UNL     1     -10.797  -0.905  20.765  0.00  0.00    +0.000 A 
ATOM     21  C   UNL     1     -11.660  -0.830  21.855  0.00  0.00    +0.000 A 
ATOM     22  C   UNL     1     -11.781   0.397  22.537  0.00  0.00    +0.000 A 
ATOM     23  C   UNL     1     -11.044   1.535  22.138  0.00  0.00    +0.000 A 
ATOM     24  C   UNL     1     -10.434   1.461  20.864  0.00  0.00    +0.000 A 
ATOM     25  C   UNL     1     -10.303   0.253  20.180  0.00  0.00    +0.000 A 
ATOM     26  H   UNL     1     -12.064  -1.733  22.308  0.00  0.00    +0.000 HD
ATOM     27  H   UNL     1     -12.314   0.369  23.485  0.00  0.00    +0.000 HD
ATOM     28  H   UNL     1      -9.918   2.308  20.423  0.00  0.00    +0.000 HD
ATOM     29  H   UNL     1      -9.682   0.198  19.290  0.00  0.00    +0.000 HD
BRANCH  23  30
ATOM     30  C   UNL     1     -10.730   2.672  23.070  0.00  0.00    +0.000 A 
ATOM     31  C   UNL     1     -11.656   3.171  24.009  0.00  0.00    +0.000 A 
ATOM     32  C   UNL     1     -11.309   4.149  24.957  0.00  0.00    +0.000 A 
ATOM     33  C   UNL     1     -10.023   4.671  24.990  0.00  0.00    +0.000 A 
ATOM     34  C   UNL     1      -9.082   4.205  24.088  0.00  0.00    +0.000 A 
ATOM     35  C   UNL     1      -9.431   3.220  23.156  0.00  0.00    +0.000 A 
ATOM     36  H   UNL     1     -12.677   2.799  24.053  0.00  0.00    +0.000 HD
ATOM     37  H   UNL     1     -12.048   4.497  25.675  0.00  0.00    +0.000 HD
ATOM     38  H   UNL     1      -9.753   5.435  25.715  0.00  0.00    +0.000 HD
ATOM     39  H   UNL     1      -8.066   4.593  24.105  0.00  0.00    +0.000 HD
ATOM     40  H   UNL     1      -8.627   2.884  22.509  0.00  0.00    +0.000 HD
ENDBRANCH  23  30
ENDBRANCH   2  20
BRANCH   6  41
ATOM     41  O   UNL     1      -9.281   0.385  25.075  0.00  0.00    +0.000 OA
ATOM     42  H   UNL     1     -10.250   0.432  24.973  0.00  0.00    +0.000 HD
ENDBRANCH   6  41
BRANCH   7  43
ATOM     43  O   UNL     1      -9.448  -2.053  26.266  0.00  0.00    +0.000 OA
ATOM     44  H   UNL     1     -10.354  -1.710  26.119  0.00  0.00    +0.000 HD
ENDBRANCH   7  43
BRANCH  13  45
ATOM     45  O   UNL     1      -6.259  -5.936  18.920  0.00  0.00    +0.000 OA
ATOM     46  H   UNL     1      -5.904  -6.746  19.325  0.00  0.00    +0.000 HD
ENDBRANCH  13  45
BRANCH  14  47
ATOM     47  O   UNL     1      -8.799  -5.053  19.294  0.00  0.00    +0.000 OA
ATOM     48  H   UNL     1      -8.352  -5.430  18.511  0.00  0.00    +0.000 HD
ENDBRANCH  14  47
TORSDOF 6
ENDMDL
MODEL 8
REMARK VINA RESULT:    -8.632      5.519      7.802
REMARK INTER + INTRA:         -11.291
REMARK INTER:                 -10.401
REMARK INTRA:                  -0.890
REMARK UNBOUND:                -0.640
REMARK  Name = 
REMARK  6 active torsions:
REMARK  status: ('A' for Active; 'I' for Inactive)
REMARK    1  A    between atoms: C_2  and  C_3
REMARK    2  A    between atoms: C_6  and  C_7
REMARK    3  A    between atoms: C_18  and  O_19
REMARK    4  A    between atoms: C_20  and  O_21
REMARK    5  A    between atoms: C_27  and  O_28
REMARK    6  A    between atoms: C_29  and  O_30
REMARK                            x       y       z     vdW  Elec       q    Type
REMARK                         _______ _______ _______ _____ _____    ______ ____
ROOT
ATOM      1  O   UNL     1      -9.353  -3.364  18.358  0.00  0.00    +0.000 OA
ATOM      2  C   UNL     1     -10.011  -2.376  18.702  0.00  0.00    +0.000 C 
ATOM      3  N   UNL     1      -9.832  -1.827  20.003  0.00  0.00    +0.000 N 
ATOM      4  C   UNL     1     -10.478  -0.683  20.499  0.00  0.00    +0.000 A 
ATOM      5  C   UNL     1     -11.163   0.414  19.985  0.00  0.00    +0.000 A 
ATOM      6  C   UNL     1     -12.367   0.682  20.638  0.00  0.00    +0.000 A 
ATOM      7  C   UNL     1     -12.729  -0.024  21.786  0.00  0.00    +0.000 A 
ATOM      8  C   UNL     1     -11.775  -0.734  22.512  0.00  0.00    +0.000 A 
ATOM      9  C   UNL     1     -10.561  -0.964  21.853  0.00  0.00    +0.000 A 
ATOM     10  C   UNL     1      -9.227  -1.334  22.074  0.00  0.00    +0.000 A 
ATOM     11  C   UNL     1      -8.185  -1.027  22.972  0.00  0.00    +0.000 A 
ATOM     12  C   UNL     1      -7.025  -1.801  22.928  0.00  0.00    +0.000 A 
ATOM     13  C   UNL     1      -7.021  -2.962  22.166  0.00  0.00    +0.000 A 
ATOM     14  C   UNL     1      -8.016  -3.222  21.219  0.00  0.00    +0.000 A 
ATOM     15  C   UNL     1      -8.982  -2.235  21.036  0.00  0.00    +0.000 A 
ATOM     16  H   UNL     1     -10.902   0.873  19.037  0.00  0.00    +0.000 HD
ATOM     17  H   UNL     1     -12.011  -1.208  23.450  0.00  0.00    +0.000 HD
ATOM     18  H   UNL     1      -8.244  -0.138  23.597  0.00  0.00    +0.000 HD
ATOM     19  H   UNL     1      -6.171  -1.514  23.528  0.00  0.00    +0.000 HD
ENDROOT
BRANCH   2  20
ATOM     20  C   UNL     1     -10.858  -1.729  17.686  0.00  0.00    +0.000 A 
ATOM     21  C   UNL     1     -10.333  -0.852  16.741  0.00  0.00    +0.000 A 
ATOM     22  C   UNL     1     -10.890  -0.842  15.447  0.00  0.00    +0.000 A 
ATOM     23  C   UNL     1     -11.956  -1.701  15.099  0.00  0.00    +0.000 A 
ATOM     24  C   UNL     1     -12.619  -2.332  16.177  0.00  0.00    +0.000 A 
ATOM     25  C   UNL     1     -12.077  -2.355  17.462  0.00  0.00    +0.000 A 
ATOM     26  H   UNL     1      -9.386  -0.346  16.917  0.00  0.00    +0.000 HD
ATOM     27  H   UNL     1     -10.339  -0.285  14.691  0.00  0.00    +0.000 HD
ATOM     28  H   UNL     1     -13.503  -2.943  16.031  0.00  0.00    +0.000 HD
ATOM     29  H   UNL     1     -12.519  -2.988  18.226  0.00  0.00    +0.000 HD
BRANCH  23  30
ATOM     30  C   UNL     1     -12.248  -2.108  13.681  0.00  0.00    +0.000 A 
ATOM     31  C   UNL     1     -12.982  -1.301  12.789  0.00  0.00    +0.000 A 
ATOM     32  C   UNL     1     -13.141  -1.635  11.432  0.00  0.00    +0.000 A 
ATOM     33  C   UNL     1     -12.579  -2.799  10.926  0.00  0.00    +0.000 A 
ATOM     34  C   UNL     1     -11.846  -3.618  11.768  0.00  0.00    +0.000 A 
ATOM     35  C   UNL     1     -11.680  -3.271  13.114  0.00  0.00    +0.000 A 
ATOM     36  H   UNL     1     -13.438  -0.368  13.110  0.00  0.00    +0.000 HD
ATOM     37  H   UNL     1     -13.702  -0.979  10.772  0.00  0.00    +0.000 HD
ATOM     38  H   UNL     1     -12.708  -3.068   9.880  0.00  0.00    +0.000 HD
ATOM     39  H   UNL     1     -11.388  -4.529  11.388  0.00  0.00    +0.000 HD
ATOM     40  H   UNL     1     -11.063  -3.946  13.698  0.00  0.00    +0.000 HD
ENDBRANCH  23  30
ENDBRANCH   2  20
BRANCH   6  41
ATOM     41  O   UNL     1     -13.269   1.560  20.116  0.00  0.00    +0.000 OA
ATOM     42  H   UNL     1     -13.361   1.334  19.171  0.00  0.00    +0.000 HD
ENDBRANCH   6  41
BRANCH   7  43
ATOM     43  O   UNL     1     -14.032  -0.011  22.199  0.00  0.00    +0.000 OA
ATOM     44  H   UNL     1     -14.546  -0.184  21.384  0.00  0.00    +0.000 HD
ENDBRANCH   7  43
BRANCH  13  45
ATOM     45  O   UNL     1      -6.023  -3.892  22.297  0.00  0.00    +0.000 OA
ATOM     46  H   UNL     1      -5.529  -3.918  21.458  0.00  0.00    +0.000 HD
ENDBRANCH  13  45
BRANCH  14  47
ATOM     47  O   UNL     1      -8.036  -4.411  20.550  0.00  0.00    +0.000 OA
ATOM     48  H   UNL     1      -7.137  -4.776  20.663  0.00  0.00    +0.000 HD
ENDBRANCH  14  47
TORSDOF 6
ENDMDL
