MODEL 1
REMARK VINA RESULT:   -10.408      0.000      0.000
REMARK INTER + INTRA:         -13.082
REMARK INTER:                 -12.842
REMARK INTRA:                  -0.240
REMARK UNBOUND:                -0.240
REMARK  Name = 
REMARK  5 active torsions:
REMARK  status: ('A' for Active; 'I' for Inactive)
REMARK    1  A    between atoms: C_1  and  C_2
REMARK    2  A    between atoms: C_2  and  N_3
REMARK    3  A    between atoms: N_8  and  C_9
REMARK    4  A    between atoms: N_18  and  C_19
REMARK    5  A    between atoms: C_23  and  N_24
REMARK                            x       y       z     vdW  Elec       q    Type
REMARK                         _______ _______ _______ _____ _____    ______ ____
ROOT
ATOM      1  N   UNL     1      -7.764  -5.223  19.653  0.00  0.00    +0.000 N 
ATOM      2  C   UNL     1      -8.455  -4.067  19.420  0.00  0.00    +0.000 A 
ATOM      3  N   UNL     1      -9.571  -4.297  18.770  0.00  0.00    +0.000 NA
ATOM      4  C   UNL     1      -9.596  -5.667  18.575  0.00  0.00    +0.000 A 
ATOM      5  C   UNL     1     -10.507  -6.516  17.930  0.00  0.00    +0.000 A 
ATOM      6  N   UNL     1     -11.649  -6.033  17.280  0.00  0.00    +0.000 N 
ATOM      7  N   UNL     1     -10.271  -7.859  17.979  0.00  0.00    +0.000 NA
ATOM      8  C   UNL     1      -9.144  -8.320  18.565  0.00  0.00    +0.000 A 
ATOM      9  N   UNL     1      -8.850  -9.677  18.562  0.00  0.00    +0.000 N 
ATOM     10  N   UNL     1      -8.198  -7.569  19.162  0.00  0.00    +0.000 NA
ATOM     11  C   UNL     1      -8.495  -6.261  19.143  0.00  0.00    +0.000 A 
ATOM     12  H   UNL     1      -8.102  -3.093  19.729  0.00  0.00    +0.000 HD
ATOM     13  H   UNL     1     -12.394  -6.710  17.214  0.00  0.00    +0.000 HD
ATOM     14  H   UNL     1      -7.867  -9.761  18.795  0.00  0.00    +0.000 HD
ENDROOT
BRANCH   9  15
ATOM     15  C   UNL     1      -9.307 -10.501  17.447  0.00  0.00    +0.000 C 
ATOM     16  C   UNL     1      -8.818  -9.933  16.103  0.00  0.00    +0.000 C 
ATOM     17  C   UNL     1      -9.155 -10.853  14.935  0.00  0.00    +0.000 C 
ATOM     18  C   UNL     1      -8.594 -12.255  15.145  0.00  0.00    +0.000 C 
ATOM     19  C   UNL     1      -9.083 -12.851  16.468  0.00  0.00    +0.000 C 
ATOM     20  C   UNL     1      -8.754 -11.928  17.650  0.00  0.00    +0.000 C 
ATOM     21  H   UNL     1     -10.403 -10.557  17.449  0.00  0.00    +0.000 HD
ATOM     22  H   UNL     1      -7.732  -9.775  16.141  0.00  0.00    +0.000 HD
ATOM     23  H   UNL     1      -9.267  -8.951  15.914  0.00  0.00    +0.000 HD
ATOM     24  H   UNL     1      -8.750 -10.431  14.009  0.00  0.00    +0.000 HD
ATOM     25  H   UNL     1     -10.243 -10.908  14.813  0.00  0.00    +0.000 HD
ATOM     26  H   UNL     1      -7.497 -12.209  15.130  0.00  0.00    +0.000 HD
ATOM     27  H   UNL     1      -8.896 -12.894  14.306  0.00  0.00    +0.000 HD
ATOM     28  H   UNL     1     -10.170 -12.984  16.420  0.00  0.00    +0.000 HD
ATOM     29  H   UNL     1      -7.664 -11.882  17.788  0.00  0.00    +0.000 HD
ATOM     30  H   UNL     1      -9.161 -12.351  18.577  0.00  0.00    +0.000 HD
BRANCH  19  31
ATOM     31  N   UNL     1      -8.480 -14.171  16.673  0.00  0.00    +0.000 NA
ATOM     32  H   UNL     1      -7.480 -14.076  16.847  0.00  0.00    +0.000 HD
ATOM     33  H   UNL     1      -8.563 -14.721  15.819  0.00  0.00    +0.000 HD
ENDBRANCH  19  31
ENDBRANCH   9  15
BRANCH   6  34
ATOM     34  C   UNL     1     -11.784  -4.849  16.533  0.00  0.00    +0.000 A 
ATOM     35  C   UNL     1     -12.268  -3.691  17.152  0.00  0.00    +0.000 A 
ATOM     36  C   UNL     1     -12.365  -2.487  16.447  0.00  0.00    +0.000 A 
ATOM     37  C   UNL     1     -11.982  -2.426  15.108  0.00  0.00    +0.000 A 
ATOM     38  C   UNL     1     -11.483  -3.565  14.486  0.00  0.00    +0.000 A 
ATOM     39 CL   UNL     1     -11.027  -3.508  12.826  0.00  0.00    +0.000 Cl
ATOM     40  C   UNL     1     -11.372  -4.761  15.193  0.00  0.00    +0.000 A 
ATOM     41  H   UNL     1     -12.549  -3.715  18.201  0.00  0.00    +0.000 HD
ATOM     42  H   UNL     1     -12.737  -1.596  16.945  0.00  0.00    +0.000 HD
ATOM     43  H   UNL     1     -12.073  -1.494  14.557  0.00  0.00    +0.000 HD
ATOM     44  H   UNL     1     -10.972  -5.634  14.684  0.00  0.00    +0.000 HD
ENDBRANCH   6  34
BRANCH   1  45
ATOM     45  C   UNL     1      -6.468  -5.311  20.280  0.00  0.00    +0.000 C 
ATOM     46  H   UNL     1      -6.303  -4.385  20.834  0.00  0.00    +0.000 HD
ATOM     47  H   UNL     1      -6.491  -6.136  21.003  0.00  0.00    +0.000 HD
BRANCH  45  48
ATOM     48  C   UNL     1      -5.370  -5.526  19.253  0.00  0.00    +0.000 C 
ATOM     49  H   UNL     1      -5.779  -5.471  18.241  0.00  0.00    +0.000 HD
ATOM     50  H   UNL     1      -4.898  -6.507  19.382  0.00  0.00    +0.000 HD
ATOM     51  H   UNL     1      -4.585  -4.768  19.350  0.00  0.00    +0.000 HD
ENDBRANCH  45  48
ENDBRANCH   1  45
TORSDOF 5
ENDMDL
MODEL 2
REMARK VINA RESULT:   -10.102      0.973      1.342
REMARK INTER + INTRA:         -12.704
REMARK INTER:                 -12.511
REMARK INTRA:                  -0.193
REMARK UNBOUND:                -0.240
REMARK  Name = 
REMARK  5 active torsions:
REMARK  status: ('A' for Active; 'I' for Inactive)
REMARK    1  A    between atoms: C_1  and  C_2
REMARK    2  A    between atoms: C_2  and  N_3
REMARK    3  A    between atoms: N_8  and  C_9
REMARK    4  A    between atoms: N_18  and  C_19
REMARK    5  A    between atoms: C_23  and  N_24
REMARK                            x       y       z     vdW  Elec       q    Type
REMARK                         _______ _______ _______ _____ _____    ______ ____
ROOT
ATOM      1  N   UNL     1      -7.901  -5.164  19.604  0.00  0.00    +0.000 N 
ATOM      2  C   UNL     1      -8.555  -4.003  19.300  0.00  0.00    +0.000 A 
ATOM      3  N   UNL     1      -9.624  -4.230  18.575  0.00  0.00    +0.000 NA
ATOM      4  C   UNL     1      -9.656  -5.603  18.404  0.00  0.00    +0.000 A 
ATOM      5  C   UNL     1     -10.532  -6.453  17.712  0.00  0.00    +0.000 A 
ATOM      6  N   UNL     1     -11.616  -5.967  16.971  0.00  0.00    +0.000 N 
ATOM      7  N   UNL     1     -10.320  -7.797  17.803  0.00  0.00    +0.000 NA
ATOM      8  C   UNL     1      -9.245  -8.262  18.478  0.00  0.00    +0.000 A 
ATOM      9  N   UNL     1      -8.973  -9.623  18.522  0.00  0.00    +0.000 N 
ATOM     10  N   UNL     1      -8.334  -7.513  19.128  0.00  0.00    +0.000 NA
ATOM     11  C   UNL     1      -8.608  -6.202  19.062  0.00  0.00    +0.000 A 
ATOM     12  H   UNL     1      -8.210  -3.028  19.614  0.00  0.00    +0.000 HD
ATOM     13  H   UNL     1     -12.365  -6.635  16.864  0.00  0.00    +0.000 HD
ATOM     14  H   UNL     1      -8.010  -9.716  18.827  0.00  0.00    +0.000 HD
ENDROOT
BRANCH   9  15
ATOM     15  C   UNL     1      -9.361 -10.463  17.392  0.00  0.00    +0.000 C 
ATOM     16  C   UNL     1      -8.816  -9.897  16.070  0.00  0.00    +0.000 C 
ATOM     17  C   UNL     1      -9.079 -10.830  14.894  0.00  0.00    +0.000 C 
ATOM     18  C   UNL     1      -8.506 -12.221  15.142  0.00  0.00    +0.000 C 
ATOM     19  C   UNL     1      -9.049 -12.816  16.445  0.00  0.00    +0.000 C 
ATOM     20  C   UNL     1      -8.793 -11.879  17.634  0.00  0.00    +0.000 C 
ATOM     21  H   UNL     1     -10.455 -10.538  17.342  0.00  0.00    +0.000 HD
ATOM     22  H   UNL     1      -7.736  -9.719  16.160  0.00  0.00    +0.000 HD
ATOM     23  H   UNL     1      -9.272  -8.924  15.851  0.00  0.00    +0.000 HD
ATOM     24  H   UNL     1      -8.637 -10.408  13.986  0.00  0.00    +0.000 HD
ATOM     25  H   UNL     1     -10.159 -10.905  14.719  0.00  0.00    +0.000 HD
ATOM     26  H   UNL     1      -7.410 -12.156  15.181  0.00  0.00    +0.000 HD
ATOM     27  H   UNL     1      -8.756 -12.871  14.296  0.00  0.00    +0.000 HD
ATOM     28  H   UNL     1     -10.130 -12.968  16.345  0.00  0.00    +0.000 HD
ATOM     29  H   UNL     1      -7.713 -11.812  17.825  0.00  0.00    +0.000 HD
ATOM     30  H   UNL     1      -9.239 -12.302  18.544  0.00  0.00    +0.000 HD
BRANCH  19  31
ATOM     31  N   UNL     1      -8.435 -14.123  16.690  0.00  0.00    +0.000 NA
ATOM     32  H   UNL     1      -8.263 -14.248  17.687  0.00  0.00    +0.000 HD
ATOM     33  H   UNL     1      -7.519 -14.161  16.243  0.00  0.00    +0.000 HD
ENDBRANCH  19  31
ENDBRANCH   9  15
BRANCH   6  34
ATOM     34  C   UNL     1     -11.678  -4.797  16.193  0.00  0.00    +0.000 A 
ATOM     35  C   UNL     1     -11.323  -4.847  14.841  0.00  0.00    +0.000 A 
ATOM     36  C   UNL     1     -11.423  -3.711  14.030  0.00  0.00    +0.000 A 
ATOM     37  C   UNL     1     -11.878  -2.506  14.564  0.00  0.00    +0.000 A 
ATOM     38  C   UNL     1     -12.250  -2.448  15.903  0.00  0.00    +0.000 A 
ATOM     39 CL   UNL     1     -12.792  -0.960  16.580  0.00  0.00    +0.000 Cl
ATOM     40  C   UNL     1     -12.165  -3.584  16.706  0.00  0.00    +0.000 A 
ATOM     41  H   UNL     1     -10.988  -5.783  14.402  0.00  0.00    +0.000 HD
ATOM     42  H   UNL     1     -11.149  -3.769  12.981  0.00  0.00    +0.000 HD
ATOM     43  H   UNL     1     -11.939  -1.621  13.937  0.00  0.00    +0.000 HD
ATOM     44  H   UNL     1     -12.470  -3.511  17.747  0.00  0.00    +0.000 HD
ENDBRANCH   6  34
BRANCH   1  45
ATOM     45  C   UNL     1      -6.655  -5.257  20.325  0.00  0.00    +0.000 C 
ATOM     46  H   UNL     1      -6.516  -4.321  20.871  0.00  0.00    +0.000 HD
ATOM     47  H   UNL     1      -6.743  -6.066  21.061  0.00  0.00    +0.000 HD
BRANCH  45  48
ATOM     48  C   UNL     1      -5.489  -5.509  19.385  0.00  0.00    +0.000 C 
ATOM     49  H   UNL     1      -5.499  -6.546  19.036  0.00  0.00    +0.000 HD
ATOM     50  H   UNL     1      -4.532  -5.324  19.887  0.00  0.00    +0.000 HD
ATOM     51  H   UNL     1      -5.536  -4.850  18.511  0.00  0.00    +0.000 HD
ENDBRANCH  45  48
ENDBRANCH   1  45
TORSDOF 5
ENDMDL
MODEL 3
REMARK VINA RESULT:    -9.523      1.318      1.776
REMARK INTER + INTRA:         -11.989
REMARK INTER:                 -11.681
REMARK INTRA:                  -0.308
REMARK UNBOUND:                -0.240
REMARK  Name = 
REMARK  5 active torsions:
REMARK  status: ('A' for Active; 'I' for Inactive)
REMARK    1  A    between atoms: C_1  and  C_2
REMARK    2  A    between atoms: C_2  and  N_3
REMARK    3  A    between atoms: N_8  and  C_9
REMARK    4  A    between atoms: N_18  and  C_19
REMARK    5  A    between atoms: C_23  and  N_24
REMARK                            x       y       z     vdW  Elec       q    Type
REMARK                         _______ _______ _______ _____ _____    ______ ____
ROOT
ATOM      1  N   UNL     1      -8.662  -4.875  19.442  0.00  0.00    +0.000 N 
ATOM      2  C   UNL     1      -9.158  -3.697  18.955  0.00  0.00    +0.000 A 
ATOM      3  N   UNL     1      -9.977  -3.901  17.951  0.00  0.00    +0.000 NA
ATOM      4  C   UNL     1     -10.007  -5.274  17.785  0.00  0.00    +0.000 A 
ATOM      5  C   UNL     1     -10.673  -6.105  16.871  0.00  0.00    +0.000 A 
ATOM      6  N   UNL     1     -11.477  -5.594  15.845  0.00  0.00    +0.000 N 
ATOM      7  N   UNL     1     -10.546  -7.454  17.027  0.00  0.00    +0.000 NA
ATOM      8  C   UNL     1      -9.731  -7.944  17.988  0.00  0.00    +0.000 A 
ATOM      9  N   UNL     1      -9.532  -9.312  18.116  0.00  0.00    +0.000 N 
ATOM     10  N   UNL     1      -9.022  -7.215  18.871  0.00  0.00    +0.000 NA
ATOM     11  C   UNL     1      -9.218  -5.897  18.722  0.00  0.00    +0.000 A 
ATOM     12  H   UNL     1      -8.884  -2.730  19.351  0.00  0.00    +0.000 HD
ATOM     13  H   UNL     1     -12.186  -6.239  15.528  0.00  0.00    +0.000 HD
ATOM     14  H   UNL     1      -8.704  -9.432  18.689  0.00  0.00    +0.000 HD
ENDROOT
BRANCH   9  15
ATOM     15  C   UNL     1      -9.604 -10.155  16.926  0.00  0.00    +0.000 C 
ATOM     16  C   UNL     1      -8.772  -9.562  15.777  0.00  0.00    +0.000 C 
ATOM     17  C   UNL     1      -8.709 -10.495  14.572  0.00  0.00    +0.000 C 
ATOM     18  C   UNL     1      -8.168 -11.868  14.954  0.00  0.00    +0.000 C 
ATOM     19  C   UNL     1      -8.993 -12.490  16.085  0.00  0.00    +0.000 C 
ATOM     20  C   UNL     1      -9.067 -11.554  17.299  0.00  0.00    +0.000 C 
ATOM     21  H   UNL     1     -10.650 -10.265  16.610  0.00  0.00    +0.000 HD
ATOM     22  H   UNL     1      -7.754  -9.351  16.127  0.00  0.00    +0.000 HD
ATOM     23  H   UNL     1      -9.192  -8.603  15.452  0.00  0.00    +0.000 HD
ATOM     24  H   UNL     1      -8.072 -10.052  13.799  0.00  0.00    +0.000 HD
ATOM     25  H   UNL     1      -9.711 -10.603  14.139  0.00  0.00    +0.000 HD
ATOM     26  H   UNL     1      -7.118 -11.768  15.259  0.00  0.00    +0.000 HD
ATOM     27  H   UNL     1      -8.182 -12.520  14.072  0.00  0.00    +0.000 HD
ATOM     28  H   UNL     1     -10.011 -12.676  15.724  0.00  0.00    +0.000 HD
ATOM     29  H   UNL     1      -8.069 -11.454  17.749  0.00  0.00    +0.000 HD
ATOM     30  H   UNL     1      -9.707 -11.998  18.073  0.00  0.00    +0.000 HD
BRANCH  19  31
ATOM     31  N   UNL     1      -8.415 -13.779  16.473  0.00  0.00    +0.000 NA
ATOM     32  H   UNL     1      -8.812 -14.526  15.905  0.00  0.00    +0.000 HD
ATOM     33  H   UNL     1      -8.673 -13.994  17.436  0.00  0.00    +0.000 HD
ENDBRANCH  19  31
ENDBRANCH   9  15
BRANCH   6  34
ATOM     34  C   UNL     1     -11.268  -4.435  15.077  0.00  0.00    +0.000 A 
ATOM     35  C   UNL     1     -10.312  -4.445  14.056  0.00  0.00    +0.000 A 
ATOM     36  C   UNL     1     -10.118  -3.323  13.242  0.00  0.00    +0.000 A 
ATOM     37  C   UNL     1     -10.877  -2.171  13.444  0.00  0.00    +0.000 A 
ATOM     38  C   UNL     1     -11.843  -2.155  14.445  0.00  0.00    +0.000 A 
ATOM     39 CL   UNL     1     -12.772  -0.730  14.718  0.00  0.00    +0.000 Cl
ATOM     40  C   UNL     1     -12.046  -3.278  15.244  0.00  0.00    +0.000 A 
ATOM     41  H   UNL     1      -9.727  -5.342  13.869  0.00  0.00    +0.000 HD
ATOM     42  H   UNL     1      -9.376  -3.351  12.450  0.00  0.00    +0.000 HD
ATOM     43  H   UNL     1     -10.714  -1.296  12.822  0.00  0.00    +0.000 HD
ATOM     44  H   UNL     1     -12.813  -3.239  16.014  0.00  0.00    +0.000 HD
ENDBRANCH   6  34
BRANCH   1  45
ATOM     45  C   UNL     1      -7.684  -4.998  20.495  0.00  0.00    +0.000 C 
ATOM     46  H   UNL     1      -7.859  -5.950  21.001  0.00  0.00    +0.000 HD
ATOM     47  H   UNL     1      -6.688  -5.039  20.036  0.00  0.00    +0.000 HD
BRANCH  45  48
ATOM     48  C   UNL     1      -7.778  -3.843  21.476  0.00  0.00    +0.000 C 
ATOM     49  H   UNL     1      -7.025  -3.949  22.262  0.00  0.00    +0.000 HD
ATOM     50  H   UNL     1      -8.766  -3.808  21.949  0.00  0.00    +0.000 HD
ATOM     51  H   UNL     1      -7.620  -2.883  20.973  0.00  0.00    +0.000 HD
ENDBRANCH  45  48
ENDBRANCH   1  45
TORSDOF 5
ENDMDL
MODEL 4
REMARK VINA RESULT:    -9.434      2.604      6.734
REMARK INTER + INTRA:         -11.880
REMARK INTER:                 -12.749
REMARK INTRA:                   0.869
REMARK UNBOUND:                -0.240
REMARK  Name = 
REMARK  5 active torsions:
REMARK  status: ('A' for Active; 'I' for Inactive)
REMARK    1  A    between atoms: C_1  and  C_2
REMARK    2  A    between atoms: C_2  and  N_3
REMARK    3  A    between atoms: N_8  and  C_9
REMARK    4  A    between atoms: N_18  and  C_19
REMARK    5  A    between atoms: C_23  and  N_24
REMARK                            x       y       z     vdW  Elec       q    Type
REMARK                         _______ _______ _______ _____ _____    ______ ____
ROOT
ATOM      1  N   UNL     1      -9.383  -8.930  18.283  0.00  0.00    +0.000 N 
ATOM      2  C   UNL     1      -8.724  -8.712  19.461  0.00  0.00    +0.000 A 
ATOM      3  N   UNL     1      -8.725  -7.441  19.783  0.00  0.00    +0.000 NA
ATOM      4  C   UNL     1      -9.415  -6.813  18.762  0.00  0.00    +0.000 A 
ATOM      5  C   UNL     1      -9.732  -5.468  18.519  0.00  0.00    +0.000 A 
ATOM      6  N   UNL     1      -9.310  -4.435  19.365  0.00  0.00    +0.000 N 
ATOM      7  N   UNL     1     -10.506  -5.182  17.432  0.00  0.00    +0.000 NA
ATOM      8  C   UNL     1     -10.872  -6.174  16.590  0.00  0.00    +0.000 A 
ATOM      9  N   UNL     1     -11.598  -5.894  15.441  0.00  0.00    +0.000 N 
ATOM     10  N   UNL     1     -10.569  -7.480  16.727  0.00  0.00    +0.000 NA
ATOM     11  C   UNL     1      -9.857  -7.727  17.836  0.00  0.00    +0.000 A 
ATOM     12  H   UNL     1      -8.256  -9.501  20.032  0.00  0.00    +0.000 HD
ATOM     13  H   UNL     1      -9.898  -3.616  19.327  0.00  0.00    +0.000 HD
ATOM     14  H   UNL     1     -11.520  -6.709  14.843  0.00  0.00    +0.000 HD
ENDROOT
BRANCH   9  15
ATOM     15  C   UNL     1     -11.414  -4.605  14.780  0.00  0.00    +0.000 C 
ATOM     16  C   UNL     1     -11.746  -3.443  15.731  0.00  0.00    +0.000 C 
ATOM     17  C   UNL     1     -11.422  -2.086  15.115  0.00  0.00    +0.000 C 
ATOM     18  C   UNL     1      -9.963  -2.003  14.679  0.00  0.00    +0.000 C 
ATOM     19  C   UNL     1      -9.611  -3.140  13.715  0.00  0.00    +0.000 C 
ATOM     20  C   UNL     1      -9.941  -4.509  14.324  0.00  0.00    +0.000 C 
ATOM     21  H   UNL     1     -12.051  -4.550  13.887  0.00  0.00    +0.000 HD
ATOM     22  H   UNL     1     -11.189  -3.560  16.669  0.00  0.00    +0.000 HD
ATOM     23  H   UNL     1     -12.809  -3.457  15.999  0.00  0.00    +0.000 HD
ATOM     24  H   UNL     1     -11.633  -1.295  15.842  0.00  0.00    +0.000 HD
ATOM     25  H   UNL     1     -12.073  -1.910  14.251  0.00  0.00    +0.000 HD
ATOM     26  H   UNL     1      -9.320  -2.045  15.568  0.00  0.00    +0.000 HD
ATOM     27  H   UNL     1      -9.784  -1.032  14.202  0.00  0.00    +0.000 HD
ATOM     28  H   UNL     1     -10.190  -3.018  12.792  0.00  0.00    +0.000 HD
ATOM     29  H   UNL     1      -9.280  -4.700  15.182  0.00  0.00    +0.000 HD
ATOM     30  H   UNL     1      -9.731  -5.302  13.594  0.00  0.00    +0.000 HD
BRANCH  19  31
ATOM     31  N   UNL     1      -8.191  -3.072  13.361  0.00  0.00    +0.000 NA
ATOM     32  H   UNL     1      -7.825  -4.010  13.200  0.00  0.00    +0.000 HD
ATOM     33  H   UNL     1      -7.660  -2.698  14.147  0.00  0.00    +0.000 HD
ENDBRANCH  19  31
ENDBRANCH   9  15
BRANCH   6  34
ATOM     34  C   UNL     1      -8.086  -4.321  20.048  0.00  0.00    +0.000 A 
ATOM     35  C   UNL     1      -8.003  -3.512  21.187  0.00  0.00    +0.000 A 
ATOM     36  C   UNL     1      -6.813  -3.420  21.916  0.00  0.00    +0.000 A 
ATOM     37  C   UNL     1      -5.685  -4.134  21.512  0.00  0.00    +0.000 A 
ATOM     38  C   UNL     1      -5.760  -4.955  20.392  0.00  0.00    +0.000 A 
ATOM     39 CL   UNL     1      -4.369  -5.825  19.871  0.00  0.00    +0.000 Cl
ATOM     40  C   UNL     1      -6.951  -5.059  19.675  0.00  0.00    +0.000 A 
ATOM     41  H   UNL     1      -8.878  -2.967  21.529  0.00  0.00    +0.000 HD
ATOM     42  H   UNL     1      -6.768  -2.792  22.801  0.00  0.00    +0.000 HD
ATOM     43  H   UNL     1      -4.758  -4.048  22.070  0.00  0.00    +0.000 HD
ATOM     44  H   UNL     1      -6.983  -5.714  18.808  0.00  0.00    +0.000 HD
ENDBRANCH   6  34
BRANCH   1  45
ATOM     45  C   UNL     1      -9.502 -10.202  17.614  0.00  0.00    +0.000 C 
ATOM     46  H   UNL     1     -10.541 -10.527  17.701  0.00  0.00    +0.000 HD
ATOM     47  H   UNL     1      -9.283 -10.053  16.549  0.00  0.00    +0.000 HD
BRANCH  45  48
ATOM     48  C   UNL     1      -8.564 -11.234  18.216  0.00  0.00    +0.000 C 
ATOM     49  H   UNL     1      -8.193 -10.891  19.186  0.00  0.00    +0.000 HD
ATOM     50  H   UNL     1      -7.704 -11.413  17.561  0.00  0.00    +0.000 HD
ATOM     51  H   UNL     1      -9.073 -12.194  18.361  0.00  0.00    +0.000 HD
ENDBRANCH  45  48
ENDBRANCH   1  45
TORSDOF 5
ENDMDL
MODEL 5
REMARK VINA RESULT:    -9.212      2.514      5.262
REMARK INTER + INTRA:         -11.607
REMARK INTER:                 -12.018
REMARK INTRA:                   0.411
REMARK UNBOUND:                -0.240
REMARK  Name = 
REMARK  5 active torsions:
REMARK  status: ('A' for Active; 'I' for Inactive)
REMARK    1  A    between atoms: C_1  and  C_2
REMARK    2  A    between atoms: C_2  and  N_3
REMARK    3  A    between atoms: N_8  and  C_9
REMARK    4  A    between atoms: N_18  and  C_19
REMARK    5  A    between atoms: C_23  and  N_24
REMARK                            x       y       z     vdW  Elec       q    Type
REMARK                         _______ _______ _______ _____ _____    ______ ____
ROOT
ATOM      1  N   UNL     1     -10.894  -4.321  17.704  0.00  0.00    +0.000 N 
ATOM      2  C   UNL     1     -10.211  -3.358  18.394  0.00  0.00    +0.000 A 
ATOM      3  N   UNL     1      -8.979  -3.732  18.646  0.00  0.00    +0.000 NA
ATOM      4  C   UNL     1      -8.868  -4.996  18.092  0.00  0.00    +0.000 A 
ATOM      5  C   UNL     1      -7.815  -5.922  18.049  0.00  0.00    +0.000 A 
ATOM      6  N   UNL     1      -6.583  -5.684  18.668  0.00  0.00    +0.000 N 
ATOM      7  N   UNL     1      -8.010  -7.075  17.346  0.00  0.00    +0.000 NA
ATOM      8  C   UNL     1      -9.216  -7.325  16.789  0.00  0.00    +0.000 A 
ATOM      9  N   UNL     1      -9.456  -8.523  16.131  0.00  0.00    +0.000 N 
ATOM     10  N   UNL     1     -10.289  -6.511  16.826  0.00  0.00    +0.000 NA
ATOM     11  C   UNL     1     -10.040  -5.365  17.477  0.00  0.00    +0.000 A 
ATOM     12  H   UNL     1     -10.653  -2.420  18.697  0.00  0.00    +0.000 HD
ATOM     13  H   UNL     1      -5.817  -6.195  18.255  0.00  0.00    +0.000 HD
ATOM     14  H   UNL     1     -10.463  -8.610  16.045  0.00  0.00    +0.000 HD
ENDROOT
BRANCH   9  15
ATOM     15  C   UNL     1      -8.754  -9.727  16.567  0.00  0.00    +0.000 C 
ATOM     16  C   UNL     1      -9.200 -10.147  17.977  0.00  0.00    +0.000 C 
ATOM     17  C   UNL     1      -8.593 -11.481  18.398  0.00  0.00    +0.000 C 
ATOM     18  C   UNL     1      -8.918 -12.585  17.397  0.00  0.00    +0.000 C 
ATOM     19  C   UNL     1      -8.465 -12.199  15.986  0.00  0.00    +0.000 C 
ATOM     20  C   UNL     1      -9.066 -10.853  15.557  0.00  0.00    +0.000 C 
ATOM     21  H   UNL     1      -7.670  -9.551  16.557  0.00  0.00    +0.000 HD
ATOM     22  H   UNL     1     -10.295 -10.217  18.014  0.00  0.00    +0.000 HD
ATOM     23  H   UNL     1      -8.914  -9.387  18.714  0.00  0.00    +0.000 HD
ATOM     24  H   UNL     1      -8.973 -11.760  19.386  0.00  0.00    +0.000 HD
ATOM     25  H   UNL     1      -7.506 -11.377  18.490  0.00  0.00    +0.000 HD
ATOM     26  H   UNL     1      -9.999 -12.776  17.411  0.00  0.00    +0.000 HD
ATOM     27  H   UNL     1      -8.427 -13.513  17.712  0.00  0.00    +0.000 HD
ATOM     28  H   UNL     1      -7.372 -12.115  15.972  0.00  0.00    +0.000 HD
ATOM     29  H   UNL     1     -10.155 -10.954  15.447  0.00  0.00    +0.000 HD
ATOM     30  H   UNL     1      -8.683 -10.574  14.566  0.00  0.00    +0.000 HD
BRANCH  19  31
ATOM     31  N   UNL     1      -8.843 -13.248  15.036  0.00  0.00    +0.000 NA
ATOM     32  H   UNL     1      -8.285 -14.086  15.199  0.00  0.00    +0.000 HD
ATOM     33  H   UNL     1      -8.624 -12.947  14.087  0.00  0.00    +0.000 HD
ENDBRANCH  19  31
ENDBRANCH   9  15
BRANCH   6  34
ATOM     34  C   UNL     1      -6.340  -5.033  19.891  0.00  0.00    +0.000 A 
ATOM     35  C   UNL     1      -5.043  -4.609  20.203  0.00  0.00    +0.000 A 
ATOM     36  C   UNL     1      -4.781  -3.915  21.389  0.00  0.00    +0.000 A 
ATOM     37  C   UNL     1      -5.815  -3.638  22.283  0.00  0.00    +0.000 A 
ATOM     38  C   UNL     1      -7.110  -4.039  21.976  0.00  0.00    +0.000 A 
ATOM     39 CL   UNL     1      -8.392  -3.722  23.083  0.00  0.00    +0.000 Cl
ATOM     40  C   UNL     1      -7.374  -4.717  20.787  0.00  0.00    +0.000 A 
ATOM     41  H   UNL     1      -4.230  -4.796  19.508  0.00  0.00    +0.000 HD
ATOM     42  H   UNL     1      -3.770  -3.588  21.613  0.00  0.00    +0.000 HD
ATOM     43  H   UNL     1      -5.606  -3.114  23.211  0.00  0.00    +0.000 HD
ATOM     44  H   UNL     1      -8.397  -5.012  20.570  0.00  0.00    +0.000 HD
ENDBRANCH   6  34
BRANCH   1  45
ATOM     45  C   UNL     1     -12.286  -4.254  17.334  0.00  0.00    +0.000 C 
ATOM     46  H   UNL     1     -12.486  -5.076  16.642  0.00  0.00    +0.000 HD
ATOM     47  H   UNL     1     -12.890  -4.419  18.235  0.00  0.00    +0.000 HD
BRANCH  45  48
ATOM     48  C   UNL     1     -12.626  -2.919  16.694  0.00  0.00    +0.000 C 
ATOM     49  H   UNL     1     -12.440  -2.954  15.617  0.00  0.00    +0.000 HD
ATOM     50  H   UNL     1     -12.020  -2.113  17.122  0.00  0.00    +0.000 HD
ATOM     51  H   UNL     1     -13.679  -2.661  16.855  0.00  0.00    +0.000 HD
ENDBRANCH  45  48
ENDBRANCH   1  45
TORSDOF 5
ENDMDL
MODEL 6
REMARK VINA RESULT:    -9.114      2.833      6.919
REMARK INTER + INTRA:         -11.485
REMARK INTER:                 -11.344
REMARK INTRA:                  -0.141
REMARK UNBOUND:                -0.240
REMARK  Name = 
REMARK  5 active torsions:
REMARK  status: ('A' for Active; 'I' for Inactive)
REMARK    1  A    between atoms: C_1  and  C_2
REMARK    2  A    between atoms: C_2  and  N_3
REMARK    3  A    between atoms: N_8  and  C_9
REMARK    4  A    between atoms: N_18  and  C_19
REMARK    5  A    between atoms: C_23  and  N_24
REMARK                            x       y       z     vdW  Elec       q    Type
REMARK                         _______ _______ _______ _____ _____    ______ ____
ROOT
ATOM      1  N   UNL     1      -9.191  -8.682  18.340  0.00  0.00    +0.000 N 
ATOM      2  C   UNL     1      -8.657  -8.492  19.584  0.00  0.00    +0.000 A 
ATOM      3  N   UNL     1      -8.680  -7.226  19.928  0.00  0.00    +0.000 NA
ATOM      4  C   UNL     1      -9.255  -6.573  18.852  0.00  0.00    +0.000 A 
ATOM      5  C   UNL     1      -9.533  -5.221  18.602  0.00  0.00    +0.000 A 
ATOM      6  N   UNL     1      -9.193  -4.208  19.506  0.00  0.00    +0.000 N 
ATOM      7  N   UNL     1     -10.188  -4.908  17.447  0.00  0.00    +0.000 NA
ATOM      8  C   UNL     1     -10.473  -5.882  16.553  0.00  0.00    +0.000 A 
ATOM      9  N   UNL     1     -11.074  -5.574  15.340  0.00  0.00    +0.000 N 
ATOM     10  N   UNL     1     -10.197  -7.193  16.697  0.00  0.00    +0.000 NA
ATOM     11  C   UNL     1      -9.606  -7.466  17.869  0.00  0.00    +0.000 A 
ATOM     12  H   UNL     1      -8.257  -9.295  20.187  0.00  0.00    +0.000 HD
ATOM     13  H   UNL     1      -9.767  -3.382  19.422  0.00  0.00    +0.000 HD
ATOM     14  H   UNL     1     -10.941  -6.380  14.739  0.00  0.00    +0.000 HD
ENDROOT
BRANCH   9  15
ATOM     15  C   UNL     1     -10.810  -4.276  14.725  0.00  0.00    +0.000 C 
ATOM     16  C   UNL     1      -9.459  -4.277  13.991  0.00  0.00    +0.000 C 
ATOM     17  C   UNL     1      -9.226  -2.984  13.217  0.00  0.00    +0.000 C 
ATOM     18  C   UNL     1     -10.355  -2.710  12.230  0.00  0.00    +0.000 C 
ATOM     19  C   UNL     1     -11.712  -2.685  12.940  0.00  0.00    +0.000 C 
ATOM     20  C   UNL     1     -11.952  -3.981  13.728  0.00  0.00    +0.000 C 
ATOM     21  H   UNL     1     -10.817  -3.492  15.493  0.00  0.00    +0.000 HD
ATOM     22  H   UNL     1      -9.412  -5.129  13.301  0.00  0.00    +0.000 HD
ATOM     23  H   UNL     1      -8.635  -4.409  14.702  0.00  0.00    +0.000 HD
ATOM     24  H   UNL     1      -8.275  -3.047  12.677  0.00  0.00    +0.000 HD
ATOM     25  H   UNL     1      -9.141  -2.146  13.918  0.00  0.00    +0.000 HD
ATOM     26  H   UNL     1     -10.347  -3.484  11.451  0.00  0.00    +0.000 HD
ATOM     27  H   UNL     1     -10.172  -1.752  11.728  0.00  0.00    +0.000 HD
ATOM     28  H   UNL     1     -11.734  -1.841  13.639  0.00  0.00    +0.000 HD
ATOM     29  H   UNL     1     -12.055  -4.823  13.029  0.00  0.00    +0.000 HD
ATOM     30  H   UNL     1     -12.905  -3.915  14.270  0.00  0.00    +0.000 HD
BRANCH  19  31
ATOM     31  N   UNL     1     -12.784  -2.483  11.961  0.00  0.00    +0.000 NA
ATOM     32  H   UNL     1     -12.536  -2.922  11.075  0.00  0.00    +0.000 HD
ATOM     33  H   UNL     1     -12.880  -1.488  11.761  0.00  0.00    +0.000 HD
ENDBRANCH  19  31
ENDBRANCH   9  15
BRANCH   6  34
ATOM     34  C   UNL     1      -8.046  -4.118  20.315  0.00  0.00    +0.000 A 
ATOM     35  C   UNL     1      -8.123  -3.475  21.555  0.00  0.00    +0.000 A 
ATOM     36  C   UNL     1      -7.012  -3.415  22.403  0.00  0.00    +0.000 A 
ATOM     37  C   UNL     1      -5.804  -3.996  22.018  0.00  0.00    +0.000 A 
ATOM     38  C   UNL     1      -5.720  -4.654  20.796  0.00  0.00    +0.000 A 
ATOM     39 CL   UNL     1      -4.228  -5.356  20.300  0.00  0.00    +0.000 Cl
ATOM     40  C   UNL     1      -6.832  -4.727  19.958  0.00  0.00    +0.000 A 
ATOM     41  H   UNL     1      -9.062  -3.036  21.881  0.00  0.00    +0.000 HD
ATOM     42  H   UNL     1      -7.091  -2.917  23.365  0.00  0.00    +0.000 HD
ATOM     43  H   UNL     1      -4.938  -3.934  22.670  0.00  0.00    +0.000 HD
ATOM     44  H   UNL     1      -6.739  -5.253  19.012  0.00  0.00    +0.000 HD
ENDBRANCH   6  34
BRANCH   1  45
ATOM     45  C   UNL     1      -9.251  -9.941  17.640  0.00  0.00    +0.000 C 
ATOM     46  H   UNL     1     -10.304 -10.198  17.507  0.00  0.00    +0.000 HD
ATOM     47  H   UNL     1      -8.810  -9.802  16.645  0.00  0.00    +0.000 HD
BRANCH  45  48
ATOM     48  C   UNL     1      -8.523 -11.035  18.403  0.00  0.00    +0.000 C 
ATOM     49  H   UNL     1      -8.363 -11.905  17.760  0.00  0.00    +0.000 HD
ATOM     50  H   UNL     1      -9.101 -11.354  19.278  0.00  0.00    +0.000 HD
ATOM     51  H   UNL     1      -7.549 -10.685  18.761  0.00  0.00    +0.000 HD
ENDBRANCH  45  48
ENDBRANCH   1  45
TORSDOF 5
ENDMDL
MODEL 7
REMARK VINA RESULT:    -8.848      2.947      7.241
REMARK INTER + INTRA:         -11.157
REMARK INTER:                 -11.215
REMARK INTRA:                   0.059
REMARK UNBOUND:                -0.240
REMARK  Name = 
REMARK  5 active torsions:
REMARK  status: ('A' for Active; 'I' for Inactive)
REMARK    1  A    between atoms: C_1  and  C_2
REMARK    2  A    between atoms: C_2  and  N_3
REMARK    3  A    between atoms: N_8  and  C_9
REMARK    4  A    between atoms: N_18  and  C_19
REMARK    5  A    between atoms: C_23  and  N_24
REMARK                            x       y       z     vdW  Elec       q    Type
REMARK                         _______ _______ _______ _____ _____    ______ ____
ROOT
ATOM      1  N   UNL     1      -9.629  -9.084  17.445  0.00  0.00    +0.000 N 
ATOM      2  C   UNL     1      -8.859  -9.079  18.574  0.00  0.00    +0.000 A 
ATOM      3  N   UNL     1      -8.639  -7.858  19.000  0.00  0.00    +0.000 NA
ATOM      4  C   UNL     1      -9.298  -7.040  18.098  0.00  0.00    +0.000 A 
ATOM      5  C   UNL     1      -9.420  -5.646  17.996  0.00  0.00    +0.000 A 
ATOM      6  N   UNL     1      -8.782  -4.772  18.884  0.00  0.00    +0.000 N 
ATOM      7  N   UNL     1     -10.219  -5.147  17.009  0.00  0.00    +0.000 NA
ATOM      8  C   UNL     1     -10.796  -5.990  16.124  0.00  0.00    +0.000 A 
ATOM      9  N   UNL     1     -11.554  -5.498  15.070  0.00  0.00    +0.000 N 
ATOM     10  N   UNL     1     -10.690  -7.333  16.125  0.00  0.00    +0.000 NA
ATOM     11  C   UNL     1      -9.943  -7.787  17.142  0.00  0.00    +0.000 A 
ATOM     12  H   UNL     1      -8.477  -9.978  19.035  0.00  0.00    +0.000 HD
ATOM     13  H   UNL     1      -9.237  -3.875  18.966  0.00  0.00    +0.000 HD
ATOM     14  H   UNL     1     -11.647  -6.255  14.402  0.00  0.00    +0.000 HD
ENDROOT
BRANCH   9  15
ATOM     15  C   UNL     1     -11.222  -4.193  14.504  0.00  0.00    +0.000 C 
ATOM     16  C   UNL     1      -9.796  -4.188  13.927  0.00  0.00    +0.000 C 
ATOM     17  C   UNL     1      -9.476  -2.887  13.199  0.00  0.00    +0.000 C 
ATOM     18  C   UNL     1     -10.487  -2.599  12.095  0.00  0.00    +0.000 C 
ATOM     19  C   UNL     1     -11.915  -2.579  12.648  0.00  0.00    +0.000 C 
ATOM     20  C   UNL     1     -12.244  -3.883  13.388  0.00  0.00    +0.000 C 
ATOM     21  H   UNL     1     -11.314  -3.418  15.275  0.00  0.00    +0.000 HD
ATOM     22  H   UNL     1      -9.672  -5.032  13.237  0.00  0.00    +0.000 HD
ATOM     23  H   UNL     1      -9.057  -4.330  14.725  0.00  0.00    +0.000 HD
ATOM     24  H   UNL     1      -8.471  -2.946  12.769  0.00  0.00    +0.000 HD
ATOM     25  H   UNL     1      -9.470  -2.057  13.915  0.00  0.00    +0.000 HD
ATOM     26  H   UNL     1     -10.392  -3.364  11.312  0.00  0.00    +0.000 HD
ATOM     27  H   UNL     1     -10.248  -1.636  11.628  0.00  0.00    +0.000 HD
ATOM     28  H   UNL     1     -12.015  -1.743  13.349  0.00  0.00    +0.000 HD
ATOM     29  H   UNL     1     -12.268  -4.718  12.673  0.00  0.00    +0.000 HD
ATOM     30  H   UNL     1     -13.251  -3.822  13.820  0.00  0.00    +0.000 HD
BRANCH  19  31
ATOM     31  N   UNL     1     -12.869  -2.363  11.557  0.00  0.00    +0.000 NA
ATOM     32  H   UNL     1     -12.370  -2.196  10.684  0.00  0.00    +0.000 HD
ATOM     33  H   UNL     1     -13.408  -1.516  11.736  0.00  0.00    +0.000 HD
ENDBRANCH  19  31
ENDBRANCH   9  15
BRANCH   6  34
ATOM     34  C   UNL     1      -7.507  -4.906  19.465  0.00  0.00    +0.000 A 
ATOM     35  C   UNL     1      -6.504  -5.598  18.777  0.00  0.00    +0.000 A 
ATOM     36  C   UNL     1      -5.213  -5.703  19.306  0.00  0.00    +0.000 A 
ATOM     37  C   UNL     1      -4.909  -5.119  20.536  0.00  0.00    +0.000 A 
ATOM     38  C   UNL     1      -5.893  -4.415  21.220  0.00  0.00    +0.000 A 
ATOM     39 CL   UNL     1      -5.537  -3.709  22.750  0.00  0.00    +0.000 Cl
ATOM     40  C   UNL     1      -7.175  -4.297  20.685  0.00  0.00    +0.000 A 
ATOM     41  H   UNL     1      -6.716  -6.039  17.807  0.00  0.00    +0.000 HD
ATOM     42  H   UNL     1      -4.444  -6.238  18.756  0.00  0.00    +0.000 HD
ATOM     43  H   UNL     1      -3.911  -5.216  20.952  0.00  0.00    +0.000 HD
ATOM     44  H   UNL     1      -7.922  -3.734  21.239  0.00  0.00    +0.000 HD
ENDBRANCH   6  34
BRANCH   1  45
ATOM     45  C   UNL     1      -9.993 -10.255  16.686  0.00  0.00    +0.000 C 
ATOM     46  H   UNL     1     -11.073 -10.388  16.778  0.00  0.00    +0.000 HD
ATOM     47  H   UNL     1      -9.766 -10.065  15.630  0.00  0.00    +0.000 HD
BRANCH  45  48
ATOM     48  C   UNL     1      -9.256 -11.487  17.182  0.00  0.00    +0.000 C 
ATOM     49  H   UNL     1      -9.949 -12.325  17.296  0.00  0.00    +0.000 HD
ATOM     50  H   UNL     1      -8.782 -11.298  18.152  0.00  0.00    +0.000 HD
ATOM     51  H   UNL     1      -8.467 -11.784  16.482  0.00  0.00    +0.000 HD
ENDBRANCH  45  48
ENDBRANCH   1  45
TORSDOF 5
ENDMDL
MODEL 8
REMARK VINA RESULT:    -8.597      2.010      2.970
REMARK INTER + INTRA:         -10.847
REMARK INTER:                 -10.802
REMARK INTRA:                  -0.045
REMARK UNBOUND:                -0.240
REMARK  Name = 
REMARK  5 active torsions:
REMARK  status: ('A' for Active; 'I' for Inactive)
REMARK    1  A    between atoms: C_1  and  C_2
REMARK    2  A    between atoms: C_2  and  N_3
REMARK    3  A    between atoms: N_8  and  C_9
REMARK    4  A    between atoms: N_18  and  C_19
REMARK    5  A    between atoms: C_23  and  N_24
REMARK                            x       y       z     vdW  Elec       q    Type
REMARK                         _______ _______ _______ _____ _____    ______ ____
ROOT
ATOM      1  N   UNL     1      -9.768  -3.457  18.379  0.00  0.00    +0.000 N 
ATOM      2  C   UNL     1     -10.184  -2.387  17.638  0.00  0.00    +0.000 A 
ATOM      3  N   UNL     1     -10.794  -2.770  16.542  0.00  0.00    +0.000 NA
ATOM      4  C   UNL     1     -10.766  -4.153  16.582  0.00  0.00    +0.000 A 
ATOM      5  C   UNL     1     -11.231  -5.137  15.696  0.00  0.00    +0.000 A 
ATOM      6  N   UNL     1     -11.834  -4.818  14.473  0.00  0.00    +0.000 N 
ATOM      7  N   UNL     1     -11.109  -6.443  16.073  0.00  0.00    +0.000 NA
ATOM      8  C   UNL     1     -10.483  -6.750  17.231  0.00  0.00    +0.000 A 
ATOM      9  N   UNL     1     -10.286  -8.074  17.597  0.00  0.00    +0.000 N 
ATOM     10  N   UNL     1      -9.969  -5.869  18.110  0.00  0.00    +0.000 NA
ATOM     11  C   UNL     1     -10.158  -4.597  17.731  0.00  0.00    +0.000 A 
ATOM     12  H   UNL     1     -10.010  -1.361  17.928  0.00  0.00    +0.000 HD
ATOM     13  H   UNL     1     -12.458  -5.535  14.131  0.00  0.00    +0.000 HD
ATOM     14  H   UNL     1      -9.580  -8.072  18.325  0.00  0.00    +0.000 HD
ENDROOT
BRANCH   9  15
ATOM     15  C   UNL     1     -10.115  -9.083  16.555  0.00  0.00    +0.000 C 
ATOM     16  C   UNL     1      -9.166  -8.583  15.453  0.00  0.00    +0.000 C 
ATOM     17  C   UNL     1      -8.853  -9.669  14.429  0.00  0.00    +0.000 C 
ATOM     18  C   UNL     1      -8.274 -10.915  15.091  0.00  0.00    +0.000 C 
ATOM     19  C   UNL     1      -9.212 -11.444  16.181  0.00  0.00    +0.000 C 
ATOM     20  C   UNL     1      -9.537 -10.355  17.213  0.00  0.00    +0.000 C 
ATOM     21  H   UNL     1     -11.090  -9.338  16.119  0.00  0.00    +0.000 HD
ATOM     22  H   UNL     1      -8.231  -8.227  15.903  0.00  0.00    +0.000 HD
ATOM     23  H   UNL     1      -9.603  -7.726  14.928  0.00  0.00    +0.000 HD
ATOM     24  H   UNL     1      -8.142  -9.283  13.692  0.00  0.00    +0.000 HD
ATOM     25  H   UNL     1      -9.767  -9.934  13.884  0.00  0.00    +0.000 HD
ATOM     26  H   UNL     1      -7.293 -10.671  15.519  0.00  0.00    +0.000 HD
ATOM     27  H   UNL     1      -8.107 -11.684  14.329  0.00  0.00    +0.000 HD
ATOM     28  H   UNL     1     -10.147 -11.778  15.716  0.00  0.00    +0.000 HD
ATOM     29  H   UNL     1      -8.628 -10.096  17.774  0.00  0.00    +0.000 HD
ATOM     30  H   UNL     1     -10.252 -10.744  17.951  0.00  0.00    +0.000 HD
BRANCH  19  31
ATOM     31  N   UNL     1      -8.604 -12.602  16.842  0.00  0.00    +0.000 NA
ATOM     32  H   UNL     1      -8.854 -13.458  16.347  0.00  0.00    +0.000 HD
ATOM     33  H   UNL     1      -8.988 -12.701  17.781  0.00  0.00    +0.000 HD
ENDBRANCH  19  31
ENDBRANCH   9  15
BRANCH   6  34
ATOM     34  C   UNL     1     -11.506  -3.773  13.592  0.00  0.00    +0.000 A 
ATOM     35  C   UNL     1     -10.162  -3.516  13.295  0.00  0.00    +0.000 A 
ATOM     36  C   UNL     1      -9.807  -2.516  12.383  0.00  0.00    +0.000 A 
ATOM     37  C   UNL     1     -10.794  -1.755  11.758  0.00  0.00    +0.000 A 
ATOM     38  C   UNL     1     -12.133  -2.012  12.032  0.00  0.00    +0.000 A 
ATOM     39 CL   UNL     1     -13.360  -1.064  11.283  0.00  0.00    +0.000 Cl
ATOM     40  C   UNL     1     -12.487  -3.019  12.928  0.00  0.00    +0.000 A 
ATOM     41  H   UNL     1      -9.381  -4.115  13.755  0.00  0.00    +0.000 HD
ATOM     42  H   UNL     1      -8.760  -2.334  12.159  0.00  0.00    +0.000 HD
ATOM     43  H   UNL     1     -10.516  -0.968  11.063  0.00  0.00    +0.000 HD
ATOM     44  H   UNL     1     -13.541  -3.203  13.118  0.00  0.00    +0.000 HD
ENDBRANCH   6  34
BRANCH   1  45
ATOM     45  C   UNL     1      -9.006  -3.382  19.601  0.00  0.00    +0.000 C 
ATOM     46  H   UNL     1      -9.107  -4.339  20.116  0.00  0.00    +0.000 HD
ATOM     47  H   UNL     1      -7.949  -3.251  19.340  0.00  0.00    +0.000 HD
BRANCH  45  48
ATOM     48  C   UNL     1      -9.487  -2.243  20.485  0.00  0.00    +0.000 C 
ATOM     49  H   UNL     1      -8.831  -2.132  21.353  0.00  0.00    +0.000 HD
ATOM     50  H   UNL     1     -10.506  -2.428  20.844  0.00  0.00    +0.000 HD
ATOM     51  H   UNL     1      -9.498  -1.295  19.936  0.00  0.00    +0.000 HD
ENDBRANCH  45  48
ENDBRANCH   1  45
TORSDOF 5
ENDMDL
MODEL 9
REMARK VINA RESULT:    -8.491      1.634      2.291
REMARK INTER + INTRA:         -10.717
REMARK INTER:                 -11.076
REMARK INTRA:                   0.359
REMARK UNBOUND:                -0.240
REMARK  Name = 
REMARK  5 active torsions:
REMARK  status: ('A' for Active; 'I' for Inactive)
REMARK    1  A    between atoms: C_1  and  C_2
REMARK    2  A    between atoms: C_2  and  N_3
REMARK    3  A    between atoms: N_8  and  C_9
REMARK    4  A    between atoms: N_18  and  C_19
REMARK    5  A    between atoms: C_23  and  N_24
REMARK                            x       y       z     vdW  Elec       q    Type
REMARK                         _______ _______ _______ _____ _____    ______ ____
ROOT
ATOM      1  N   UNL     1      -9.518  -4.034  18.709  0.00  0.00    +0.000 N 
ATOM      2  C   UNL     1      -9.951  -2.925  18.037  0.00  0.00    +0.000 A 
ATOM      3  N   UNL     1     -10.602  -3.249  16.945  0.00  0.00    +0.000 NA
ATOM      4  C   UNL     1     -10.584  -4.632  16.915  0.00  0.00    +0.000 A 
ATOM      5  C   UNL     1     -11.088  -5.567  15.998  0.00  0.00    +0.000 A 
ATOM      6  N   UNL     1     -11.732  -5.183  14.816  0.00  0.00    +0.000 N 
ATOM      7  N   UNL     1     -10.965  -6.891  16.305  0.00  0.00    +0.000 NA
ATOM      8  C   UNL     1     -10.301  -7.261  17.423  0.00  0.00    +0.000 A 
ATOM      9  N   UNL     1     -10.102  -8.603  17.716  0.00  0.00    +0.000 N 
ATOM     10  N   UNL     1      -9.748  -6.428  18.327  0.00  0.00    +0.000 NA
ATOM     11  C   UNL     1      -9.940  -5.137  18.019  0.00  0.00    +0.000 A 
ATOM     12  H   UNL     1      -9.757  -1.916  18.371  0.00  0.00    +0.000 HD
ATOM     13  H   UNL     1     -12.373  -5.878  14.461  0.00  0.00    +0.000 HD
ATOM     14  H   UNL     1      -9.371  -8.641  18.417  0.00  0.00    +0.000 HD
ENDROOT
BRANCH   9  15
ATOM     15  C   UNL     1      -9.977  -9.559  16.619  0.00  0.00    +0.000 C 
ATOM     16  C   UNL     1      -9.089  -8.997  15.496  0.00  0.00    +0.000 C 
ATOM     17  C   UNL     1      -8.820 -10.030  14.406  0.00  0.00    +0.000 C 
ATOM     18  C   UNL     1      -8.198 -11.299  14.978  0.00  0.00    +0.000 C 
ATOM     19  C   UNL     1      -9.074 -11.890  16.087  0.00  0.00    +0.000 C 
ATOM     20  C   UNL     1      -9.355 -10.855  17.185  0.00  0.00    +0.000 C 
ATOM     21  H   UNL     1     -10.970  -9.803  16.222  0.00  0.00    +0.000 HD
ATOM     22  H   UNL     1      -8.135  -8.653  15.914  0.00  0.00    +0.000 HD
ATOM     23  H   UNL     1      -9.559  -8.121  15.035  0.00  0.00    +0.000 HD
ATOM     24  H   UNL     1      -8.151  -9.601  13.653  0.00  0.00    +0.000 HD
ATOM     25  H   UNL     1      -9.758 -10.279  13.897  0.00  0.00    +0.000 HD
ATOM     26  H   UNL     1      -7.198 -11.066  15.366  0.00  0.00    +0.000 HD
ATOM     27  H   UNL     1      -8.064 -12.030  14.172  0.00  0.00    +0.000 HD
ATOM     28  H   UNL     1     -10.029 -12.211  15.655  0.00  0.00    +0.000 HD
ATOM     29  H   UNL     1      -8.421 -10.613  17.712  0.00  0.00    +0.000 HD
ATOM     30  H   UNL     1     -10.028 -11.285  17.939  0.00  0.00    +0.000 HD
BRANCH  19  31
ATOM     31  N   UNL     1      -8.424 -13.072  16.660  0.00  0.00    +0.000 NA
ATOM     32  H   UNL     1      -7.978 -12.831  17.544  0.00  0.00    +0.000 HD
ATOM     33  H   UNL     1      -7.673 -13.381  16.044  0.00  0.00    +0.000 HD
ENDBRANCH  19  31
ENDBRANCH   9  15
BRANCH   6  34
ATOM     34  C   UNL     1     -11.426  -4.097  13.977  0.00  0.00    +0.000 A 
ATOM     35  C   UNL     1     -12.461  -3.395  13.350  0.00  0.00    +0.000 A 
ATOM     36  C   UNL     1     -12.190  -2.279  12.550  0.00  0.00    +0.000 A 
ATOM     37  C   UNL     1     -10.875  -1.853  12.363  0.00  0.00    +0.000 A 
ATOM     38  C   UNL     1      -9.839  -2.532  12.995  0.00  0.00    +0.000 A 
ATOM     39 CL   UNL     1      -8.210  -2.029  12.755  0.00  0.00    +0.000 Cl
ATOM     40  C   UNL     1     -10.111  -3.634  13.804  0.00  0.00    +0.000 A 
ATOM     41  H   UNL     1     -13.493  -3.699  13.502  0.00  0.00    +0.000 HD
ATOM     42  H   UNL     1     -13.006  -1.742  12.076  0.00  0.00    +0.000 HD
ATOM     43  H   UNL     1     -10.665  -0.997  11.729  0.00  0.00    +0.000 HD
ATOM     44  H   UNL     1      -9.283  -4.141  14.292  0.00  0.00    +0.000 HD
ENDBRANCH   6  34
BRANCH   1  45
ATOM     45  C   UNL     1      -8.712  -4.025  19.905  0.00  0.00    +0.000 C 
ATOM     46  H   UNL     1      -8.529  -2.983  20.175  0.00  0.00    +0.000 HD
ATOM     47  H   UNL     1      -9.293  -4.485  20.714  0.00  0.00    +0.000 HD
BRANCH  45  48
ATOM     48  C   UNL     1      -7.402  -4.764  19.696  0.00  0.00    +0.000 C 
ATOM     49  H   UNL     1      -7.361  -5.188  18.689  0.00  0.00    +0.000 HD
ATOM     50  H   UNL     1      -7.292  -5.581  20.418  0.00  0.00    +0.000 HD
ATOM     51  H   UNL     1      -6.545  -4.093  19.824  0.00  0.00    +0.000 HD
ENDBRANCH  45  48
ENDBRANCH   1  45
TORSDOF 5
ENDMDL
