MODEL 1
REMARK VINA RESULT:   -10.482      0.000      0.000
REMARK INTER + INTRA:         -15.678
REMARK INTER:                 -15.690
REMARK INTRA:                   0.013
REMARK UNBOUND:                 0.013
REMARK  Name = 
REMARK  11 active torsions:
REMARK  status: ('A' for Active; 'I' for Inactive)
REMARK    1  A    between atoms: C_1  and  C_2
REMARK    2  A    between atoms: C_13  and  C_14
REMARK    3  A    between atoms: C_13  and  C_18
REMARK    4  A    between atoms: C_14  and  N_15
REMARK    5  A    between atoms: N_15  and  C_16
REMARK    6  A    between atoms: N_15  and  C_17
REMARK    7  A    between atoms: N_20  and  C_21
REMARK    8  A    between atoms: C_25  and  O_26
REMARK    9  A    between atoms: O_26  and  C_27
REMARK   10  A    between atoms: N_29  and  C_30
REMARK   11  A    between atoms: N_29  and  C_31
REMARK                            x       y       z     vdW  Elec       q    Type
REMARK                         _______ _______ _______ _____ _____    ______ ____
ROOT
ATOM      1  C   UNL     1      -8.971 -10.528  15.111  0.00  0.00    +0.000 A 
ATOM      2  C   UNL     1      -8.858 -11.731  14.432  0.00  0.00    +0.000 A 
ATOM      3  N   UNL     1      -8.625 -12.717  15.342  0.00  0.00    +0.000 N 
ATOM      4  C   UNL     1      -8.573 -12.187  16.597  0.00  0.00    +0.000 A 
ATOM      5  N   UNL     1      -8.381 -12.939  17.687  0.00  0.00    +0.000 NA
ATOM      6  C   UNL     1      -8.418 -12.195  18.798  0.00  0.00    +0.000 A 
ATOM      7  N   UNL     1      -8.617 -10.871  18.897  0.00  0.00    +0.000 NA
ATOM      8  C   UNL     1      -8.791 -10.117  17.773  0.00  0.00    +0.000 A 
ATOM      9  N   UNL     1      -9.080  -8.773  17.932  0.00  0.00    +0.000 N 
ATOM     10  C   UNL     1      -9.617  -8.286  19.200  0.00  0.00    +0.000 C 
ATOM     11  C   UNL     1     -10.708  -7.261  18.843  0.00  0.00    +0.000 C 
ATOM     12  C   UNL     1     -10.249  -6.144  17.841  0.00  0.00    +0.000 C 
ATOM     13  C   UNL     1      -9.401  -6.769  16.693  0.00  0.00    +0.000 C 
ATOM     14  C   UNL     1      -8.344  -7.756  17.213  0.00  0.00    +0.000 C 
ATOM     15  C   UNL     1      -8.773 -10.810  16.522  0.00  0.00    +0.000 A 
ATOM     16  H   UNL     1      -8.951 -11.957  13.380  0.00  0.00    +0.000 HD
ATOM     17  H   UNL     1      -8.528 -13.700  15.145  0.00  0.00    +0.000 HD
ATOM     18  H   UNL     1      -8.279 -12.732  19.732  0.00  0.00    +0.000 HD
ATOM     19  H   UNL     1      -8.822  -7.838  19.811  0.00  0.00    +0.000 HD
ATOM     20  H   UNL     1     -10.069  -9.079  19.806  0.00  0.00    +0.000 HD
ATOM     21  H   UNL     1     -11.105  -6.821  19.765  0.00  0.00    +0.000 HD
ATOM     22  H   UNL     1     -11.532  -7.826  18.384  0.00  0.00    +0.000 HD
ATOM     23  H   UNL     1      -8.909  -6.005  16.082  0.00  0.00    +0.000 HD
ATOM     24  H   UNL     1     -10.090  -7.297  16.031  0.00  0.00    +0.000 HD
ATOM     25  H   UNL     1      -7.636  -7.243  17.879  0.00  0.00    +0.000 HD
ATOM     26  H   UNL     1      -7.725  -8.159  16.410  0.00  0.00    +0.000 HD
ENDROOT
BRANCH   1  27
ATOM     27  C   UNL     1      -9.284  -9.256  14.419  0.00  0.00    +0.000 C 
ATOM     28  H   UNL     1     -10.364  -9.078  14.388  0.00  0.00    +0.000 HD
ATOM     29  H   UNL     1      -8.962  -9.264  13.377  0.00  0.00    +0.000 HD
ATOM     30  H   UNL     1      -8.838  -8.414  14.954  0.00  0.00    +0.000 HD
ENDBRANCH   1  27
BRANCH  12  31
ATOM     31  C   UNL     1      -9.337  -5.122  18.536  0.00  0.00    +0.000 C 
ATOM     32  O   UNL     1      -9.308  -3.957  18.141  0.00  0.00    +0.000 OA
ATOM     33  N   UNL     1      -8.609  -5.612  19.620  0.00  0.00    +0.000 N 
ATOM     34  H   UNL     1      -8.657  -6.605  19.810  0.00  0.00    +0.000 HD
BRANCH  33  35
ATOM     35  C   UNL     1      -7.609  -4.906  20.325  0.00  0.00    +0.000 A 
ATOM     36  C   UNL     1      -6.244  -5.071  20.057  0.00  0.00    +0.000 A 
ATOM     37  C   UNL     1      -5.285  -4.449  20.848  0.00  0.00    +0.000 A 
ATOM     38  C   UNL     1      -5.665  -3.632  21.899  0.00  0.00    +0.000 A 
ATOM     39  C   UNL     1      -7.020  -3.387  22.126  0.00  0.00    +0.000 A 
ATOM     40  C   UNL     1      -7.997  -4.030  21.354  0.00  0.00    +0.000 A 
ATOM     41  H   UNL     1      -5.896  -5.692  19.241  0.00  0.00    +0.000 HD
ATOM     42  H   UNL     1      -4.231  -4.615  20.638  0.00  0.00    +0.000 HD
ATOM     43  H   UNL     1      -4.892  -3.193  22.523  0.00  0.00    +0.000 HD
ATOM     44  H   UNL     1      -9.045  -3.867  21.586  0.00  0.00    +0.000 HD
BRANCH  39  45
ATOM     45  O   UNL     1      -7.470  -2.558  23.184  0.00  0.00    +0.000 OA
BRANCH  45  46
ATOM     46  C   UNL     1      -8.449  -3.010  24.085  0.00  0.00    +0.000 C 
ATOM     47  O   UNL     1      -8.284  -3.940  24.868  0.00  0.00    +0.000 OA
ATOM     48  N   UNL     1      -9.641  -2.297  24.019  0.00  0.00    +0.000 N 
BRANCH  48  49
ATOM     49  C   UNL     1      -9.850  -1.132  23.179  0.00  0.00    +0.000 C 
ATOM     50  H   UNL     1     -10.903  -0.860  23.090  0.00  0.00    +0.000 HD
ATOM     51  H   UNL     1      -9.454  -1.351  22.182  0.00  0.00    +0.000 HD
ATOM     52  H   UNL     1      -9.298  -0.288  23.605  0.00  0.00    +0.000 HD
ENDBRANCH  48  49
BRANCH  48  53
ATOM     53  C   UNL     1     -10.731  -2.666  24.906  0.00  0.00    +0.000 C 
ATOM     54  H   UNL     1     -11.529  -1.919  24.917  0.00  0.00    +0.000 HD
ATOM     55  H   UNL     1     -10.341  -2.772  25.922  0.00  0.00    +0.000 HD
ATOM     56  H   UNL     1     -11.147  -3.620  24.572  0.00  0.00    +0.000 HD
ENDBRANCH  48  53
ENDBRANCH  45  46
ENDBRANCH  39  45
ENDBRANCH  33  35
ENDBRANCH  12  31
BRANCH  12  57
ATOM     57  C   UNL     1     -11.523  -5.462  17.227  0.00  0.00    +0.000 C 
ATOM     58  H   UNL     1     -12.132  -5.143  18.087  0.00  0.00    +0.000 HD
ATOM     59  H   UNL     1     -12.140  -6.207  16.711  0.00  0.00    +0.000 HD
BRANCH  57  60
ATOM     60  N   UNL     1     -11.375  -4.264  16.371  0.00  0.00    +0.000 NA
BRANCH  60  61
ATOM     61  C   UNL     1     -11.618  -4.480  14.942  0.00  0.00    +0.000 C 
ATOM     62  H   UNL     1     -10.804  -5.014  14.453  0.00  0.00    +0.000 HD
ATOM     63  H   UNL     1     -11.668  -3.518  14.421  0.00  0.00    +0.000 HD
ATOM     64  H   UNL     1     -12.560  -5.011  14.759  0.00  0.00    +0.000 HD
ENDBRANCH  60  61
BRANCH  60  65
ATOM     65  C   UNL     1     -12.288  -3.204  16.826  0.00  0.00    +0.000 C 
ATOM     66  H   UNL     1     -13.284  -3.321  16.389  0.00  0.00    +0.000 HD
ATOM     67  H   UNL     1     -11.912  -2.206  16.567  0.00  0.00    +0.000 HD
ATOM     68  H   UNL     1     -12.413  -3.245  17.915  0.00  0.00    +0.000 HD
ENDBRANCH  60  65
ENDBRANCH  57  60
ENDBRANCH  12  57
TORSDOF 11
ENDMDL
MODEL 2
REMARK VINA RESULT:    -9.922      2.066      4.053
REMARK INTER + INTRA:         -14.840
REMARK INTER:                 -14.464
REMARK INTRA:                  -0.376
REMARK UNBOUND:                 0.013
REMARK  Name = 
REMARK  11 active torsions:
REMARK  status: ('A' for Active; 'I' for Inactive)
REMARK    1  A    between atoms: C_1  and  C_2
REMARK    2  A    between atoms: C_13  and  C_14
REMARK    3  A    between atoms: C_13  and  C_18
REMARK    4  A    between atoms: C_14  and  N_15
REMARK    5  A    between atoms: N_15  and  C_16
REMARK    6  A    between atoms: N_15  and  C_17
REMARK    7  A    between atoms: N_20  and  C_21
REMARK    8  A    between atoms: C_25  and  O_26
REMARK    9  A    between atoms: O_26  and  C_27
REMARK   10  A    between atoms: N_29  and  C_30
REMARK   11  A    between atoms: N_29  and  C_31
REMARK                            x       y       z     vdW  Elec       q    Type
REMARK                         _______ _______ _______ _____ _____    ______ ____
ROOT
ATOM      1  C   UNL     1      -8.683 -11.275  18.169  0.00  0.00    +0.000 A 
ATOM      2  C   UNL     1      -8.648 -12.623  17.851  0.00  0.00    +0.000 A 
ATOM      3  N   UNL     1      -8.743 -12.747  16.498  0.00  0.00    +0.000 N 
ATOM      4  C   UNL     1      -8.850 -11.515  15.926  0.00  0.00    +0.000 A 
ATOM      5  N   UNL     1      -8.933 -11.342  14.602  0.00  0.00    +0.000 NA
ATOM      6  C   UNL     1      -8.981 -10.043  14.287  0.00  0.00    +0.000 A 
ATOM      7  N   UNL     1      -8.953  -8.991  15.121  0.00  0.00    +0.000 NA
ATOM      8  C   UNL     1      -8.888  -9.187  16.471  0.00  0.00    +0.000 A 
ATOM      9  N   UNL     1      -8.774  -8.073  17.282  0.00  0.00    +0.000 N 
ATOM     10  C   UNL     1      -8.292  -6.811  16.728  0.00  0.00    +0.000 C 
ATOM     11  C   UNL     1      -7.345  -6.208  17.781  0.00  0.00    +0.000 C 
ATOM     12  C   UNL     1      -7.954  -6.111  19.224  0.00  0.00    +0.000 C 
ATOM     13  C   UNL     1      -8.725  -7.420  19.569  0.00  0.00    +0.000 C 
ATOM     14  C   UNL     1      -9.642  -7.881  18.425  0.00  0.00    +0.000 C 
ATOM     15  C   UNL     1      -8.829 -10.542  16.924  0.00  0.00    +0.000 A 
ATOM     16  H   UNL     1      -8.536 -13.493  18.482  0.00  0.00    +0.000 HD
ATOM     17  H   UNL     1      -8.714 -13.607  15.974  0.00  0.00    +0.000 HD
ATOM     18  H   UNL     1      -9.040  -9.815  13.227  0.00  0.00    +0.000 HD
ATOM     19  H   UNL     1      -9.131  -6.140  16.503  0.00  0.00    +0.000 HD
ATOM     20  H   UNL     1      -7.735  -6.939  15.792  0.00  0.00    +0.000 HD
ATOM     21  H   UNL     1      -6.999  -5.227  17.436  0.00  0.00    +0.000 HD
ATOM     22  H   UNL     1      -6.459  -6.859  17.817  0.00  0.00    +0.000 HD
ATOM     23  H   UNL     1      -9.318  -7.319  20.484  0.00  0.00    +0.000 HD
ATOM     24  H   UNL     1      -7.981  -8.193  19.766  0.00  0.00    +0.000 HD
ATOM     25  H   UNL     1     -10.403  -7.118  18.211  0.00  0.00    +0.000 HD
ATOM     26  H   UNL     1     -10.212  -8.774  18.687  0.00  0.00    +0.000 HD
ENDROOT
BRANCH   1  27
ATOM     27  C   UNL     1      -8.544 -10.787  19.562  0.00  0.00    +0.000 C 
ATOM     28  H   UNL     1      -7.522 -10.931  19.930  0.00  0.00    +0.000 HD
ATOM     29  H   UNL     1      -9.181 -11.336  20.256  0.00  0.00    +0.000 HD
ATOM     30  H   UNL     1      -8.752  -9.716  19.610  0.00  0.00    +0.000 HD
ENDBRANCH   1  27
BRANCH  12  31
ATOM     31  C   UNL     1      -8.983  -4.974  19.312  0.00  0.00    +0.000 C 
ATOM     32  O   UNL     1     -10.062  -5.077  18.732  0.00  0.00    +0.000 OA
ATOM     33  N   UNL     1      -8.604  -3.887  20.100  0.00  0.00    +0.000 N 
ATOM     34  H   UNL     1      -7.662  -3.879  20.471  0.00  0.00    +0.000 HD
BRANCH  33  35
ATOM     35  C   UNL     1      -9.315  -2.672  20.221  0.00  0.00    +0.000 A 
ATOM     36  C   UNL     1      -9.571  -1.840  19.125  0.00  0.00    +0.000 A 
ATOM     37  C   UNL     1     -10.171  -0.598  19.300  0.00  0.00    +0.000 A 
ATOM     38  C   UNL     1     -10.552  -0.176  20.563  0.00  0.00    +0.000 A 
ATOM     39  C   UNL     1     -10.384  -1.029  21.654  0.00  0.00    +0.000 A 
ATOM     40  C   UNL     1      -9.755  -2.271  21.495  0.00  0.00    +0.000 A 
ATOM     41  H   UNL     1      -9.301  -2.128  18.116  0.00  0.00    +0.000 HD
ATOM     42  H   UNL     1     -10.333   0.043  18.437  0.00  0.00    +0.000 HD
ATOM     43  H   UNL     1     -10.981   0.815  20.672  0.00  0.00    +0.000 HD
ATOM     44  H   UNL     1      -9.585  -2.894  22.368  0.00  0.00    +0.000 HD
BRANCH  39  45
ATOM     45  O   UNL     1     -10.758  -0.654  22.970  0.00  0.00    +0.000 OA
BRANCH  45  46
ATOM     46  C   UNL     1      -9.846  -0.761  24.034  0.00  0.00    +0.000 C 
ATOM     47  O   UNL     1      -8.930   0.030  24.234  0.00  0.00    +0.000 OA
ATOM     48  N   UNL     1     -10.078  -1.855  24.860  0.00  0.00    +0.000 N 
BRANCH  48  49
ATOM     49  C   UNL     1     -11.203  -2.760  24.719  0.00  0.00    +0.000 C 
ATOM     50  H   UNL     1     -11.525  -2.873  23.682  0.00  0.00    +0.000 HD
ATOM     51  H   UNL     1     -12.037  -2.368  25.310  0.00  0.00    +0.000 HD
ATOM     52  H   UNL     1     -10.916  -3.740  25.112  0.00  0.00    +0.000 HD
ENDBRANCH  48  49
BRANCH  48  53
ATOM     53  C   UNL     1      -9.204  -2.071  26.001  0.00  0.00    +0.000 C 
ATOM     54  H   UNL     1      -9.508  -2.934  26.599  0.00  0.00    +0.000 HD
ATOM     55  H   UNL     1      -9.224  -1.182  26.638  0.00  0.00    +0.000 HD
ATOM     56  H   UNL     1      -8.187  -2.238  25.636  0.00  0.00    +0.000 HD
ENDBRANCH  48  53
ENDBRANCH  45  46
ENDBRANCH  39  45
ENDBRANCH  33  35
ENDBRANCH  12  31
BRANCH  12  57
ATOM     57  C   UNL     1      -6.784  -5.917  20.254  0.00  0.00    +0.000 C 
ATOM     58  H   UNL     1      -6.350  -6.918  20.399  0.00  0.00    +0.000 HD
ATOM     59  H   UNL     1      -7.187  -5.643  21.237  0.00  0.00    +0.000 HD
BRANCH  57  60
ATOM     60  N   UNL     1      -5.650  -5.029  19.919  0.00  0.00    +0.000 NA
BRANCH  60  61
ATOM     61  C   UNL     1      -5.361  -3.982  20.902  0.00  0.00    +0.000 C 
ATOM     62  H   UNL     1      -5.606  -4.283  21.920  0.00  0.00    +0.000 HD
ATOM     63  H   UNL     1      -5.993  -3.107  20.715  0.00  0.00    +0.000 HD
ATOM     64  H   UNL     1      -4.314  -3.657  20.864  0.00  0.00    +0.000 HD
ENDBRANCH  60  61
BRANCH  60  65
ATOM     65  C   UNL     1      -4.425  -5.823  19.738  0.00  0.00    +0.000 C 
ATOM     66  H   UNL     1      -3.545  -5.182  19.634  0.00  0.00    +0.000 HD
ATOM     67  H   UNL     1      -4.487  -6.470  18.853  0.00  0.00    +0.000 HD
ATOM     68  H   UNL     1      -4.249  -6.463  20.611  0.00  0.00    +0.000 HD
ENDBRANCH  60  65
ENDBRANCH  57  60
ENDBRANCH  12  57
TORSDOF 11
ENDMDL
MODEL 3
REMARK VINA RESULT:    -9.632      2.203      4.269
REMARK INTER + INTRA:         -14.406
REMARK INTER:                 -14.034
REMARK INTRA:                  -0.372
REMARK UNBOUND:                 0.013
REMARK  Name = 
REMARK  11 active torsions:
REMARK  status: ('A' for Active; 'I' for Inactive)
REMARK    1  A    between atoms: C_1  and  C_2
REMARK    2  A    between atoms: C_13  and  C_14
REMARK    3  A    between atoms: C_13  and  C_18
REMARK    4  A    between atoms: C_14  and  N_15
REMARK    5  A    between atoms: N_15  and  C_16
REMARK    6  A    between atoms: N_15  and  C_17
REMARK    7  A    between atoms: N_20  and  C_21
REMARK    8  A    between atoms: C_25  and  O_26
REMARK    9  A    between atoms: O_26  and  C_27
REMARK   10  A    between atoms: N_29  and  C_30
REMARK   11  A    between atoms: N_29  and  C_31
REMARK                            x       y       z     vdW  Elec       q    Type
REMARK                         _______ _______ _______ _____ _____    ______ ____
ROOT
ATOM      1  C   UNL     1      -8.651 -11.310  18.187  0.00  0.00    +0.000 A 
ATOM      2  C   UNL     1      -8.563 -12.660  17.890  0.00  0.00    +0.000 A 
ATOM      3  N   UNL     1      -8.625 -12.807  16.538  0.00  0.00    +0.000 N 
ATOM      4  C   UNL     1      -8.762 -11.588  15.945  0.00  0.00    +0.000 A 
ATOM      5  N   UNL     1      -8.823 -11.437  14.617  0.00  0.00    +0.000 NA
ATOM      6  C   UNL     1      -8.907 -10.145  14.281  0.00  0.00    +0.000 A 
ATOM      7  N   UNL     1      -8.933  -9.081  15.100  0.00  0.00    +0.000 NA
ATOM      8  C   UNL     1      -8.890  -9.255  16.454  0.00  0.00    +0.000 A 
ATOM      9  N   UNL     1      -8.831  -8.126  17.250  0.00  0.00    +0.000 N 
ATOM     10  C   UNL     1      -8.380  -6.856  16.687  0.00  0.00    +0.000 C 
ATOM     11  C   UNL     1      -7.477  -6.206  17.750  0.00  0.00    +0.000 C 
ATOM     12  C   UNL     1      -8.119  -6.109  19.178  0.00  0.00    +0.000 C 
ATOM     13  C   UNL     1      -8.853  -7.439  19.527  0.00  0.00    +0.000 C 
ATOM     14  C   UNL     1      -9.729  -7.948  18.371  0.00  0.00    +0.000 C 
ATOM     15  C   UNL     1      -8.795 -10.601  16.929  0.00  0.00    +0.000 A 
ATOM     16  H   UNL     1      -8.436 -13.517  18.537  0.00  0.00    +0.000 HD
ATOM     17  H   UNL     1      -8.557 -13.674  16.028  0.00  0.00    +0.000 HD
ATOM     18  H   UNL     1      -8.952  -9.935  13.217  0.00  0.00    +0.000 HD
ATOM     19  H   UNL     1      -9.236  -6.218  16.435  0.00  0.00    +0.000 HD
ATOM     20  H   UNL     1      -7.799  -6.979  15.765  0.00  0.00    +0.000 HD
ATOM     21  H   UNL     1      -7.157  -5.220  17.397  0.00  0.00    +0.000 HD
ATOM     22  H   UNL     1      -6.571  -6.826  17.814  0.00  0.00    +0.000 HD
ATOM     23  H   UNL     1      -9.468  -7.345  20.429  0.00  0.00    +0.000 HD
ATOM     24  H   UNL     1      -8.087  -8.184  19.751  0.00  0.00    +0.000 HD
ATOM     25  H   UNL     1     -10.511  -7.214  18.131  0.00  0.00    +0.000 HD
ATOM     26  H   UNL     1     -10.274  -8.856  18.635  0.00  0.00    +0.000 HD
ENDROOT
BRANCH   1  27
ATOM     27  C   UNL     1      -8.558 -10.798  19.575  0.00  0.00    +0.000 C 
ATOM     28  H   UNL     1      -9.504 -10.346  19.894  0.00  0.00    +0.000 HD
ATOM     29  H   UNL     1      -7.813 -10.009  19.674  0.00  0.00    +0.000 HD
ATOM     30  H   UNL     1      -8.348 -11.617  20.267  0.00  0.00    +0.000 HD
ENDBRANCH   1  27
BRANCH  12  31
ATOM     31  C   UNL     1      -9.187  -5.007  19.228  0.00  0.00    +0.000 C 
ATOM     32  O   UNL     1     -10.304  -5.214  18.757  0.00  0.00    +0.000 OA
ATOM     33  N   UNL     1      -8.795  -3.825  19.855  0.00  0.00    +0.000 N 
ATOM     34  H   UNL     1      -7.828  -3.741  20.142  0.00  0.00    +0.000 HD
BRANCH  33  35
ATOM     35  C   UNL     1      -9.548  -2.630  19.902  0.00  0.00    +0.000 A 
ATOM     36  C   UNL     1      -9.944  -1.947  18.746  0.00  0.00    +0.000 A 
ATOM     37  C   UNL     1     -10.582  -0.715  18.832  0.00  0.00    +0.000 A 
ATOM     38  C   UNL     1     -10.863  -0.156  20.068  0.00  0.00    +0.000 A 
ATOM     39  C   UNL     1     -10.554  -0.864  21.230  0.00  0.00    +0.000 A 
ATOM     40  C   UNL     1      -9.886  -2.093  21.157  0.00  0.00    +0.000 A 
ATOM     41  H   UNL     1      -9.756  -2.346  17.757  0.00  0.00    +0.000 HD
ATOM     42  H   UNL     1     -10.855  -0.190  17.920  0.00  0.00    +0.000 HD
ATOM     43  H   UNL     1     -11.326   0.825  20.101  0.00  0.00    +0.000 HD
ATOM     44  H   UNL     1      -9.606  -2.598  22.077  0.00  0.00    +0.000 HD
BRANCH  39  45
ATOM     45  O   UNL     1     -10.821  -0.344  22.522  0.00  0.00    +0.000 OA
BRANCH  45  46
ATOM     46  C   UNL     1     -10.069   0.726  23.035  0.00  0.00    +0.000 C 
ATOM     47  O   UNL     1     -10.128   1.874  22.606  0.00  0.00    +0.000 OA
ATOM     48  N   UNL     1      -9.242   0.370  24.096  0.00  0.00    +0.000 N 
BRANCH  48  49
ATOM     49  C   UNL     1      -9.210  -0.950  24.698  0.00  0.00    +0.000 C 
ATOM     50  H   UNL     1      -9.399  -0.927  25.772  0.00  0.00    +0.000 HD
ATOM     51  H   UNL     1      -8.221  -1.385  24.520  0.00  0.00    +0.000 HD
ATOM     52  H   UNL     1      -9.967  -1.574  24.215  0.00  0.00    +0.000 HD
ENDBRANCH  48  49
BRANCH  48  53
ATOM     53  C   UNL     1      -8.417   1.392  24.716  0.00  0.00    +0.000 C 
ATOM     54  H   UNL     1      -8.823   2.397  24.573  0.00  0.00    +0.000 HD
ATOM     55  H   UNL     1      -7.416   1.356  24.278  0.00  0.00    +0.000 HD
ATOM     56  H   UNL     1      -8.354   1.188  25.789  0.00  0.00    +0.000 HD
ENDBRANCH  48  53
ENDBRANCH  45  46
ENDBRANCH  39  45
ENDBRANCH  33  35
ENDBRANCH  12  31
BRANCH  12  57
ATOM     57  C   UNL     1      -6.979  -5.861  20.229  0.00  0.00    +0.000 C 
ATOM     58  H   UNL     1      -6.519  -6.846  20.405  0.00  0.00    +0.000 HD
ATOM     59  H   UNL     1      -7.411  -5.579  21.197  0.00  0.00    +0.000 HD
BRANCH  57  60
ATOM     60  N   UNL     1      -5.863  -4.948  19.901  0.00  0.00    +0.000 NA
BRANCH  60  61
ATOM     61  C   UNL     1      -5.507  -3.988  20.949  0.00  0.00    +0.000 C 
ATOM     62  H   UNL     1      -5.182  -4.474  21.869  0.00  0.00    +0.000 HD
ATOM     63  H   UNL     1      -6.389  -3.408  21.242  0.00  0.00    +0.000 HD
ATOM     64  H   UNL     1      -4.733  -3.284  20.620  0.00  0.00    +0.000 HD
ENDBRANCH  60  61
BRANCH  60  65
ATOM     65  C   UNL     1      -4.656  -5.724  19.576  0.00  0.00    +0.000 C 
ATOM     66  H   UNL     1      -3.772  -5.314  20.073  0.00  0.00    +0.000 HD
ATOM     67  H   UNL     1      -4.466  -5.746  18.495  0.00  0.00    +0.000 HD
ATOM     68  H   UNL     1      -4.760  -6.760  19.920  0.00  0.00    +0.000 HD
ENDBRANCH  60  65
ENDBRANCH  57  60
ENDBRANCH  12  57
TORSDOF 11
ENDMDL
MODEL 4
REMARK VINA RESULT:    -9.448      2.497      5.527
REMARK INTER + INTRA:         -14.130
REMARK INTER:                 -13.482
REMARK INTRA:                  -0.648
REMARK UNBOUND:                 0.013
REMARK  Name = 
REMARK  11 active torsions:
REMARK  status: ('A' for Active; 'I' for Inactive)
REMARK    1  A    between atoms: C_1  and  C_2
REMARK    2  A    between atoms: C_13  and  C_14
REMARK    3  A    between atoms: C_13  and  C_18
REMARK    4  A    between atoms: C_14  and  N_15
REMARK    5  A    between atoms: N_15  and  C_16
REMARK    6  A    between atoms: N_15  and  C_17
REMARK    7  A    between atoms: N_20  and  C_21
REMARK    8  A    between atoms: C_25  and  O_26
REMARK    9  A    between atoms: O_26  and  C_27
REMARK   10  A    between atoms: N_29  and  C_30
REMARK   11  A    between atoms: N_29  and  C_31
REMARK                            x       y       z     vdW  Elec       q    Type
REMARK                         _______ _______ _______ _____ _____    ______ ____
ROOT
ATOM      1  C   UNL     1      -8.610 -11.451  18.211  0.00  0.00    +0.000 A 
ATOM      2  C   UNL     1      -8.489 -12.804  17.939  0.00  0.00    +0.000 A 
ATOM      3  N   UNL     1      -8.521 -12.975  16.589  0.00  0.00    +0.000 N 
ATOM      4  C   UNL     1      -8.671 -11.769  15.972  0.00  0.00    +0.000 A 
ATOM      5  N   UNL     1      -8.708 -11.642  14.641  0.00  0.00    +0.000 NA
ATOM      6  C   UNL     1      -8.812 -10.358  14.281  0.00  0.00    +0.000 A 
ATOM      7  N   UNL     1      -8.876  -9.281  15.081  0.00  0.00    +0.000 NA
ATOM      8  C   UNL     1      -8.857  -9.431  16.438  0.00  0.00    +0.000 A 
ATOM      9  N   UNL     1      -8.836  -8.288  17.216  0.00  0.00    +0.000 N 
ATOM     10  C   UNL     1      -8.400  -7.019  16.639  0.00  0.00    +0.000 C 
ATOM     11  C   UNL     1      -7.532  -6.332  17.709  0.00  0.00    +0.000 C 
ATOM     12  C   UNL     1      -8.204  -6.224  19.122  0.00  0.00    +0.000 C 
ATOM     13  C   UNL     1      -8.918  -7.563  19.479  0.00  0.00    +0.000 C 
ATOM     14  C   UNL     1      -9.759  -8.109  18.316  0.00  0.00    +0.000 C 
ATOM     15  C   UNL     1      -8.744 -10.766  16.938  0.00  0.00    +0.000 A 
ATOM     16  H   UNL     1      -8.358 -13.646  18.603  0.00  0.00    +0.000 HD
ATOM     17  H   UNL     1      -8.425 -13.848  16.095  0.00  0.00    +0.000 HD
ATOM     18  H   UNL     1      -8.839 -10.167  13.213  0.00  0.00    +0.000 HD
ATOM     19  H   UNL     1      -9.264  -6.402  16.360  0.00  0.00    +0.000 HD
ATOM     20  H   UNL     1      -7.798  -7.145  15.731  0.00  0.00    +0.000 HD
ATOM     21  H   UNL     1      -7.224  -5.345  17.345  0.00  0.00    +0.000 HD
ATOM     22  H   UNL     1      -6.614  -6.932  17.802  0.00  0.00    +0.000 HD
ATOM     23  H   UNL     1      -9.552  -7.466  20.367  0.00  0.00    +0.000 HD
ATOM     24  H   UNL     1      -8.141  -8.288  19.732  0.00  0.00    +0.000 HD
ATOM     25  H   UNL     1     -10.551  -7.396  18.047  0.00  0.00    +0.000 HD
ATOM     26  H   UNL     1     -10.291  -9.024  18.584  0.00  0.00    +0.000 HD
ENDROOT
BRANCH   1  27
ATOM     27  C   UNL     1      -8.556 -10.914  19.591  0.00  0.00    +0.000 C 
ATOM     28  H   UNL     1      -9.380 -11.303  20.200  0.00  0.00    +0.000 HD
ATOM     29  H   UNL     1      -8.665  -9.830  19.616  0.00  0.00    +0.000 HD
ATOM     30  H   UNL     1      -7.628 -11.221  20.080  0.00  0.00    +0.000 HD
ENDBRANCH   1  27
BRANCH  12  31
ATOM     31  C   UNL     1      -9.295  -5.144  19.132  0.00  0.00    +0.000 C 
ATOM     32  O   UNL     1     -10.442  -5.427  18.791  0.00  0.00    +0.000 OA
ATOM     33  N   UNL     1      -8.885  -3.886  19.573  0.00  0.00    +0.000 N 
ATOM     34  H   UNL     1      -7.899  -3.750  19.760  0.00  0.00    +0.000 HD
BRANCH  33  35
ATOM     35  C   UNL     1      -9.665  -2.708  19.540  0.00  0.00    +0.000 A 
ATOM     36  C   UNL     1     -10.138  -2.090  20.704  0.00  0.00    +0.000 A 
ATOM     37  C   UNL     1     -10.999  -1.000  20.630  0.00  0.00    +0.000 A 
ATOM     38  C   UNL     1     -11.381  -0.492  19.400  0.00  0.00    +0.000 A 
ATOM     39  C   UNL     1     -10.850  -1.041  18.232  0.00  0.00    +0.000 A 
ATOM     40  C   UNL     1     -10.004  -2.157  18.293  0.00  0.00    +0.000 A 
ATOM     41  H   UNL     1      -9.861  -2.443  21.689  0.00  0.00    +0.000 HD
ATOM     42  H   UNL     1     -11.375  -0.554  21.547  0.00  0.00    +0.000 HD
ATOM     43  H   UNL     1     -12.086   0.334  19.375  0.00  0.00    +0.000 HD
ATOM     44  H   UNL     1      -9.649  -2.601  17.367  0.00  0.00    +0.000 HD
BRANCH  39  45
ATOM     45  O   UNL     1     -11.201  -0.561  16.945  0.00  0.00    +0.000 OA
BRANCH  45  46
ATOM     46  C   UNL     1     -11.906  -1.375  16.042  0.00  0.00    +0.000 C 
ATOM     47  O   UNL     1     -13.054  -1.768  16.224  0.00  0.00    +0.000 OA
ATOM     48  N   UNL     1     -11.182  -1.697  14.899  0.00  0.00    +0.000 N 
BRANCH  48  49
ATOM     49  C   UNL     1      -9.861  -1.179  14.597  0.00  0.00    +0.000 C 
ATOM     50  H   UNL     1      -9.870  -0.113  14.365  0.00  0.00    +0.000 HD
ATOM     51  H   UNL     1      -9.466  -1.727  13.735  0.00  0.00    +0.000 HD
ATOM     52  H   UNL     1      -9.210  -1.352  15.459  0.00  0.00    +0.000 HD
ENDBRANCH  48  49
BRANCH  48  53
ATOM     53  C   UNL     1     -11.805  -2.531  13.885  0.00  0.00    +0.000 C 
ATOM     54  H   UNL     1     -11.106  -3.251  13.452  0.00  0.00    +0.000 HD
ATOM     55  H   UNL     1     -12.186  -1.892  13.084  0.00  0.00    +0.000 HD
ATOM     56  H   UNL     1     -12.634  -3.078  14.342  0.00  0.00    +0.000 HD
ENDBRANCH  48  53
ENDBRANCH  45  46
ENDBRANCH  39  45
ENDBRANCH  33  35
ENDBRANCH  12  31
BRANCH  12  57
ATOM     57  C   UNL     1      -7.090  -5.935  20.191  0.00  0.00    +0.000 C 
ATOM     58  H   UNL     1      -6.543  -6.882  20.312  0.00  0.00    +0.000 HD
ATOM     59  H   UNL     1      -7.546  -5.749  21.172  0.00  0.00    +0.000 HD
BRANCH  57  60
ATOM     60  N   UNL     1      -6.062  -4.906  19.921  0.00  0.00    +0.000 NA
BRANCH  60  61
ATOM     61  C   UNL     1      -5.772  -4.000  21.035  0.00  0.00    +0.000 C 
ATOM     62  H   UNL     1      -5.788  -4.505  22.001  0.00  0.00    +0.000 HD
ATOM     63  H   UNL     1      -6.554  -3.237  21.111  0.00  0.00    +0.000 HD
ATOM     64  H   UNL     1      -4.811  -3.488  20.912  0.00  0.00    +0.000 HD
ENDBRANCH  60  61
BRANCH  60  65
ATOM     65  C   UNL     1      -4.799  -5.549  19.526  0.00  0.00    +0.000 C 
ATOM     66  H   UNL     1      -4.083  -4.817  19.141  0.00  0.00    +0.000 HD
ATOM     67  H   UNL     1      -4.957  -6.316  18.757  0.00  0.00    +0.000 HD
ATOM     68  H   UNL     1      -4.326  -6.030  20.390  0.00  0.00    +0.000 HD
ENDBRANCH  60  65
ENDBRANCH  57  60
ENDBRANCH  12  57
TORSDOF 11
ENDMDL
MODEL 5
REMARK VINA RESULT:    -9.389      1.504      1.783
REMARK INTER + INTRA:         -14.042
REMARK INTER:                 -13.325
REMARK INTRA:                  -0.717
REMARK UNBOUND:                 0.013
REMARK  Name = 
REMARK  11 active torsions:
REMARK  status: ('A' for Active; 'I' for Inactive)
REMARK    1  A    between atoms: C_1  and  C_2
REMARK    2  A    between atoms: C_13  and  C_14
REMARK    3  A    between atoms: C_13  and  C_18
REMARK    4  A    between atoms: C_14  and  N_15
REMARK    5  A    between atoms: N_15  and  C_16
REMARK    6  A    between atoms: N_15  and  C_17
REMARK    7  A    between atoms: N_20  and  C_21
REMARK    8  A    between atoms: C_25  and  O_26
REMARK    9  A    between atoms: O_26  and  C_27
REMARK   10  A    between atoms: N_29  and  C_30
REMARK   11  A    between atoms: N_29  and  C_31
REMARK                            x       y       z     vdW  Elec       q    Type
REMARK                         _______ _______ _______ _____ _____    ______ ____
ROOT
ATOM      1  C   UNL     1      -8.988 -10.757  15.200  0.00  0.00    +0.000 A 
ATOM      2  C   UNL     1      -9.021 -11.943  14.485  0.00  0.00    +0.000 A 
ATOM      3  N   UNL     1      -8.835 -12.974  15.355  0.00  0.00    +0.000 N 
ATOM      4  C   UNL     1      -8.670 -12.490  16.619  0.00  0.00    +0.000 A 
ATOM      5  N   UNL     1      -8.493 -13.289  17.678  0.00  0.00    +0.000 NA
ATOM      6  C   UNL     1      -8.406 -12.579  18.808  0.00  0.00    +0.000 A 
ATOM      7  N   UNL     1      -8.476 -11.246  18.951  0.00  0.00    +0.000 NA
ATOM      8  C   UNL     1      -8.637 -10.445  17.858  0.00  0.00    +0.000 A 
ATOM      9  N   UNL     1      -8.791  -9.086  18.066  0.00  0.00    +0.000 N 
ATOM     10  C   UNL     1      -9.215  -8.591  19.373  0.00  0.00    +0.000 C 
ATOM     11  C   UNL     1     -10.224  -7.460  19.101  0.00  0.00    +0.000 C 
ATOM     12  C   UNL     1      -9.715  -6.360  18.106  0.00  0.00    +0.000 C 
ATOM     13  C   UNL     1      -8.988  -7.024  16.899  0.00  0.00    +0.000 C 
ATOM     14  C   UNL     1      -8.002  -8.118  17.336  0.00  0.00    +0.000 C 
ATOM     15  C   UNL     1      -8.746 -11.098  16.590  0.00  0.00    +0.000 A 
ATOM     16  H   UNL     1      -9.189 -12.128  13.434  0.00  0.00    +0.000 HD
ATOM     17  H   UNL     1      -8.839 -13.956  15.128  0.00  0.00    +0.000 HD
ATOM     18  H   UNL     1      -8.270 -13.155  19.719  0.00  0.00    +0.000 HD
ATOM     19  H   UNL     1      -8.353  -8.236  19.953  0.00  0.00    +0.000 HD
ATOM     20  H   UNL     1      -9.708  -9.358  19.982  0.00  0.00    +0.000 HD
ATOM     21  H   UNL     1     -10.531  -7.014  20.054  0.00  0.00    +0.000 HD
ATOM     22  H   UNL     1     -11.119  -7.934  18.673  0.00  0.00    +0.000 HD
ATOM     23  H   UNL     1      -8.459  -6.289  16.282  0.00  0.00    +0.000 HD
ATOM     24  H   UNL     1      -9.756  -7.467  16.261  0.00  0.00    +0.000 HD
ATOM     25  H   UNL     1      -7.217  -7.693  17.976  0.00  0.00    +0.000 HD
ATOM     26  H   UNL     1      -7.464  -8.551  16.490  0.00  0.00    +0.000 HD
ENDROOT
BRANCH   1  27
ATOM     27  C   UNL     1      -9.217  -9.441  14.558  0.00  0.00    +0.000 C 
ATOM     28  H   UNL     1      -9.254  -8.639  15.303  0.00  0.00    +0.000 HD
ATOM     29  H   UNL     1     -10.174  -9.396  14.038  0.00  0.00    +0.000 HD
ATOM     30  H   UNL     1      -8.395  -9.204  13.878  0.00  0.00    +0.000 HD
ENDBRANCH   1  27
BRANCH  12  31
ATOM     31  C   UNL     1      -8.678  -5.446  18.777  0.00  0.00    +0.000 C 
ATOM     32  O   UNL     1      -7.504  -5.480  18.414  0.00  0.00    +0.000 OA
ATOM     33  N   UNL     1      -9.181  -4.599  19.764  0.00  0.00    +0.000 N 
ATOM     34  H   UNL     1     -10.151  -4.708  20.031  0.00  0.00    +0.000 HD
BRANCH  33  35
ATOM     35  C   UNL     1      -8.407  -3.774  20.612  0.00  0.00    +0.000 A 
ATOM     36  C   UNL     1      -7.139  -4.150  21.070  0.00  0.00    +0.000 A 
ATOM     37  C   UNL     1      -6.457  -3.367  21.995  0.00  0.00    +0.000 A 
ATOM     38  C   UNL     1      -7.011  -2.185  22.456  0.00  0.00    +0.000 A 
ATOM     39  C   UNL     1      -8.234  -1.752  21.944  0.00  0.00    +0.000 A 
ATOM     40  C   UNL     1      -8.944  -2.546  21.033  0.00  0.00    +0.000 A 
ATOM     41  H   UNL     1      -6.658  -5.060  20.733  0.00  0.00    +0.000 HD
ATOM     42  H   UNL     1      -5.485  -3.694  22.358  0.00  0.00    +0.000 HD
ATOM     43  H   UNL     1      -6.472  -1.617  23.208  0.00  0.00    +0.000 HD
ATOM     44  H   UNL     1      -9.920  -2.214  20.692  0.00  0.00    +0.000 HD
BRANCH  39  45
ATOM     45  O   UNL     1      -8.849  -0.549  22.375  0.00  0.00    +0.000 OA
BRANCH  45  46
ATOM     46  C   UNL     1     -10.212  -0.522  22.717  0.00  0.00    +0.000 C 
ATOM     47  O   UNL     1     -10.695  -1.136  23.663  0.00  0.00    +0.000 OA
ATOM     48  N   UNL     1     -10.981   0.281  21.882  0.00  0.00    +0.000 N 
BRANCH  48  49
ATOM     49  C   UNL     1     -10.441   1.099  20.812  0.00  0.00    +0.000 C 
ATOM     50  H   UNL     1      -9.985   0.506  20.018  0.00  0.00    +0.000 HD
ATOM     51  H   UNL     1      -9.683   1.766  21.237  0.00  0.00    +0.000 HD
ATOM     52  H   UNL     1     -11.250   1.702  20.388  0.00  0.00    +0.000 HD
ENDBRANCH  48  49
BRANCH  48  53
ATOM     53  C   UNL     1     -12.407   0.396  22.136  0.00  0.00    +0.000 C 
ATOM     54  H   UNL     1     -12.958  -0.493  21.820  0.00  0.00    +0.000 HD
ATOM     55  H   UNL     1     -12.797   1.259  21.589  0.00  0.00    +0.000 HD
ATOM     56  H   UNL     1     -12.561   0.542  23.208  0.00  0.00    +0.000 HD
ENDBRANCH  48  53
ENDBRANCH  45  46
ENDBRANCH  39  45
ENDBRANCH  33  35
ENDBRANCH  12  31
BRANCH  12  57
ATOM     57  C   UNL     1     -10.950  -5.546  17.578  0.00  0.00    +0.000 C 
ATOM     58  H   UNL     1     -11.661  -5.510  18.417  0.00  0.00    +0.000 HD
ATOM     59  H   UNL     1     -11.470  -6.113  16.796  0.00  0.00    +0.000 HD
BRANCH  57  60
ATOM     60  N   UNL     1     -10.773  -4.144  17.139  0.00  0.00    +0.000 NA
BRANCH  60  61
ATOM     61  C   UNL     1     -10.740  -3.941  15.688  0.00  0.00    +0.000 C 
ATOM     62  H   UNL     1      -9.900  -3.326  15.370  0.00  0.00    +0.000 HD
ATOM     63  H   UNL     1     -11.626  -3.381  15.368  0.00  0.00    +0.000 HD
ATOM     64  H   UNL     1     -10.723  -4.889  15.138  0.00  0.00    +0.000 HD
ENDBRANCH  60  61
BRANCH  60  65
ATOM     65  C   UNL     1     -11.852  -3.306  17.685  0.00  0.00    +0.000 C 
ATOM     66  H   UNL     1     -11.547  -2.820  18.616  0.00  0.00    +0.000 HD
ATOM     67  H   UNL     1     -12.760  -3.890  17.881  0.00  0.00    +0.000 HD
ATOM     68  H   UNL     1     -12.111  -2.506  16.981  0.00  0.00    +0.000 HD
ENDBRANCH  60  65
ENDBRANCH  57  60
ENDBRANCH  12  57
TORSDOF 11
ENDMDL
MODEL 6
REMARK VINA RESULT:    -9.327      2.409      6.133
REMARK INTER + INTRA:         -13.949
REMARK INTER:                 -12.926
REMARK INTRA:                  -1.023
REMARK UNBOUND:                 0.013
REMARK  Name = 
REMARK  11 active torsions:
REMARK  status: ('A' for Active; 'I' for Inactive)
REMARK    1  A    between atoms: C_1  and  C_2
REMARK    2  A    between atoms: C_13  and  C_14
REMARK    3  A    between atoms: C_13  and  C_18
REMARK    4  A    between atoms: C_14  and  N_15
REMARK    5  A    between atoms: N_15  and  C_16
REMARK    6  A    between atoms: N_15  and  C_17
REMARK    7  A    between atoms: N_20  and  C_21
REMARK    8  A    between atoms: C_25  and  O_26
REMARK    9  A    between atoms: O_26  and  C_27
REMARK   10  A    between atoms: N_29  and  C_30
REMARK   11  A    between atoms: N_29  and  C_31
REMARK                            x       y       z     vdW  Elec       q    Type
REMARK                         _______ _______ _______ _____ _____    ______ ____
ROOT
ATOM      1  C   UNL     1      -8.609 -11.398  18.284  0.00  0.00    +0.000 A 
ATOM      2  C   UNL     1      -8.468 -12.765  18.107  0.00  0.00    +0.000 A 
ATOM      3  N   UNL     1      -8.494 -13.030  16.772  0.00  0.00    +0.000 N 
ATOM      4  C   UNL     1      -8.659 -11.872  16.072  0.00  0.00    +0.000 A 
ATOM      5  N   UNL     1      -8.695 -11.838  14.735  0.00  0.00    +0.000 NA
ATOM      6  C   UNL     1      -8.816 -10.584  14.288  0.00  0.00    +0.000 A 
ATOM      7  N   UNL     1      -8.897  -9.455  15.010  0.00  0.00    +0.000 NA
ATOM      8  C   UNL     1      -8.879  -9.510  16.374  0.00  0.00    +0.000 A 
ATOM      9  N   UNL     1      -8.876  -8.316  17.071  0.00  0.00    +0.000 N 
ATOM     10  C   UNL     1      -8.457  -7.083  16.408  0.00  0.00    +0.000 C 
ATOM     11  C   UNL     1      -7.601  -6.312  17.429  0.00  0.00    +0.000 C 
ATOM     12  C   UNL     1      -8.278  -6.116  18.830  0.00  0.00    +0.000 C 
ATOM     13  C   UNL     1      -8.974  -7.436  19.278  0.00  0.00    +0.000 C 
ATOM     14  C   UNL     1      -9.805  -8.074  18.154  0.00  0.00    +0.000 C 
ATOM     15  C   UNL     1      -8.749 -10.806  16.966  0.00  0.00    +0.000 A 
ATOM     16  H   UNL     1      -8.326 -13.558  18.828  0.00  0.00    +0.000 HD
ATOM     17  H   UNL     1      -8.384 -13.934  16.340  0.00  0.00    +0.000 HD
ATOM     18  H   UNL     1      -8.844 -10.468  13.208  0.00  0.00    +0.000 HD
ATOM     19  H   UNL     1      -9.329  -6.500  16.085  0.00  0.00    +0.000 HD
ATOM     20  H   UNL     1      -7.851  -7.264  15.512  0.00  0.00    +0.000 HD
ATOM     21  H   UNL     1      -7.307  -5.348  16.998  0.00  0.00    +0.000 HD
ATOM     22  H   UNL     1      -6.675  -6.891  17.564  0.00  0.00    +0.000 HD
ATOM     23  H   UNL     1      -9.612  -7.288  20.156  0.00  0.00    +0.000 HD
ATOM     24  H   UNL     1      -8.188  -8.131  19.582  0.00  0.00    +0.000 HD
ATOM     25  H   UNL     1     -10.606  -7.393  17.836  0.00  0.00    +0.000 HD
ATOM     26  H   UNL     1     -10.324  -8.975  18.485  0.00  0.00    +0.000 HD
ENDROOT
BRANCH   1  27
ATOM     27  C   UNL     1      -8.565 -10.766  19.624  0.00  0.00    +0.000 C 
ATOM     28  H   UNL     1      -9.545 -10.807  20.112  0.00  0.00    +0.000 HD
ATOM     29  H   UNL     1      -8.312  -9.707  19.572  0.00  0.00    +0.000 HD
ATOM     30  H   UNL     1      -7.866 -11.300  20.271  0.00  0.00    +0.000 HD
ENDBRANCH   1  27
BRANCH  12  31
ATOM     31  C   UNL     1      -9.385  -5.053  18.764  0.00  0.00    +0.000 C 
ATOM     32  O   UNL     1     -10.521  -5.325  19.148  0.00  0.00    +0.000 OA
ATOM     33  N   UNL     1      -8.987  -3.808  18.279  0.00  0.00    +0.000 N 
ATOM     34  H   UNL     1      -8.043  -3.719  17.923  0.00  0.00    +0.000 HD
BRANCH  33  35
ATOM     35  C   UNL     1      -9.846  -2.722  17.997  0.00  0.00    +0.000 A 
ATOM     36  C   UNL     1     -10.084  -1.695  18.918  0.00  0.00    +0.000 A 
ATOM     37  C   UNL     1     -11.024  -0.706  18.652  0.00  0.00    +0.000 A 
ATOM     38  C   UNL     1     -11.721  -0.705  17.455  0.00  0.00    +0.000 A 
ATOM     39  C   UNL     1     -11.434  -1.671  16.490  0.00  0.00    +0.000 A 
ATOM     40  C   UNL     1     -10.509  -2.689  16.758  0.00  0.00    +0.000 A 
ATOM     41  H   UNL     1      -9.558  -1.645  19.863  0.00  0.00    +0.000 HD
ATOM     42  H   UNL     1     -11.212   0.066  19.395  0.00  0.00    +0.000 HD
ATOM     43  H   UNL     1     -12.477   0.058  17.295  0.00  0.00    +0.000 HD
ATOM     44  H   UNL     1     -10.344  -3.462  16.012  0.00  0.00    +0.000 HD
BRANCH  39  45
ATOM     45  O   UNL     1     -12.112  -1.719  15.246  0.00  0.00    +0.000 OA
BRANCH  45  46
ATOM     46  C   UNL     1     -11.437  -1.424  14.049  0.00  0.00    +0.000 C 
ATOM     47  O   UNL     1     -10.947  -0.330  13.789  0.00  0.00    +0.000 OA
ATOM     48  N   UNL     1     -11.364  -2.500  13.170  0.00  0.00    +0.000 N 
BRANCH  48  49
ATOM     49  C   UNL     1     -11.844  -3.835  13.473  0.00  0.00    +0.000 C 
ATOM     50  H   UNL     1     -11.064  -4.480  13.881  0.00  0.00    +0.000 HD
ATOM     51  H   UNL     1     -12.226  -4.281  12.548  0.00  0.00    +0.000 HD
ATOM     52  H   UNL     1     -12.661  -3.759  14.197  0.00  0.00    +0.000 HD
ENDBRANCH  48  49
BRANCH  48  53
ATOM     53  C   UNL     1     -10.685  -2.322  11.898  0.00  0.00    +0.000 C 
ATOM     54  H   UNL     1     -10.992  -1.405  11.387  0.00  0.00    +0.000 HD
ATOM     55  H   UNL     1     -10.915  -3.173  11.250  0.00  0.00    +0.000 HD
ATOM     56  H   UNL     1      -9.608  -2.279  12.078  0.00  0.00    +0.000 HD
ENDBRANCH  48  53
ENDBRANCH  45  46
ENDBRANCH  39  45
ENDBRANCH  33  35
ENDBRANCH  12  31
BRANCH  12  57
ATOM     57  C   UNL     1      -7.172  -5.737  19.878  0.00  0.00    +0.000 C 
ATOM     58  H   UNL     1      -6.213  -5.842  19.346  0.00  0.00    +0.000 HD
ATOM     59  H   UNL     1      -7.131  -6.490  20.675  0.00  0.00    +0.000 HD
BRANCH  57  60
ATOM     60  N   UNL     1      -7.157  -4.383  20.474  0.00  0.00    +0.000 NA
BRANCH  60  61
ATOM     61  C   UNL     1      -8.016  -4.205  21.648  0.00  0.00    +0.000 C 
ATOM     62  H   UNL     1      -9.066  -4.400  21.433  0.00  0.00    +0.000 HD
ATOM     63  H   UNL     1      -7.992  -3.160  21.975  0.00  0.00    +0.000 HD
ATOM     64  H   UNL     1      -7.699  -4.830  22.491  0.00  0.00    +0.000 HD
ENDBRANCH  60  61
BRANCH  60  65
ATOM     65  C   UNL     1      -5.786  -4.020  20.864  0.00  0.00    +0.000 C 
ATOM     66  H   UNL     1      -5.637  -4.124  21.943  0.00  0.00    +0.000 HD
ATOM     67  H   UNL     1      -5.543  -2.988  20.580  0.00  0.00    +0.000 HD
ATOM     68  H   UNL     1      -5.059  -4.682  20.379  0.00  0.00    +0.000 HD
ENDBRANCH  60  65
ENDBRANCH  57  60
ENDBRANCH  12  57
TORSDOF 11
ENDMDL
MODEL 7
REMARK VINA RESULT:    -9.133      2.842      4.845
REMARK INTER + INTRA:         -13.659
REMARK INTER:                 -12.778
REMARK INTRA:                  -0.881
REMARK UNBOUND:                 0.013
REMARK  Name = 
REMARK  11 active torsions:
REMARK  status: ('A' for Active; 'I' for Inactive)
REMARK    1  A    between atoms: C_1  and  C_2
REMARK    2  A    between atoms: C_13  and  C_14
REMARK    3  A    between atoms: C_13  and  C_18
REMARK    4  A    between atoms: C_14  and  N_15
REMARK    5  A    between atoms: N_15  and  C_16
REMARK    6  A    between atoms: N_15  and  C_17
REMARK    7  A    between atoms: N_20  and  C_21
REMARK    8  A    between atoms: C_25  and  O_26
REMARK    9  A    between atoms: O_26  and  C_27
REMARK   10  A    between atoms: N_29  and  C_30
REMARK   11  A    between atoms: N_29  and  C_31
REMARK                            x       y       z     vdW  Elec       q    Type
REMARK                         _______ _______ _______ _____ _____    ______ ____
ROOT
ATOM      1  C   UNL     1      -8.545 -11.380  18.352  0.00  0.00    +0.000 A 
ATOM      2  C   UNL     1      -8.387 -12.747  18.195  0.00  0.00    +0.000 A 
ATOM      3  N   UNL     1      -8.470 -13.040  16.868  0.00  0.00    +0.000 N 
ATOM      4  C   UNL     1      -8.689 -11.899  16.154  0.00  0.00    +0.000 A 
ATOM      5  N   UNL     1      -8.788 -11.893  14.820  0.00  0.00    +0.000 NA
ATOM      6  C   UNL     1      -8.953 -10.650  14.354  0.00  0.00    +0.000 A 
ATOM      7  N   UNL     1      -9.022  -9.509  15.058  0.00  0.00    +0.000 NA
ATOM      8  C   UNL     1      -8.939  -9.536  16.421  0.00  0.00    +0.000 A 
ATOM      9  N   UNL     1      -8.927  -8.328  17.093  0.00  0.00    +0.000 N 
ATOM     10  C   UNL     1      -8.562  -7.102  16.388  0.00  0.00    +0.000 C 
ATOM     11  C   UNL     1      -7.674  -6.295  17.352  0.00  0.00    +0.000 C 
ATOM     12  C   UNL     1      -8.289  -6.083  18.780  0.00  0.00    +0.000 C 
ATOM     13  C   UNL     1      -8.938  -7.406  19.285  0.00  0.00    +0.000 C 
ATOM     14  C   UNL     1      -9.809  -8.081  18.214  0.00  0.00    +0.000 C 
ATOM     15  C   UNL     1      -8.757 -10.817  17.030  0.00  0.00    +0.000 A 
ATOM     16  H   UNL     1      -8.197 -13.522  18.923  0.00  0.00    +0.000 HD
ATOM     17  H   UNL     1      -8.363 -13.950  16.449  0.00  0.00    +0.000 HD
ATOM     18  H   UNL     1      -9.033 -10.556  13.275  0.00  0.00    +0.000 HD
ATOM     19  H   UNL     1      -9.458  -6.541  16.095  0.00  0.00    +0.000 HD
ATOM     20  H   UNL     1      -7.995  -7.290  15.468  0.00  0.00    +0.000 HD
ATOM     21  H   UNL     1      -7.419  -5.335  16.889  0.00  0.00    +0.000 HD
ATOM     22  H   UNL     1      -6.733  -6.854  17.455  0.00  0.00    +0.000 HD
ATOM     23  H   UNL     1      -9.537  -7.251  20.189  0.00  0.00    +0.000 HD
ATOM     24  H   UNL     1      -8.126  -8.080  19.565  0.00  0.00    +0.000 HD
ATOM     25  H   UNL     1     -10.636  -7.421  17.920  0.00  0.00    +0.000 HD
ATOM     26  H   UNL     1     -10.295  -8.984  18.586  0.00  0.00    +0.000 HD
ENDROOT
BRANCH   1  27
ATOM     27  C   UNL     1      -8.451 -10.720  19.675  0.00  0.00    +0.000 C 
ATOM     28  H   UNL     1      -7.772  -9.861  19.641  0.00  0.00    +0.000 HD
ATOM     29  H   UNL     1      -8.041 -11.382  20.438  0.00  0.00    +0.000 HD
ATOM     30  H   UNL     1      -9.429 -10.339  19.979  0.00  0.00    +0.000 HD
ENDBRANCH   1  27
BRANCH  12  31
ATOM     31  C   UNL     1      -9.417  -5.041  18.744  0.00  0.00    +0.000 C 
ATOM     32  O   UNL     1     -10.546  -5.346  19.126  0.00  0.00    +0.000 OA
ATOM     33  N   UNL     1      -9.047  -3.776  18.290  0.00  0.00    +0.000 N 
ATOM     34  H   UNL     1      -8.106  -3.659  17.934  0.00  0.00    +0.000 HD
BRANCH  33  35
ATOM     35  C   UNL     1      -9.929  -2.701  18.039  0.00  0.00    +0.000 A 
ATOM     36  C   UNL     1     -10.683  -2.609  16.863  0.00  0.00    +0.000 A 
ATOM     37  C   UNL     1     -11.451  -1.480  16.599  0.00  0.00    +0.000 A 
ATOM     38  C   UNL     1     -11.505  -0.440  17.510  0.00  0.00    +0.000 A 
ATOM     39  C   UNL     1     -10.830  -0.553  18.726  0.00  0.00    +0.000 A 
ATOM     40  C   UNL     1     -10.030  -1.673  18.992  0.00  0.00    +0.000 A 
ATOM     41  H   UNL     1     -10.682  -3.399  16.123  0.00  0.00    +0.000 HD
ATOM     42  H   UNL     1     -12.006  -1.419  15.665  0.00  0.00    +0.000 HD
ATOM     43  H   UNL     1     -12.082   0.444  17.257  0.00  0.00    +0.000 HD
ATOM     44  H   UNL     1      -9.469  -1.712  19.922  0.00  0.00    +0.000 HD
BRANCH  39  45
ATOM     45  O   UNL     1     -10.851   0.477  19.700  0.00  0.00    +0.000 OA
BRANCH  45  46
ATOM     46  C   UNL     1     -12.037   0.796  20.383  0.00  0.00    +0.000 C 
ATOM     47  O   UNL     1     -12.550   0.080  21.237  0.00  0.00    +0.000 OA
ATOM     48  N   UNL     1     -12.586   2.018  20.008  0.00  0.00    +0.000 N 
BRANCH  48  49
ATOM     49  C   UNL     1     -11.965   2.940  19.075  0.00  0.00    +0.000 C 
ATOM     50  H   UNL     1     -12.271   3.974  19.240  0.00  0.00    +0.000 HD
ATOM     51  H   UNL     1     -12.246   2.643  18.060  0.00  0.00    +0.000 HD
ATOM     52  H   UNL     1     -10.878   2.868  19.181  0.00  0.00    +0.000 HD
ENDBRANCH  48  49
BRANCH  48  53
ATOM     53  C   UNL     1     -13.812   2.462  20.648  0.00  0.00    +0.000 C 
ATOM     54  H   UNL     1     -13.640   3.282  21.350  0.00  0.00    +0.000 HD
ATOM     55  H   UNL     1     -14.252   1.624  21.196  0.00  0.00    +0.000 HD
ATOM     56  H   UNL     1     -14.508   2.801  19.876  0.00  0.00    +0.000 HD
ENDBRANCH  48  53
ENDBRANCH  45  46
ENDBRANCH  39  45
ENDBRANCH  33  35
ENDBRANCH  12  31
BRANCH  12  57
ATOM     57  C   UNL     1      -7.142  -5.663  19.767  0.00  0.00    +0.000 C 
ATOM     58  H   UNL     1      -6.227  -5.623  19.157  0.00  0.00    +0.000 HD
ATOM     59  H   UNL     1      -6.958  -6.462  20.495  0.00  0.00    +0.000 HD
BRANCH  57  60
ATOM     60  N   UNL     1      -7.216  -4.362  20.468  0.00  0.00    +0.000 NA
BRANCH  60  61
ATOM     61  C   UNL     1      -8.059  -4.343  21.667  0.00  0.00    +0.000 C 
ATOM     62  H   UNL     1      -9.121  -4.404  21.433  0.00  0.00    +0.000 HD
ATOM     63  H   UNL     1      -7.947  -3.386  22.188  0.00  0.00    +0.000 HD
ATOM     64  H   UNL     1      -7.797  -5.142  22.369  0.00  0.00    +0.000 HD
ENDBRANCH  60  61
BRANCH  60  65
ATOM     65  C   UNL     1      -5.867  -3.926  20.863  0.00  0.00    +0.000 C 
ATOM     66  H   UNL     1      -5.852  -3.560  21.893  0.00  0.00    +0.000 HD
ATOM     67  H   UNL     1      -5.490  -3.130  20.208  0.00  0.00    +0.000 HD
ATOM     68  H   UNL     1      -5.162  -4.764  20.814  0.00  0.00    +0.000 HD
ENDBRANCH  60  65
ENDBRANCH  57  60
ENDBRANCH  12  57
TORSDOF 11
ENDMDL
MODEL 8
REMARK VINA RESULT:    -8.770      3.001      5.778
REMARK INTER + INTRA:         -13.116
REMARK INTER:                 -12.649
REMARK INTRA:                  -0.467
REMARK UNBOUND:                 0.013
REMARK  Name = 
REMARK  11 active torsions:
REMARK  status: ('A' for Active; 'I' for Inactive)
REMARK    1  A    between atoms: C_1  and  C_2
REMARK    2  A    between atoms: C_13  and  C_14
REMARK    3  A    between atoms: C_13  and  C_18
REMARK    4  A    between atoms: C_14  and  N_15
REMARK    5  A    between atoms: N_15  and  C_16
REMARK    6  A    between atoms: N_15  and  C_17
REMARK    7  A    between atoms: N_20  and  C_21
REMARK    8  A    between atoms: C_25  and  O_26
REMARK    9  A    between atoms: O_26  and  C_27
REMARK   10  A    between atoms: N_29  and  C_30
REMARK   11  A    between atoms: N_29  and  C_31
REMARK                            x       y       z     vdW  Elec       q    Type
REMARK                         _______ _______ _______ _____ _____    ______ ____
ROOT
ATOM      1  C   UNL     1      -8.501 -11.084  18.650  0.00  0.00    +0.000 A 
ATOM      2  C   UNL     1      -8.187 -12.427  18.774  0.00  0.00    +0.000 A 
ATOM      3  N   UNL     1      -8.291 -13.008  17.547  0.00  0.00    +0.000 N 
ATOM      4  C   UNL     1      -8.676 -12.080  16.626  0.00  0.00    +0.000 A 
ATOM      5  N   UNL     1      -8.832 -12.375  15.330  0.00  0.00    +0.000 NA
ATOM      6  C   UNL     1      -9.165 -11.288  14.625  0.00  0.00    +0.000 A 
ATOM      7  N   UNL     1      -9.339 -10.035  15.076  0.00  0.00    +0.000 NA
ATOM      8  C   UNL     1      -9.196  -9.757  16.404  0.00  0.00    +0.000 A 
ATOM      9  N   UNL     1      -9.300  -8.437  16.805  0.00  0.00    +0.000 N 
ATOM     10  C   UNL     1      -9.115  -7.361  15.834  0.00  0.00    +0.000 C 
ATOM     11  C   UNL     1      -8.290  -6.273  16.544  0.00  0.00    +0.000 C 
ATOM     12  C   UNL     1      -8.864  -5.824  17.933  0.00  0.00    +0.000 C 
ATOM     13  C   UNL     1      -9.327  -7.068  18.749  0.00  0.00    +0.000 C 
ATOM     14  C   UNL     1     -10.155  -8.049  17.905  0.00  0.00    +0.000 C 
ATOM     15  C   UNL     1      -8.835 -10.847  17.257  0.00  0.00    +0.000 A 
ATOM     16  H   UNL     1      -7.874 -13.000  19.635  0.00  0.00    +0.000 HD
ATOM     17  H   UNL     1      -8.094 -13.971  17.323  0.00  0.00    +0.000 HD
ATOM     18  H   UNL     1      -9.302 -11.440  13.558  0.00  0.00    +0.000 HD
ATOM     19  H   UNL     1     -10.084  -6.978  15.490  0.00  0.00    +0.000 HD
ATOM     20  H   UNL     1      -8.570  -7.682  14.938  0.00  0.00    +0.000 HD
ATOM     21  H   UNL     1      -8.171  -5.415  15.873  0.00  0.00    +0.000 HD
ATOM     22  H   UNL     1      -7.284  -6.692  16.699  0.00  0.00    +0.000 HD
ATOM     23  H   UNL     1      -9.901  -6.786  19.638  0.00  0.00    +0.000 HD
ATOM     24  H   UNL     1      -8.429  -7.573  19.109  0.00  0.00    +0.000 HD
ATOM     25  H   UNL     1     -11.068  -7.562  17.535  0.00  0.00    +0.000 HD
ATOM     26  H   UNL     1     -10.514  -8.898  18.491  0.00  0.00    +0.000 HD
ENDROOT
BRANCH   1  27
ATOM     27  C   UNL     1      -8.430 -10.146  19.795  0.00  0.00    +0.000 C 
ATOM     28  H   UNL     1      -8.661  -9.122  19.481  0.00  0.00    +0.000 HD
ATOM     29  H   UNL     1      -7.430 -10.097  20.227  0.00  0.00    +0.000 HD
ATOM     30  H   UNL     1      -9.166 -10.419  20.554  0.00  0.00    +0.000 HD
ENDBRANCH   1  27
BRANCH  12  31
ATOM     31  C   UNL     1     -10.109  -4.943  17.755  0.00  0.00    +0.000 C 
ATOM     32  O   UNL     1     -11.220  -5.386  18.041  0.00  0.00    +0.000 OA
ATOM     33  N   UNL     1      -9.864  -3.650  17.293  0.00  0.00    +0.000 N 
ATOM     34  H   UNL     1      -8.917  -3.418  17.022  0.00  0.00    +0.000 HD
BRANCH  33  35
ATOM     35  C   UNL     1     -10.850  -2.709  16.922  0.00  0.00    +0.000 A 
ATOM     36  C   UNL     1     -11.677  -2.889  15.807  0.00  0.00    +0.000 A 
ATOM     37  C   UNL     1     -12.556  -1.888  15.405  0.00  0.00    +0.000 A 
ATOM     38  C   UNL     1     -12.646  -0.706  16.121  0.00  0.00    +0.000 A 
ATOM     39  C   UNL     1     -11.893  -0.546  17.285  0.00  0.00    +0.000 A 
ATOM     40  C   UNL     1     -10.984  -1.535  17.684  0.00  0.00    +0.000 A 
ATOM     41  H   UNL     1     -11.651  -3.798  15.220  0.00  0.00    +0.000 HD
ATOM     42  H   UNL     1     -13.168  -2.039  14.519  0.00  0.00    +0.000 HD
ATOM     43  H   UNL     1     -13.312   0.071  15.759  0.00  0.00    +0.000 HD
ATOM     44  H   UNL     1     -10.368  -1.362  18.562  0.00  0.00    +0.000 HD
BRANCH  39  45
ATOM     45  O   UNL     1     -11.946   0.640  18.061  0.00  0.00    +0.000 OA
BRANCH  45  46
ATOM     46  C   UNL     1     -12.764   1.715  17.674  0.00  0.00    +0.000 C 
ATOM     47  O   UNL     1     -13.970   1.774  17.894  0.00  0.00    +0.000 OA
ATOM     48  N   UNL     1     -12.078   2.730  17.015  0.00  0.00    +0.000 N 
BRANCH  48  49
ATOM     49  C   UNL     1     -10.641   2.748  16.818  0.00  0.00    +0.000 C 
ATOM     50  H   UNL     1     -10.362   2.864  15.769  0.00  0.00    +0.000 HD
ATOM     51  H   UNL     1     -10.230   1.806  17.194  0.00  0.00    +0.000 HD
ATOM     52  H   UNL     1     -10.218   3.578  17.393  0.00  0.00    +0.000 HD
ENDBRANCH  48  49
BRANCH  48  53
ATOM     53  C   UNL     1     -12.815   3.900  16.570  0.00  0.00    +0.000 C 
ATOM     54  H   UNL     1     -12.182   4.789  16.505  0.00  0.00    +0.000 HD
ATOM     55  H   UNL     1     -13.624   4.102  17.276  0.00  0.00    +0.000 HD
ATOM     56  H   UNL     1     -13.234   3.695  15.581  0.00  0.00    +0.000 HD
ENDBRANCH  48  53
ENDBRANCH  45  46
ENDBRANCH  39  45
ENDBRANCH  33  35
ENDBRANCH  12  31
BRANCH  12  57
ATOM     57  C   UNL     1      -7.734  -5.078  18.730  0.00  0.00    +0.000 C 
ATOM     58  H   UNL     1      -8.157  -4.096  18.992  0.00  0.00    +0.000 HD
ATOM     59  H   UNL     1      -6.891  -4.850  18.066  0.00  0.00    +0.000 HD
BRANCH  57  60
ATOM     60  N   UNL     1      -7.227  -5.652  19.995  0.00  0.00    +0.000 NA
BRANCH  60  61
ATOM     61  C   UNL     1      -5.799  -5.978  20.009  0.00  0.00    +0.000 C 
ATOM     62  H   UNL     1      -5.418  -6.155  21.014  0.00  0.00    +0.000 HD
ATOM     63  H   UNL     1      -5.216  -5.127  19.641  0.00  0.00    +0.000 HD
ATOM     64  H   UNL     1      -5.567  -6.844  19.378  0.00  0.00    +0.000 HD
ENDBRANCH  60  61
BRANCH  60  65
ATOM     65  C   UNL     1      -7.484  -4.723  21.107  0.00  0.00    +0.000 C 
ATOM     66  H   UNL     1      -6.991  -5.054  22.026  0.00  0.00    +0.000 HD
ATOM     67  H   UNL     1      -8.558  -4.620  21.310  0.00  0.00    +0.000 HD
ATOM     68  H   UNL     1      -7.088  -3.727  20.876  0.00  0.00    +0.000 HD
ENDBRANCH  60  65
ENDBRANCH  57  60
ENDBRANCH  12  57
TORSDOF 11
ENDMDL
MODEL 9
REMARK VINA RESULT:    -8.709      1.664      2.094
REMARK INTER + INTRA:         -13.023
REMARK INTER:                 -12.910
REMARK INTRA:                  -0.114
REMARK UNBOUND:                 0.013
REMARK  Name = 
REMARK  11 active torsions:
REMARK  status: ('A' for Active; 'I' for Inactive)
REMARK    1  A    between atoms: C_1  and  C_2
REMARK    2  A    between atoms: C_13  and  C_14
REMARK    3  A    between atoms: C_13  and  C_18
REMARK    4  A    between atoms: C_14  and  N_15
REMARK    5  A    between atoms: N_15  and  C_16
REMARK    6  A    between atoms: N_15  and  C_17
REMARK    7  A    between atoms: N_20  and  C_21
REMARK    8  A    between atoms: C_25  and  O_26
REMARK    9  A    between atoms: O_26  and  C_27
REMARK   10  A    between atoms: N_29  and  C_30
REMARK   11  A    between atoms: N_29  and  C_31
REMARK                            x       y       z     vdW  Elec       q    Type
REMARK                         _______ _______ _______ _____ _____    ______ ____
ROOT
ATOM      1  C   UNL     1      -8.738 -10.484  15.184  0.00  0.00    +0.000 A 
ATOM      2  C   UNL     1      -8.507 -11.726  14.614  0.00  0.00    +0.000 A 
ATOM      3  N   UNL     1      -8.361 -12.637  15.616  0.00  0.00    +0.000 N 
ATOM      4  C   UNL     1      -8.479 -12.020  16.825  0.00  0.00    +0.000 A 
ATOM      5  N   UNL     1      -8.402 -12.686  17.983  0.00  0.00    +0.000 NA
ATOM      6  C   UNL     1      -8.598 -11.869  19.024  0.00  0.00    +0.000 A 
ATOM      7  N   UNL     1      -8.844 -10.549  19.000  0.00  0.00    +0.000 NA
ATOM      8  C   UNL     1      -8.900  -9.882  17.810  0.00  0.00    +0.000 A 
ATOM      9  N   UNL     1      -9.243  -8.543  17.834  0.00  0.00    +0.000 N 
ATOM     10  C   UNL     1      -9.946  -7.988  18.988  0.00  0.00    +0.000 C 
ATOM     11  C   UNL     1     -11.013  -7.031  18.426  0.00  0.00    +0.000 C 
ATOM     12  C   UNL     1     -10.466  -5.971  17.408  0.00  0.00    +0.000 C 
ATOM     13  C   UNL     1      -9.466  -6.643  16.421  0.00  0.00    +0.000 C 
ATOM     14  C   UNL     1      -8.453  -7.551  17.136  0.00  0.00    +0.000 C 
ATOM     15  C   UNL     1      -8.708 -10.660  16.625  0.00  0.00    +0.000 A 
ATOM     16  H   UNL     1      -8.464 -12.028  13.578  0.00  0.00    +0.000 HD
ATOM     17  H   UNL     1      -8.213 -13.628  15.505  0.00  0.00    +0.000 HD
ATOM     18  H   UNL     1      -8.560 -12.334  20.004  0.00  0.00    +0.000 HD
ATOM     19  H   UNL     1      -9.247  -7.470  19.656  0.00  0.00    +0.000 HD
ATOM     20  H   UNL     1     -10.448  -8.753  19.592  0.00  0.00    +0.000 HD
ATOM     21  H   UNL     1     -11.534  -6.543  19.258  0.00  0.00    +0.000 HD
ATOM     22  H   UNL     1     -11.759  -7.657  17.914  0.00  0.00    +0.000 HD
ATOM     23  H   UNL     1      -8.923  -5.905  15.819  0.00  0.00    +0.000 HD
ATOM     24  H   UNL     1     -10.052  -7.241  15.721  0.00  0.00    +0.000 HD
ATOM     25  H   UNL     1      -7.848  -6.968  17.844  0.00  0.00    +0.000 HD
ATOM     26  H   UNL     1      -7.728  -7.986  16.446  0.00  0.00    +0.000 HD
ENDROOT
BRANCH   1  27
ATOM     27  C   UNL     1      -8.998  -9.276  14.367  0.00  0.00    +0.000 C 
ATOM     28  H   UNL     1     -10.041  -9.241  14.035  0.00  0.00    +0.000 HD
ATOM     29  H   UNL     1      -8.403  -9.260  13.453  0.00  0.00    +0.000 HD
ATOM     30  H   UNL     1      -8.822  -8.374  14.958  0.00  0.00    +0.000 HD
ENDBRANCH   1  27
BRANCH  12  31
ATOM     31  C   UNL     1      -9.676  -4.870  18.131  0.00  0.00    +0.000 C 
ATOM     32  O   UNL     1      -8.461  -4.983  18.279  0.00  0.00    +0.000 OA
ATOM     33  N   UNL     1     -10.429  -3.774  18.552  0.00  0.00    +0.000 N 
ATOM     34  H   UNL     1     -11.435  -3.821  18.441  0.00  0.00    +0.000 HD
BRANCH  33  35
ATOM     35  C   UNL     1      -9.957  -2.710  19.353  0.00  0.00    +0.000 A 
ATOM     36  C   UNL     1      -9.945  -1.383  18.906  0.00  0.00    +0.000 A 
ATOM     37  C   UNL     1      -9.365  -0.380  19.675  0.00  0.00    +0.000 A 
ATOM     38  C   UNL     1      -8.815  -0.674  20.911  0.00  0.00    +0.000 A 
ATOM     39  C   UNL     1      -8.896  -1.975  21.410  0.00  0.00    +0.000 A 
ATOM     40  C   UNL     1      -9.452  -3.000  20.633  0.00  0.00    +0.000 A 
ATOM     41  H   UNL     1     -10.370  -1.100  17.952  0.00  0.00    +0.000 HD
ATOM     42  H   UNL     1      -9.342   0.639  19.294  0.00  0.00    +0.000 HD
ATOM     43  H   UNL     1      -8.334   0.124  21.469  0.00  0.00    +0.000 HD
ATOM     44  H   UNL     1      -9.453  -4.014  21.020  0.00  0.00    +0.000 HD
BRANCH  39  45
ATOM     45  O   UNL     1      -8.354  -2.335  22.670  0.00  0.00    +0.000 OA
BRANCH  45  46
ATOM     46  C   UNL     1      -8.871  -1.788  23.857  0.00  0.00    +0.000 C 
ATOM     47  O   UNL     1      -9.436  -0.700  23.922  0.00  0.00    +0.000 OA
ATOM     48  N   UNL     1      -8.692  -2.601  24.970  0.00  0.00    +0.000 N 
BRANCH  48  49
ATOM     49  C   UNL     1      -8.117  -3.932  24.925  0.00  0.00    +0.000 C 
ATOM     50  H   UNL     1      -8.017  -4.313  23.907  0.00  0.00    +0.000 HD
ATOM     51  H   UNL     1      -8.765  -4.607  25.494  0.00  0.00    +0.000 HD
ATOM     52  H   UNL     1      -7.129  -3.904  25.394  0.00  0.00    +0.000 HD
ENDBRANCH  48  49
BRANCH  48  53
ATOM     53  C   UNL     1      -9.189  -2.147  26.258  0.00  0.00    +0.000 C 
ATOM     54  H   UNL     1      -8.414  -2.156  27.029  0.00  0.00    +0.000 HD
ATOM     55  H   UNL     1     -10.003  -2.805  26.577  0.00  0.00    +0.000 HD
ATOM     56  H   UNL     1      -9.564  -1.126  26.149  0.00  0.00    +0.000 HD
ENDBRANCH  48  53
ENDBRANCH  45  46
ENDBRANCH  39  45
ENDBRANCH  33  35
ENDBRANCH  12  31
BRANCH  12  57
ATOM     57  C   UNL     1     -11.673  -5.381  16.595  0.00  0.00    +0.000 C 
ATOM     58  H   UNL     1     -12.421  -5.086  17.348  0.00  0.00    +0.000 HD
ATOM     59  H   UNL     1     -12.161  -6.172  16.013  0.00  0.00    +0.000 HD
BRANCH  57  60
ATOM     60  N   UNL     1     -11.471  -4.191  15.740  0.00  0.00    +0.000 NA
BRANCH  60  61
ATOM     61  C   UNL     1     -11.730  -4.393  14.312  0.00  0.00    +0.000 C 
ATOM     62  H   UNL     1     -12.257  -5.324  14.109  0.00  0.00    +0.000 HD
ATOM     63  H   UNL     1     -10.784  -4.489  13.769  0.00  0.00    +0.000 HD
ATOM     64  H   UNL     1     -12.289  -3.559  13.871  0.00  0.00    +0.000 HD
ENDBRANCH  60  61
BRANCH  60  65
ATOM     65  C   UNL     1     -12.331  -3.089  16.199  0.00  0.00    +0.000 C 
ATOM     66  H   UNL     1     -12.521  -2.371  15.396  0.00  0.00    +0.000 HD
ATOM     67  H   UNL     1     -11.884  -2.551  17.045  0.00  0.00    +0.000 HD
ATOM     68  H   UNL     1     -13.307  -3.471  16.521  0.00  0.00    +0.000 HD
ENDBRANCH  60  65
ENDBRANCH  57  60
ENDBRANCH  12  57
TORSDOF 11
ENDMDL
