MODEL 1
REMARK VINA RESULT:    -9.288      0.000      0.000
REMARK INTER + INTRA:         -12.467
REMARK INTER:                 -11.731
REMARK INTRA:                  -0.735
REMARK UNBOUND:                -0.735
REMARK  Name = 
REMARK  7 active torsions:
REMARK  status: ('A' for Active; 'I' for Inactive)
REMARK    1  A    between atoms: C_1  and  C_2
REMARK    2  A    between atoms: C_6  and  C_7
REMARK    3  A    between atoms: C_7  and  N_8
REMARK    4  A    between atoms: C_11  and  O_12
REMARK    5  A    between atoms: C_13  and  O_14
REMARK    6  A    between atoms: C_20  and  O_21
REMARK    7  A    between atoms: C_22  and  O_23
REMARK                            x       y       z     vdW  Elec       q    Type
REMARK                         _______ _______ _______ _____ _____    ______ ____
ROOT
ATOM      1  N   UNL     1      -9.193  -7.424  18.746  0.00  0.00    +0.000 N 
ATOM      2  C   UNL     1      -9.622  -6.555  17.752  0.00  0.00    +0.000 A 
ATOM      3  C   UNL     1      -9.817  -5.157  17.757  0.00  0.00    +0.000 A 
ATOM      4  C   UNL     1     -10.233  -4.565  16.567  0.00  0.00    +0.000 A 
ATOM      5  C   UNL     1     -10.451  -5.315  15.422  0.00  0.00    +0.000 A 
ATOM      6  C   UNL     1     -10.264  -6.695  15.416  0.00  0.00    +0.000 A 
ATOM      7  C   UNL     1      -9.838  -7.326  16.605  0.00  0.00    +0.000 A 
ATOM      8  C   UNL     1      -9.530  -8.686  16.932  0.00  0.00    +0.000 A 
ATOM      9  C   UNL     1      -9.518  -9.889  16.185  0.00  0.00    +0.000 A 
ATOM     10  C   UNL     1      -9.133 -11.091  16.792  0.00  0.00    +0.000 A 
ATOM     11  C   UNL     1      -8.793 -11.102  18.134  0.00  0.00    +0.000 A 
ATOM     12  C   UNL     1      -8.815  -9.933  18.897  0.00  0.00    +0.000 A 
ATOM     13  C   UNL     1      -9.161  -8.724  18.278  0.00  0.00    +0.000 A 
ATOM     14  H   UNL     1      -9.645  -4.576  18.656  0.00  0.00    +0.000 HD
ATOM     15  H   UNL     1     -10.437  -7.263  14.510  0.00  0.00    +0.000 HD
ATOM     16  H   UNL     1      -9.785  -9.874  15.132  0.00  0.00    +0.000 HD
ATOM     17  H   UNL     1      -9.101 -11.996  16.194  0.00  0.00    +0.000 HD
ENDROOT
BRANCH   1  18
ATOM     18  C   UNL     1      -8.695  -7.009  20.058  0.00  0.00    +0.000 C 
ATOM     19  H   UNL     1      -9.477  -6.454  20.584  0.00  0.00    +0.000 HD
ATOM     20  H   UNL     1      -8.550  -7.931  20.631  0.00  0.00    +0.000 HD
BRANCH  18  25
ATOM     21  C   UNL     1      -6.077  -4.367  20.898  0.00  0.00    +0.000 A 
ATOM     22  C   UNL     1      -5.023  -4.732  20.056  0.00  0.00    +0.000 A 
ATOM     23  C   UNL     1      -5.170  -5.793  19.166  0.00  0.00    +0.000 A 
ATOM     24  C   UNL     1      -6.361  -6.519  19.130  0.00  0.00    +0.000 A 
ATOM     25  C   UNL     1      -7.406  -6.222  20.015  0.00  0.00    +0.000 A 
ATOM     26  C   UNL     1      -7.264  -5.112  20.867  0.00  0.00    +0.000 A 
ATOM     27  H   UNL     1      -4.082  -4.188  20.081  0.00  0.00    +0.000 HD
ATOM     28  H   UNL     1      -4.354  -6.062  18.500  0.00  0.00    +0.000 HD
ATOM     29  H   UNL     1      -6.454  -7.326  18.405  0.00  0.00    +0.000 HD
ATOM     30  H   UNL     1      -8.087  -4.827  21.521  0.00  0.00    +0.000 HD
BRANCH  21  31
ATOM     31  C   UNL     1      -5.948  -3.203  21.834  0.00  0.00    +0.000 C 
ATOM     32  H   UNL     1      -5.025  -2.643  21.652  0.00  0.00    +0.000 HD
ATOM     33  H   UNL     1      -5.930  -3.555  22.870  0.00  0.00    +0.000 HD
ATOM     34  H   UNL     1      -6.790  -2.515  21.701  0.00  0.00    +0.000 HD
ENDBRANCH  21  31
ENDBRANCH  18  25
ENDBRANCH   1  18
BRANCH   4  35
ATOM     35  O   UNL     1     -10.440  -3.211  16.478  0.00  0.00    +0.000 OA
ATOM     36  H   UNL     1     -10.735  -3.011  15.575  0.00  0.00    +0.000 HD
ENDBRANCH   4  35
BRANCH   5  37
ATOM     37  O   UNL     1     -10.864  -4.697  14.273  0.00  0.00    +0.000 OA
ATOM     38  H   UNL     1     -11.787  -4.433  14.463  0.00  0.00    +0.000 HD
ENDBRANCH   5  37
BRANCH  11  39
ATOM     39  O   UNL     1      -8.396 -12.249  18.770  0.00  0.00    +0.000 OA
ATOM     40  H   UNL     1      -7.437 -12.189  18.924  0.00  0.00    +0.000 HD
ENDBRANCH  11  39
BRANCH  12  41
ATOM     41  O   UNL     1      -8.475 -10.003  20.225  0.00  0.00    +0.000 OA
ATOM     42  H   UNL     1      -9.225 -10.471  20.643  0.00  0.00    +0.000 HD
ENDBRANCH  12  41
TORSDOF 7
ENDMDL
MODEL 2
REMARK VINA RESULT:    -8.975      2.413      6.568
REMARK INTER + INTRA:         -12.072
REMARK INTER:                 -11.447
REMARK INTRA:                  -0.625
REMARK UNBOUND:                -0.735
REMARK  Name = 
REMARK  7 active torsions:
REMARK  status: ('A' for Active; 'I' for Inactive)
REMARK    1  A    between atoms: C_1  and  C_2
REMARK    2  A    between atoms: C_6  and  C_7
REMARK    3  A    between atoms: C_7  and  N_8
REMARK    4  A    between atoms: C_11  and  O_12
REMARK    5  A    between atoms: C_13  and  O_14
REMARK    6  A    between atoms: C_20  and  O_21
REMARK    7  A    between atoms: C_22  and  O_23
REMARK                            x       y       z     vdW  Elec       q    Type
REMARK                         _______ _______ _______ _____ _____    ______ ____
ROOT
ATOM      1  N   UNL     1      -8.475  -5.855  17.960  0.00  0.00    +0.000 N 
ATOM      2  C   UNL     1      -7.420  -5.553  18.811  0.00  0.00    +0.000 A 
ATOM      3  C   UNL     1      -6.127  -6.109  18.926  0.00  0.00    +0.000 A 
ATOM      4  C   UNL     1      -5.274  -5.554  19.876  0.00  0.00    +0.000 A 
ATOM      5  C   UNL     1      -5.674  -4.500  20.682  0.00  0.00    +0.000 A 
ATOM      6  C   UNL     1      -6.952  -3.952  20.574  0.00  0.00    +0.000 A 
ATOM      7  C   UNL     1      -7.839  -4.490  19.617  0.00  0.00    +0.000 A 
ATOM      8  C   UNL     1      -9.178  -4.157  19.233  0.00  0.00    +0.000 A 
ATOM      9  C   UNL     1     -10.093  -3.160  19.653  0.00  0.00    +0.000 A 
ATOM     10  C   UNL     1     -11.355  -3.065  19.052  0.00  0.00    +0.000 A 
ATOM     11  C   UNL     1     -11.714  -3.970  18.067  0.00  0.00    +0.000 A 
ATOM     12  C   UNL     1     -10.838  -4.973  17.649  0.00  0.00    +0.000 A 
ATOM     13  C   UNL     1      -9.560  -5.041  18.222  0.00  0.00    +0.000 A 
ATOM     14  H   UNL     1      -5.819  -6.934  18.293  0.00  0.00    +0.000 HD
ATOM     15  H   UNL     1      -7.245  -3.128  21.211  0.00  0.00    +0.000 HD
ATOM     16  H   UNL     1      -9.805  -2.453  20.425  0.00  0.00    +0.000 HD
ATOM     17  H   UNL     1     -12.029  -2.275  19.366  0.00  0.00    +0.000 HD
ENDROOT
BRANCH   1  18
ATOM     18  C   UNL     1      -8.401  -6.795  16.842  0.00  0.00    +0.000 C 
ATOM     19  H   UNL     1      -9.093  -6.480  16.057  0.00  0.00    +0.000 HD
ATOM     20  H   UNL     1      -7.398  -6.679  16.416  0.00  0.00    +0.000 HD
BRANCH  18  25
ATOM     21  C   UNL     1      -9.018 -10.541  16.494  0.00  0.00    +0.000 A 
ATOM     22  C   UNL     1      -9.010 -10.957  17.828  0.00  0.00    +0.000 A 
ATOM     23  C   UNL     1      -8.868 -10.025  18.854  0.00  0.00    +0.000 A 
ATOM     24  C   UNL     1      -8.703  -8.673  18.555  0.00  0.00    +0.000 A 
ATOM     25  C   UNL     1      -8.633  -8.238  17.225  0.00  0.00    +0.000 A 
ATOM     26  C   UNL     1      -8.835  -9.183  16.202  0.00  0.00    +0.000 A 
ATOM     27  H   UNL     1      -9.122 -12.009  18.080  0.00  0.00    +0.000 HD
ATOM     28  H   UNL     1      -8.880 -10.351  19.890  0.00  0.00    +0.000 HD
ATOM     29  H   UNL     1      -8.621  -7.967  19.379  0.00  0.00    +0.000 HD
ATOM     30  H   UNL     1      -8.844  -8.857  15.163  0.00  0.00    +0.000 HD
BRANCH  21  31
ATOM     31  C   UNL     1      -9.209 -11.528  15.381  0.00  0.00    +0.000 C 
ATOM     32  H   UNL     1      -9.720 -11.072  14.526  0.00  0.00    +0.000 HD
ATOM     33  H   UNL     1      -9.815 -12.370  15.726  0.00  0.00    +0.000 HD
ATOM     34  H   UNL     1      -8.240 -11.899  15.034  0.00  0.00    +0.000 HD
ENDBRANCH  21  31
ENDBRANCH  18  25
ENDBRANCH   1  18
BRANCH   4  35
ATOM     35  O   UNL     1      -3.996  -6.025  20.051  0.00  0.00    +0.000 OA
ATOM     36  H   UNL     1      -3.846  -6.731  19.403  0.00  0.00    +0.000 HD
ENDBRANCH   4  35
BRANCH   5  37
ATOM     37  O   UNL     1      -4.809  -3.984  21.608  0.00  0.00    +0.000 OA
ATOM     38  H   UNL     1      -3.926  -4.258  21.286  0.00  0.00    +0.000 HD
ENDBRANCH   5  37
BRANCH  11  39
ATOM     39  O   UNL     1     -12.931  -3.910  17.439  0.00  0.00    +0.000 OA
ATOM     40  H   UNL     1     -12.791  -3.539  16.551  0.00  0.00    +0.000 HD
ENDBRANCH  11  39
BRANCH  12  41
ATOM     41  O   UNL     1     -11.249  -5.847  16.673  0.00  0.00    +0.000 OA
ATOM     42  H   UNL     1     -12.004  -6.321  17.075  0.00  0.00    +0.000 HD
ENDBRANCH  12  41
TORSDOF 7
ENDMDL
MODEL 3
REMARK VINA RESULT:    -8.836      1.094      4.645
REMARK INTER + INTRA:         -11.896
REMARK INTER:                 -11.226
REMARK INTRA:                  -0.670
REMARK UNBOUND:                -0.735
REMARK  Name = 
REMARK  7 active torsions:
REMARK  status: ('A' for Active; 'I' for Inactive)
REMARK    1  A    between atoms: C_1  and  C_2
REMARK    2  A    between atoms: C_6  and  C_7
REMARK    3  A    between atoms: C_7  and  N_8
REMARK    4  A    between atoms: C_11  and  O_12
REMARK    5  A    between atoms: C_13  and  O_14
REMARK    6  A    between atoms: C_20  and  O_21
REMARK    7  A    between atoms: C_22  and  O_23
REMARK                            x       y       z     vdW  Elec       q    Type
REMARK                         _______ _______ _______ _____ _____    ______ ____
ROOT
ATOM      1  N   UNL     1      -9.281  -6.792  18.545  0.00  0.00    +0.000 N 
ATOM      2  C   UNL     1      -9.244  -8.074  18.015  0.00  0.00    +0.000 A 
ATOM      3  C   UNL     1      -8.689  -9.273  18.515  0.00  0.00    +0.000 A 
ATOM      4  C   UNL     1      -8.849 -10.421  17.744  0.00  0.00    +0.000 A 
ATOM      5  C   UNL     1      -9.520 -10.394  16.531  0.00  0.00    +0.000 A 
ATOM      6  C   UNL     1     -10.063  -9.211  16.033  0.00  0.00    +0.000 A 
ATOM      7  C   UNL     1      -9.923  -8.029  16.793  0.00  0.00    +0.000 A 
ATOM      8  C   UNL     1     -10.373  -6.684  16.596  0.00  0.00    +0.000 A 
ATOM      9  C   UNL     1     -11.135  -6.049  15.585  0.00  0.00    +0.000 A 
ATOM     10  C   UNL     1     -11.446  -4.687  15.688  0.00  0.00    +0.000 A 
ATOM     11  C   UNL     1     -10.978  -3.958  16.769  0.00  0.00    +0.000 A 
ATOM     12  C   UNL     1     -10.209  -4.556  17.769  0.00  0.00    +0.000 A 
ATOM     13  C   UNL     1      -9.934  -5.928  17.686  0.00  0.00    +0.000 A 
ATOM     14  H   UNL     1      -8.165  -9.289  19.464  0.00  0.00    +0.000 HD
ATOM     15  H   UNL     1     -10.586  -9.210  15.086  0.00  0.00    +0.000 HD
ATOM     16  H   UNL     1     -11.500  -6.626  14.741  0.00  0.00    +0.000 HD
ATOM     17  H   UNL     1     -12.057  -4.227  14.919  0.00  0.00    +0.000 HD
ENDROOT
BRANCH   1  18
ATOM     18  C   UNL     1      -8.833  -6.432  19.890  0.00  0.00    +0.000 C 
ATOM     19  H   UNL     1      -9.563  -5.760  20.349  0.00  0.00    +0.000 HD
ATOM     20  H   UNL     1      -8.871  -7.356  20.478  0.00  0.00    +0.000 HD
BRANCH  18  25
ATOM     21  C   UNL     1      -5.900  -4.262  20.999  0.00  0.00    +0.000 A 
ATOM     22  C   UNL     1      -4.873  -4.727  20.174  0.00  0.00    +0.000 A 
ATOM     23  C   UNL     1      -5.132  -5.699  19.209  0.00  0.00    +0.000 A 
ATOM     24  C   UNL     1      -6.412  -6.237  19.082  0.00  0.00    +0.000 A 
ATOM     25  C   UNL     1      -7.442  -5.844  19.946  0.00  0.00    +0.000 A 
ATOM     26  C   UNL     1      -7.180  -4.821  20.875  0.00  0.00    +0.000 A 
ATOM     27  H   UNL     1      -3.865  -4.331  20.269  0.00  0.00    +0.000 HD
ATOM     28  H   UNL     1      -4.334  -6.044  18.558  0.00  0.00    +0.000 HD
ATOM     29  H   UNL     1      -6.588  -6.976  18.302  0.00  0.00    +0.000 HD
ATOM     30  H   UNL     1      -7.982  -4.457  21.517  0.00  0.00    +0.000 HD
BRANCH  21  31
ATOM     31  C   UNL     1      -5.646  -3.189  22.015  0.00  0.00    +0.000 C 
ATOM     32  H   UNL     1      -4.636  -2.779  21.920  0.00  0.00    +0.000 HD
ATOM     33  H   UNL     1      -5.752  -3.596  23.025  0.00  0.00    +0.000 HD
ATOM     34  H   UNL     1      -6.356  -2.366  21.881  0.00  0.00    +0.000 HD
ENDBRANCH  21  31
ENDBRANCH  18  25
ENDBRANCH   1  18
BRANCH   4  35
ATOM     35  O   UNL     1      -8.349 -11.632  18.155  0.00  0.00    +0.000 OA
ATOM     36  H   UNL     1      -7.764 -11.968  17.458  0.00  0.00    +0.000 HD
ENDBRANCH   4  35
BRANCH   5  37
ATOM     37  O   UNL     1      -9.651 -11.542  15.800  0.00  0.00    +0.000 OA
ATOM     38  H   UNL     1     -10.588 -11.796  15.922  0.00  0.00    +0.000 HD
ENDBRANCH   5  37
BRANCH  11  39
ATOM     39  O   UNL     1     -11.267  -2.627  16.923  0.00  0.00    +0.000 OA
ATOM     40  H   UNL     1     -11.533  -2.277  16.054  0.00  0.00    +0.000 HD
ENDBRANCH  11  39
BRANCH  12  41
ATOM     41  O   UNL     1      -9.766  -3.784  18.814  0.00  0.00    +0.000 OA
ATOM     42  H   UNL     1     -10.230  -2.931  18.699  0.00  0.00    +0.000 HD
ENDBRANCH  12  41
TORSDOF 7
ENDMDL
MODEL 4
REMARK VINA RESULT:    -8.483      2.481      6.000
REMARK INTER + INTRA:         -11.449
REMARK INTER:                 -10.914
REMARK INTRA:                  -0.535
REMARK UNBOUND:                -0.735
REMARK  Name = 
REMARK  7 active torsions:
REMARK  status: ('A' for Active; 'I' for Inactive)
REMARK    1  A    between atoms: C_1  and  C_2
REMARK    2  A    between atoms: C_6  and  C_7
REMARK    3  A    between atoms: C_7  and  N_8
REMARK    4  A    between atoms: C_11  and  O_12
REMARK    5  A    between atoms: C_13  and  O_14
REMARK    6  A    between atoms: C_20  and  O_21
REMARK    7  A    between atoms: C_22  and  O_23
REMARK                            x       y       z     vdW  Elec       q    Type
REMARK                         _______ _______ _______ _____ _____    ______ ____
ROOT
ATOM      1  N   UNL     1      -8.794  -5.495  18.202  0.00  0.00    +0.000 N 
ATOM      2  C   UNL     1      -8.504  -4.656  19.270  0.00  0.00    +0.000 A 
ATOM      3  C   UNL     1      -7.499  -4.723  20.260  0.00  0.00    +0.000 A 
ATOM      4  C   UNL     1      -7.452  -3.690  21.193  0.00  0.00    +0.000 A 
ATOM      5  C   UNL     1      -8.354  -2.638  21.158  0.00  0.00    +0.000 A 
ATOM      6  C   UNL     1      -9.349  -2.573  20.184  0.00  0.00    +0.000 A 
ATOM      7  C   UNL     1      -9.422  -3.602  19.221  0.00  0.00    +0.000 A 
ATOM      8  C   UNL     1     -10.278  -3.826  18.095  0.00  0.00    +0.000 A 
ATOM      9  C   UNL     1     -11.348  -3.094  17.523  0.00  0.00    +0.000 A 
ATOM     10  C   UNL     1     -11.990  -3.568  16.372  0.00  0.00    +0.000 A 
ATOM     11  C   UNL     1     -11.594  -4.772  15.814  0.00  0.00    +0.000 A 
ATOM     12  C   UNL     1     -10.556  -5.522  16.370  0.00  0.00    +0.000 A 
ATOM     13  C   UNL     1      -9.886  -5.026  17.497  0.00  0.00    +0.000 A 
ATOM     14  H   UNL     1      -6.797  -5.548  20.283  0.00  0.00    +0.000 HD
ATOM     15  H   UNL     1     -10.043  -1.742  20.171  0.00  0.00    +0.000 HD
ATOM     16  H   UNL     1     -11.653  -2.150  17.965  0.00  0.00    +0.000 HD
ATOM     17  H   UNL     1     -12.786  -2.977  15.932  0.00  0.00    +0.000 HD
ENDROOT
BRANCH   1  18
ATOM     18  C   UNL     1      -7.972  -6.630  17.786  0.00  0.00    +0.000 C 
ATOM     19  H   UNL     1      -8.054  -6.761  16.703  0.00  0.00    +0.000 HD
ATOM     20  H   UNL     1      -6.933  -6.335  17.971  0.00  0.00    +0.000 HD
BRANCH  18  25
ATOM     21  C   UNL     1      -8.870 -10.289  18.376  0.00  0.00    +0.000 A 
ATOM     22  C   UNL     1      -8.797 -10.380  19.768  0.00  0.00    +0.000 A 
ATOM     23  C   UNL     1      -8.519  -9.249  20.532  0.00  0.00    +0.000 A 
ATOM     24  C   UNL     1      -8.282  -8.023  19.911  0.00  0.00    +0.000 A 
ATOM     25  C   UNL     1      -8.276  -7.919  18.514  0.00  0.00    +0.000 A 
ATOM     26  C   UNL     1      -8.615  -9.056  17.759  0.00  0.00    +0.000 A 
ATOM     27  H   UNL     1      -8.963 -11.330  20.269  0.00  0.00    +0.000 HD
ATOM     28  H   UNL     1      -8.480  -9.321  21.616  0.00  0.00    +0.000 HD
ATOM     29  H   UNL     1      -8.093  -7.153  20.537  0.00  0.00    +0.000 HD
ATOM     30  H   UNL     1      -8.674  -8.984  16.673  0.00  0.00    +0.000 HD
BRANCH  21  31
ATOM     31  C   UNL     1      -9.207 -11.489  17.541  0.00  0.00    +0.000 C 
ATOM     32  H   UNL     1      -8.893 -12.416  18.029  0.00  0.00    +0.000 HD
ATOM     33  H   UNL     1      -8.699 -11.427  16.574  0.00  0.00    +0.000 HD
ATOM     34  H   UNL     1     -10.288 -11.544  17.378  0.00  0.00    +0.000 HD
ENDBRANCH  21  31
ENDBRANCH  18  25
ENDBRANCH   1  18
BRANCH   4  35
ATOM     35  O   UNL     1      -6.504  -3.669  22.187  0.00  0.00    +0.000 OA
ATOM     36  H   UNL     1      -5.636  -3.549  21.771  0.00  0.00    +0.000 HD
ENDBRANCH   4  35
BRANCH   5  37
ATOM     37  O   UNL     1      -8.278  -1.645  22.095  0.00  0.00    +0.000 OA
ATOM     38  H   UNL     1      -8.771  -0.901  21.694  0.00  0.00    +0.000 HD
ENDBRANCH   5  37
BRANCH  11  39
ATOM     39  O   UNL     1     -12.181  -5.272  14.682  0.00  0.00    +0.000 OA
ATOM     40  H   UNL     1     -11.584  -5.097  13.933  0.00  0.00    +0.000 HD
ENDBRANCH  11  39
BRANCH  12  41
ATOM     41  O   UNL     1     -10.209  -6.712  15.779  0.00  0.00    +0.000 OA
ATOM     42  H   UNL     1      -9.427  -6.492  15.234  0.00  0.00    +0.000 HD
ENDBRANCH  12  41
TORSDOF 7
ENDMDL
MODEL 5
REMARK VINA RESULT:    -8.028      2.442      5.175
REMARK INTER + INTRA:         -10.875
REMARK INTER:                 -10.075
REMARK INTRA:                  -0.800
REMARK UNBOUND:                -0.735
REMARK  Name = 
REMARK  7 active torsions:
REMARK  status: ('A' for Active; 'I' for Inactive)
REMARK    1  A    between atoms: C_1  and  C_2
REMARK    2  A    between atoms: C_6  and  C_7
REMARK    3  A    between atoms: C_7  and  N_8
REMARK    4  A    between atoms: C_11  and  O_12
REMARK    5  A    between atoms: C_13  and  O_14
REMARK    6  A    between atoms: C_20  and  O_21
REMARK    7  A    between atoms: C_22  and  O_23
REMARK                            x       y       z     vdW  Elec       q    Type
REMARK                         _______ _______ _______ _____ _____    ______ ____
ROOT
ATOM      1  N   UNL     1     -10.196  -6.330  17.518  0.00  0.00    +0.000 N 
ATOM      2  C   UNL     1      -9.496  -5.599  18.468  0.00  0.00    +0.000 A 
ATOM      3  C   UNL     1      -9.542  -4.229  18.809  0.00  0.00    +0.000 A 
ATOM      4  C   UNL     1      -8.722  -3.801  19.850  0.00  0.00    +0.000 A 
ATOM      5  C   UNL     1      -7.889  -4.680  20.525  0.00  0.00    +0.000 A 
ATOM      6  C   UNL     1      -7.838  -6.031  20.187  0.00  0.00    +0.000 A 
ATOM      7  C   UNL     1      -8.660  -6.497  19.139  0.00  0.00    +0.000 A 
ATOM      8  C   UNL     1      -8.872  -7.794  18.568  0.00  0.00    +0.000 A 
ATOM      9  C   UNL     1      -8.353  -9.081  18.854  0.00  0.00    +0.000 A 
ATOM     10  C   UNL     1      -8.785 -10.193  18.120  0.00  0.00    +0.000 A 
ATOM     11  C   UNL     1      -9.699 -10.023  17.093  0.00  0.00    +0.000 A 
ATOM     12  C   UNL     1     -10.210  -8.762  16.779  0.00  0.00    +0.000 A 
ATOM     13  C   UNL     1      -9.808  -7.657  17.542  0.00  0.00    +0.000 A 
ATOM     14  H   UNL     1     -10.195  -3.546  18.277  0.00  0.00    +0.000 HD
ATOM     15  H   UNL     1      -7.183  -6.702  20.728  0.00  0.00    +0.000 HD
ATOM     16  H   UNL     1      -7.638  -9.208  19.662  0.00  0.00    +0.000 HD
ATOM     17  H   UNL     1      -8.399 -11.175  18.376  0.00  0.00    +0.000 HD
ENDROOT
BRANCH   1  18
ATOM     18  C   UNL     1     -11.297  -5.809  16.710  0.00  0.00    +0.000 C 
ATOM     19  H   UNL     1     -11.885  -6.642  16.316  0.00  0.00    +0.000 HD
ATOM     20  H   UNL     1     -11.960  -5.282  17.406  0.00  0.00    +0.000 HD
BRANCH  18  25
ATOM     21  C   UNL     1     -11.229  -2.767  14.411  0.00  0.00    +0.000 A 
ATOM     22  C   UNL     1     -10.117  -3.039  13.610  0.00  0.00    +0.000 A 
ATOM     23  C   UNL     1      -9.418  -4.235  13.762  0.00  0.00    +0.000 A 
ATOM     24  C   UNL     1      -9.804  -5.155  14.736  0.00  0.00    +0.000 A 
ATOM     25  C   UNL     1     -10.869  -4.874  15.602  0.00  0.00    +0.000 A 
ATOM     26  C   UNL     1     -11.601  -3.690  15.398  0.00  0.00    +0.000 A 
ATOM     27  H   UNL     1      -9.791  -2.327  12.856  0.00  0.00    +0.000 HD
ATOM     28  H   UNL     1      -8.564  -4.450  13.126  0.00  0.00    +0.000 HD
ATOM     29  H   UNL     1      -9.253  -6.090  14.813  0.00  0.00    +0.000 HD
ATOM     30  H   UNL     1     -12.470  -3.480  16.021  0.00  0.00    +0.000 HD
BRANCH  21  31
ATOM     31  C   UNL     1     -12.017  -1.503  14.232  0.00  0.00    +0.000 C 
ATOM     32  H   UNL     1     -11.627  -0.903  13.405  0.00  0.00    +0.000 HD
ATOM     33  H   UNL     1     -11.965  -0.899  15.143  0.00  0.00    +0.000 HD
ATOM     34  H   UNL     1     -13.064  -1.737  14.014  0.00  0.00    +0.000 HD
ENDBRANCH  21  31
ENDBRANCH  18  25
ENDBRANCH   1  18
BRANCH   4  35
ATOM     35  O   UNL     1      -8.708  -2.489  20.254  0.00  0.00    +0.000 OA
ATOM     36  H   UNL     1      -9.605  -2.134  20.154  0.00  0.00    +0.000 HD
ENDBRANCH   4  35
BRANCH   5  37
ATOM     37  O   UNL     1      -7.094  -4.220  21.539  0.00  0.00    +0.000 OA
ATOM     38  H   UNL     1      -7.728  -3.883  22.204  0.00  0.00    +0.000 HD
ENDBRANCH   5  37
BRANCH  11  39
ATOM     39  O   UNL     1     -10.162 -11.080  16.355  0.00  0.00    +0.000 OA
ATOM     40  H   UNL     1      -9.518 -11.805  16.435  0.00  0.00    +0.000 HD
ENDBRANCH  11  39
BRANCH  12  41
ATOM     41  O   UNL     1     -11.108  -8.650  15.747  0.00  0.00    +0.000 OA
ATOM     42  H   UNL     1     -10.716  -7.974  15.158  0.00  0.00    +0.000 HD
ENDBRANCH  12  41
TORSDOF 7
ENDMDL
MODEL 6
REMARK VINA RESULT:    -7.936      3.529      5.602
REMARK INTER + INTRA:         -10.759
REMARK INTER:                 -10.116
REMARK INTRA:                  -0.643
REMARK UNBOUND:                -0.735
REMARK  Name = 
REMARK  7 active torsions:
REMARK  status: ('A' for Active; 'I' for Inactive)
REMARK    1  A    between atoms: C_1  and  C_2
REMARK    2  A    between atoms: C_6  and  C_7
REMARK    3  A    between atoms: C_7  and  N_8
REMARK    4  A    between atoms: C_11  and  O_12
REMARK    5  A    between atoms: C_13  and  O_14
REMARK    6  A    between atoms: C_20  and  O_21
REMARK    7  A    between atoms: C_22  and  O_23
REMARK                            x       y       z     vdW  Elec       q    Type
REMARK                         _______ _______ _______ _____ _____    ______ ____
ROOT
ATOM      1  N   UNL     1      -8.093  -3.215  20.453  0.00  0.00    +0.000 N 
ATOM      2  C   UNL     1      -9.145  -3.736  19.713  0.00  0.00    +0.000 A 
ATOM      3  C   UNL     1     -10.471  -3.284  19.533  0.00  0.00    +0.000 A 
ATOM      4  C   UNL     1     -11.290  -4.027  18.686  0.00  0.00    +0.000 A 
ATOM      5  C   UNL     1     -10.829  -5.167  18.047  0.00  0.00    +0.000 A 
ATOM      6  C   UNL     1      -9.522  -5.617  18.227  0.00  0.00    +0.000 A 
ATOM      7  C   UNL     1      -8.665  -4.885  19.076  0.00  0.00    +0.000 A 
ATOM      8  C   UNL     1      -7.292  -5.046  19.451  0.00  0.00    +0.000 A 
ATOM      9  C   UNL     1      -6.289  -5.982  19.097  0.00  0.00    +0.000 A 
ATOM     10  C   UNL     1      -4.995  -5.859  19.621  0.00  0.00    +0.000 A 
ATOM     11  C   UNL     1      -4.711  -4.836  20.510  0.00  0.00    +0.000 A 
ATOM     12  C   UNL     1      -5.688  -3.913  20.889  0.00  0.00    +0.000 A 
ATOM     13  C   UNL     1      -6.970  -4.012  20.332  0.00  0.00    +0.000 A 
ATOM     14  H   UNL     1     -10.827  -2.392  20.036  0.00  0.00    +0.000 HD
ATOM     15  H   UNL     1      -9.180  -6.509  17.716  0.00  0.00    +0.000 HD
ATOM     16  H   UNL     1      -6.517  -6.781  18.398  0.00  0.00    +0.000 HD
ATOM     17  H   UNL     1      -4.233  -6.567  19.313  0.00  0.00    +0.000 HD
ENDROOT
BRANCH   1  18
ATOM     18  C   UNL     1      -8.115  -1.924  21.140  0.00  0.00    +0.000 C 
ATOM     19  H   UNL     1      -7.168  -1.405  20.970  0.00  0.00    +0.000 HD
ATOM     20  H   UNL     1      -8.878  -1.324  20.631  0.00  0.00    +0.000 HD
BRANCH  18  25
ATOM     21  C   UNL     1      -8.809  -0.833  24.728  0.00  0.00    +0.000 A 
ATOM     22  C   UNL     1      -9.070  -2.055  25.352  0.00  0.00    +0.000 A 
ATOM     23  C   UNL     1      -8.963  -3.247  24.638  0.00  0.00    +0.000 A 
ATOM     24  C   UNL     1      -8.624  -3.225  23.285  0.00  0.00    +0.000 A 
ATOM     25  C   UNL     1      -8.431  -2.010  22.616  0.00  0.00    +0.000 A 
ATOM     26  C   UNL     1      -8.485  -0.820  23.364  0.00  0.00    +0.000 A 
ATOM     27  H   UNL     1      -9.351  -2.091  26.402  0.00  0.00    +0.000 HD
ATOM     28  H   UNL     1      -9.149  -4.196  25.132  0.00  0.00    +0.000 HD
ATOM     29  H   UNL     1      -8.523  -4.174  22.762  0.00  0.00    +0.000 HD
ATOM     30  H   UNL     1      -8.280   0.132  22.876  0.00  0.00    +0.000 HD
BRANCH  21  31
ATOM     31  C   UNL     1      -8.882   0.454  25.493  0.00  0.00    +0.000 C 
ATOM     32  H   UNL     1      -9.549   0.369  26.356  0.00  0.00    +0.000 HD
ATOM     33  H   UNL     1      -9.264   1.252  24.848  0.00  0.00    +0.000 HD
ATOM     34  H   UNL     1      -7.889   0.732  25.861  0.00  0.00    +0.000 HD
ENDBRANCH  21  31
ENDBRANCH  18  25
ENDBRANCH   1  18
BRANCH   4  35
ATOM     35  O   UNL     1     -12.591  -3.657  18.446  0.00  0.00    +0.000 OA
ATOM     36  H   UNL     1     -12.664  -2.702  18.596  0.00  0.00    +0.000 HD
ENDBRANCH   4  35
BRANCH   5  37
ATOM     37  O   UNL     1     -11.666  -5.873  17.226  0.00  0.00    +0.000 OA
ATOM     38  H   UNL     1     -12.443  -5.288  17.119  0.00  0.00    +0.000 HD
ENDBRANCH   5  37
BRANCH  11  39
ATOM     39  O   UNL     1      -3.459  -4.665  21.040  0.00  0.00    +0.000 OA
ATOM     40  H   UNL     1      -3.474  -4.995  21.955  0.00  0.00    +0.000 HD
ENDBRANCH  11  39
BRANCH  12  41
ATOM     41  O   UNL     1      -5.353  -2.923  21.780  0.00  0.00    +0.000 OA
ATOM     42  H   UNL     1      -6.149  -2.820  22.337  0.00  0.00    +0.000 HD
ENDBRANCH  12  41
TORSDOF 7
ENDMDL
MODEL 7
REMARK VINA RESULT:    -7.669      3.103      5.909
REMARK INTER + INTRA:         -10.421
REMARK INTER:                  -9.756
REMARK INTRA:                  -0.666
REMARK UNBOUND:                -0.735
REMARK  Name = 
REMARK  7 active torsions:
REMARK  status: ('A' for Active; 'I' for Inactive)
REMARK    1  A    between atoms: C_1  and  C_2
REMARK    2  A    between atoms: C_6  and  C_7
REMARK    3  A    between atoms: C_7  and  N_8
REMARK    4  A    between atoms: C_11  and  O_12
REMARK    5  A    between atoms: C_13  and  O_14
REMARK    6  A    between atoms: C_20  and  O_21
REMARK    7  A    between atoms: C_22  and  O_23
REMARK                            x       y       z     vdW  Elec       q    Type
REMARK                         _______ _______ _______ _____ _____    ______ ____
ROOT
ATOM      1  N   UNL     1     -10.254  -4.304  18.552  0.00  0.00    +0.000 N 
ATOM      2  C   UNL     1      -9.195  -4.021  19.405  0.00  0.00    +0.000 A 
ATOM      3  C   UNL     1      -8.925  -2.894  20.211  0.00  0.00    +0.000 A 
ATOM      4  C   UNL     1      -7.772  -2.928  20.992  0.00  0.00    +0.000 A 
ATOM      5  C   UNL     1      -6.918  -4.020  20.978  0.00  0.00    +0.000 A 
ATOM      6  C   UNL     1      -7.181  -5.131  20.179  0.00  0.00    +0.000 A 
ATOM      7  C   UNL     1      -8.344  -5.130  19.379  0.00  0.00    +0.000 A 
ATOM      8  C   UNL     1      -8.915  -6.094  18.486  0.00  0.00    +0.000 A 
ATOM      9  C   UNL     1      -8.538  -7.402  18.093  0.00  0.00    +0.000 A 
ATOM     10  C   UNL     1      -9.338  -8.127  17.200  0.00  0.00    +0.000 A 
ATOM     11  C   UNL     1     -10.482  -7.545  16.679  0.00  0.00    +0.000 A 
ATOM     12  C   UNL     1     -10.865  -6.251  17.036  0.00  0.00    +0.000 A 
ATOM     13  C   UNL     1     -10.086  -5.542  17.962  0.00  0.00    +0.000 A 
ATOM     14  H   UNL     1      -9.596  -2.042  20.218  0.00  0.00    +0.000 HD
ATOM     15  H   UNL     1      -6.504  -5.976  20.184  0.00  0.00    +0.000 HD
ATOM     16  H   UNL     1      -7.640  -7.852  18.506  0.00  0.00    +0.000 HD
ATOM     17  H   UNL     1      -9.048  -9.138  16.936  0.00  0.00    +0.000 HD
ENDROOT
BRANCH   1  18
ATOM     18  C   UNL     1     -11.455  -3.482  18.413  0.00  0.00    +0.000 C 
ATOM     19  H   UNL     1     -12.337  -4.127  18.397  0.00  0.00    +0.000 HD
ATOM     20  H   UNL     1     -11.531  -2.899  19.338  0.00  0.00    +0.000 HD
BRANCH  18  25
ATOM     21  C   UNL     1     -10.131  -1.146  15.704  0.00  0.00    +0.000 A 
ATOM     22  C   UNL     1     -11.292  -0.864  14.980  0.00  0.00    +0.000 A 
ATOM     23  C   UNL     1     -12.521  -1.372  15.395  0.00  0.00    +0.000 A 
ATOM     24  C   UNL     1     -12.597  -2.192  16.520  0.00  0.00    +0.000 A 
ATOM     25  C   UNL     1     -11.439  -2.553  17.221  0.00  0.00    +0.000 A 
ATOM     26  C   UNL     1     -10.215  -1.985  16.824  0.00  0.00    +0.000 A 
ATOM     27  H   UNL     1     -11.250  -0.238  14.091  0.00  0.00    +0.000 HD
ATOM     28  H   UNL     1     -13.423  -1.134  14.838  0.00  0.00    +0.000 HD
ATOM     29  H   UNL     1     -13.575  -2.552  16.833  0.00  0.00    +0.000 HD
ATOM     30  H   UNL     1      -9.311  -2.205  17.391  0.00  0.00    +0.000 HD
BRANCH  21  31
ATOM     31  C   UNL     1      -8.807  -0.575  15.293  0.00  0.00    +0.000 C 
ATOM     32  H   UNL     1      -8.003  -0.914  15.954  0.00  0.00    +0.000 HD
ATOM     33  H   UNL     1      -8.841   0.518  15.337  0.00  0.00    +0.000 HD
ATOM     34  H   UNL     1      -8.560  -0.888  14.274  0.00  0.00    +0.000 HD
ENDBRANCH  21  31
ENDBRANCH  18  25
ENDBRANCH   1  18
BRANCH   4  35
ATOM     35  O   UNL     1      -7.435  -1.880  21.813  0.00  0.00    +0.000 OA
ATOM     36  H   UNL     1      -6.477  -1.741  21.744  0.00  0.00    +0.000 HD
ENDBRANCH   4  35
BRANCH   5  37
ATOM     37  O   UNL     1      -5.793  -4.014  21.756  0.00  0.00    +0.000 OA
ATOM     38  H   UNL     1      -5.161  -4.575  21.263  0.00  0.00    +0.000 HD
ENDBRANCH   5  37
BRANCH  11  39
ATOM     39  O   UNL     1     -11.304  -8.217  15.813  0.00  0.00    +0.000 OA
ATOM     40  H   UNL     1     -10.974  -9.129  15.734  0.00  0.00    +0.000 HD
ENDBRANCH  11  39
BRANCH  12  41
ATOM     41  O   UNL     1     -12.005  -5.721  16.484  0.00  0.00    +0.000 OA
ATOM     42  H   UNL     1     -11.972  -6.000  15.548  0.00  0.00    +0.000 HD
ENDBRANCH  12  41
TORSDOF 7
ENDMDL
MODEL 8
REMARK VINA RESULT:    -7.634      3.322      5.625
REMARK INTER + INTRA:         -10.378
REMARK INTER:                  -9.601
REMARK INTRA:                  -0.777
REMARK UNBOUND:                -0.735
REMARK  Name = 
REMARK  7 active torsions:
REMARK  status: ('A' for Active; 'I' for Inactive)
REMARK    1  A    between atoms: C_1  and  C_2
REMARK    2  A    between atoms: C_6  and  C_7
REMARK    3  A    between atoms: C_7  and  N_8
REMARK    4  A    between atoms: C_11  and  O_12
REMARK    5  A    between atoms: C_13  and  O_14
REMARK    6  A    between atoms: C_20  and  O_21
REMARK    7  A    between atoms: C_22  and  O_23
REMARK                            x       y       z     vdW  Elec       q    Type
REMARK                         _______ _______ _______ _____ _____    ______ ____
ROOT
ATOM      1  N   UNL     1      -8.713  -4.603  19.620  0.00  0.00    +0.000 N 
ATOM      2  C   UNL     1      -7.355  -4.742  19.873  0.00  0.00    +0.000 A 
ATOM      3  C   UNL     1      -6.440  -3.896  20.535  0.00  0.00    +0.000 A 
ATOM      4  C   UNL     1      -5.127  -4.343  20.655  0.00  0.00    +0.000 A 
ATOM      5  C   UNL     1      -4.728  -5.568  20.142  0.00  0.00    +0.000 A 
ATOM      6  C   UNL     1      -5.629  -6.403  19.484  0.00  0.00    +0.000 A 
ATOM      7  C   UNL     1      -6.969  -5.980  19.349  0.00  0.00    +0.000 A 
ATOM      8  C   UNL     1      -8.130  -6.588  18.771  0.00  0.00    +0.000 A 
ATOM      9  C   UNL     1      -8.367  -7.834  18.142  0.00  0.00    +0.000 A 
ATOM     10  C   UNL     1      -9.653  -8.164  17.692  0.00  0.00    +0.000 A 
ATOM     11  C   UNL     1     -10.684  -7.250  17.839  0.00  0.00    +0.000 A 
ATOM     12  C   UNL     1     -10.472  -6.008  18.438  0.00  0.00    +0.000 A 
ATOM     13  C   UNL     1      -9.195  -5.696  18.925  0.00  0.00    +0.000 A 
ATOM     14  H   UNL     1      -6.757  -2.939  20.934  0.00  0.00    +0.000 HD
ATOM     15  H   UNL     1      -5.300  -7.357  19.093  0.00  0.00    +0.000 HD
ATOM     16  H   UNL     1      -7.555  -8.546  18.030  0.00  0.00    +0.000 HD
ATOM     17  H   UNL     1      -9.819  -9.136  17.241  0.00  0.00    +0.000 HD
ENDROOT
BRANCH   1  18
ATOM     18  C   UNL     1      -9.553  -3.527  20.145  0.00  0.00    +0.000 C 
ATOM     19  H   UNL     1     -10.578  -3.890  20.262  0.00  0.00    +0.000 HD
ATOM     20  H   UNL     1      -9.191  -3.330  21.161  0.00  0.00    +0.000 HD
BRANCH  18  25
ATOM     21  C   UNL     1      -9.744  -1.184  17.143  0.00  0.00    +0.000 A 
ATOM     22  C   UNL     1      -9.531   0.061  17.738  0.00  0.00    +0.000 A 
ATOM     23  C   UNL     1      -9.261   0.151  19.102  0.00  0.00    +0.000 A 
ATOM     24  C   UNL     1      -9.232  -1.001  19.889  0.00  0.00    +0.000 A 
ATOM     25  C   UNL     1      -9.517  -2.254  19.331  0.00  0.00    +0.000 A 
ATOM     26  C   UNL     1      -9.730  -2.335  17.943  0.00  0.00    +0.000 A 
ATOM     27  H   UNL     1      -9.565   0.971  17.144  0.00  0.00    +0.000 HD
ATOM     28  H   UNL     1      -9.079   1.120  19.558  0.00  0.00    +0.000 HD
ATOM     29  H   UNL     1      -8.993  -0.900  20.946  0.00  0.00    +0.000 HD
ATOM     30  H   UNL     1      -9.894  -3.306  17.479  0.00  0.00    +0.000 HD
BRANCH  21  31
ATOM     31  C   UNL     1      -9.997  -1.301  15.669  0.00  0.00    +0.000 C 
ATOM     32  H   UNL     1      -9.464  -2.154  15.238  0.00  0.00    +0.000 HD
ATOM     33  H   UNL     1      -9.655  -0.396  15.158  0.00  0.00    +0.000 HD
ATOM     34  H   UNL     1     -11.066  -1.441  15.478  0.00  0.00    +0.000 HD
ENDBRANCH  21  31
ENDBRANCH  18  25
ENDBRANCH   1  18
BRANCH   4  35
ATOM     35  O   UNL     1      -4.171  -3.590  21.290  0.00  0.00    +0.000 OA
ATOM     36  H   UNL     1      -4.365  -3.598  22.241  0.00  0.00    +0.000 HD
ENDBRANCH   4  35
BRANCH   5  37
ATOM     37  O   UNL     1      -3.427  -5.971  20.275  0.00  0.00    +0.000 OA
ATOM     38  H   UNL     1      -3.203  -6.345  19.399  0.00  0.00    +0.000 HD
ENDBRANCH   5  37
BRANCH  11  39
ATOM     39  O   UNL     1     -11.961  -7.531  17.428  0.00  0.00    +0.000 OA
ATOM     40  H   UNL     1     -12.560  -7.353  18.174  0.00  0.00    +0.000 HD
ENDBRANCH  11  39
BRANCH  12  41
ATOM     41  O   UNL     1     -11.529  -5.139  18.552  0.00  0.00    +0.000 OA
ATOM     42  H   UNL     1     -11.162  -4.275  18.276  0.00  0.00    +0.000 HD
ENDBRANCH  12  41
TORSDOF 7
ENDMDL
MODEL 9
REMARK VINA RESULT:    -7.620      2.552      6.063
REMARK INTER + INTRA:         -10.360
REMARK INTER:                  -9.630
REMARK INTRA:                  -0.730
REMARK UNBOUND:                -0.735
REMARK  Name = 
REMARK  7 active torsions:
REMARK  status: ('A' for Active; 'I' for Inactive)
REMARK    1  A    between atoms: C_1  and  C_2
REMARK    2  A    between atoms: C_6  and  C_7
REMARK    3  A    between atoms: C_7  and  N_8
REMARK    4  A    between atoms: C_11  and  O_12
REMARK    5  A    between atoms: C_13  and  O_14
REMARK    6  A    between atoms: C_20  and  O_21
REMARK    7  A    between atoms: C_22  and  O_23
REMARK                            x       y       z     vdW  Elec       q    Type
REMARK                         _______ _______ _______ _____ _____    ______ ____
ROOT
ATOM      1  N   UNL     1     -10.116  -5.095  18.565  0.00  0.00    +0.000 N 
ATOM      2  C   UNL     1     -10.116  -6.324  17.920  0.00  0.00    +0.000 A 
ATOM      3  C   UNL     1     -11.067  -6.930  17.070  0.00  0.00    +0.000 A 
ATOM      4  C   UNL     1     -10.751  -8.182  16.547  0.00  0.00    +0.000 A 
ATOM      5  C   UNL     1      -9.555  -8.814  16.850  0.00  0.00    +0.000 A 
ATOM      6  C   UNL     1      -8.617  -8.219  17.692  0.00  0.00    +0.000 A 
ATOM      7  C   UNL     1      -8.905  -6.948  18.235  0.00  0.00    +0.000 A 
ATOM      8  C   UNL     1      -8.171  -6.064  19.090  0.00  0.00    +0.000 A 
ATOM      9  C   UNL     1      -6.888  -6.128  19.688  0.00  0.00    +0.000 A 
ATOM     10  C   UNL     1      -6.423  -5.064  20.472  0.00  0.00    +0.000 A 
ATOM     11  C   UNL     1      -7.237  -3.964  20.685  0.00  0.00    +0.000 A 
ATOM     12  C   UNL     1      -8.513  -3.886  20.124  0.00  0.00    +0.000 A 
ATOM     13  C   UNL     1      -8.960  -4.932  19.305  0.00  0.00    +0.000 A 
ATOM     14  H   UNL     1     -12.001  -6.432  16.837  0.00  0.00    +0.000 HD
ATOM     15  H   UNL     1      -7.687  -8.727  17.914  0.00  0.00    +0.000 HD
ATOM     16  H   UNL     1      -6.255  -6.993  19.516  0.00  0.00    +0.000 HD
ATOM     17  H   UNL     1      -5.425  -5.119  20.895  0.00  0.00    +0.000 HD
ENDROOT
BRANCH   1  18
ATOM     18  C   UNL     1     -11.122  -4.051  18.370  0.00  0.00    +0.000 C 
ATOM     19  H   UNL     1     -12.120  -4.499  18.395  0.00  0.00    +0.000 HD
ATOM     20  H   UNL     1     -11.065  -3.408  19.255  0.00  0.00    +0.000 HD
BRANCH  18  25
ATOM     21  C   UNL     1     -11.327  -2.968  14.720  0.00  0.00    +0.000 A 
ATOM     22  C   UNL     1     -10.675  -1.733  14.752  0.00  0.00    +0.000 A 
ATOM     23  C   UNL     1     -10.108  -1.268  15.937  0.00  0.00    +0.000 A 
ATOM     24  C   UNL     1     -10.215  -2.019  17.107  0.00  0.00    +0.000 A 
ATOM     25  C   UNL     1     -10.928  -3.224  17.121  0.00  0.00    +0.000 A 
ATOM     26  C   UNL     1     -11.444  -3.708  15.905  0.00  0.00    +0.000 A 
ATOM     27  H   UNL     1     -10.595  -1.126  13.853  0.00  0.00    +0.000 HD
ATOM     28  H   UNL     1      -9.586  -0.315  15.953  0.00  0.00    +0.000 HD
ATOM     29  H   UNL     1      -9.739  -1.640  18.010  0.00  0.00    +0.000 HD
ATOM     30  H   UNL     1     -11.951  -4.672  15.880  0.00  0.00    +0.000 HD
BRANCH  21  31
ATOM     31  C   UNL     1     -11.908  -3.500  13.444  0.00  0.00    +0.000 C 
ATOM     32  H   UNL     1     -11.779  -2.791  12.620  0.00  0.00    +0.000 HD
ATOM     33  H   UNL     1     -12.979  -3.683  13.568  0.00  0.00    +0.000 HD
ATOM     34  H   UNL     1     -11.412  -4.435  13.164  0.00  0.00    +0.000 HD
ENDBRANCH  21  31
ENDBRANCH  18  25
ENDBRANCH   1  18
BRANCH   4  35
ATOM     35  O   UNL     1     -11.613  -8.842  15.706  0.00  0.00    +0.000 OA
ATOM     36  H   UNL     1     -11.872  -9.673  16.134  0.00  0.00    +0.000 HD
ENDBRANCH   4  35
BRANCH   5  37
ATOM     37  O   UNL     1      -9.283 -10.045  16.320  0.00  0.00    +0.000 OA
ATOM     38  H   UNL     1     -10.052 -10.231  15.743  0.00  0.00    +0.000 HD
ENDBRANCH   5  37
BRANCH  11  39
ATOM     39  O   UNL     1      -6.823  -2.893  21.433  0.00  0.00    +0.000 OA
ATOM     40  H   UNL     1      -6.730  -2.130  20.836  0.00  0.00    +0.000 HD
ENDBRANCH  11  39
BRANCH  12  41
ATOM     41  O   UNL     1      -9.279  -2.775  20.373  0.00  0.00    +0.000 OA
ATOM     42  H   UNL     1     -10.090  -3.129  20.790  0.00  0.00    +0.000 HD
ENDBRANCH  12  41
TORSDOF 7
ENDMDL
