
 OpenBabel01112422513D

 48 52  0  0  0  0  0  0  0  0999 V2000
   -2.2571   -0.3018   -0.2378 Cl  0  0  0  0  0  0  0  0  0  0  0  0
   -0.5434   -0.1705   -0.1639 C   0  0  0  0  0  0  0  0  0  0  0  0
    0.0961   -0.0838    1.0636 C   0  0  0  0  0  0  0  0  0  0  0  0
    1.4971   -0.0037    1.1264 C   0  0  0  0  0  0  0  0  0  0  0  0
    2.2940    0.0123   -0.0371 C   0  0  0  0  0  0  0  0  0  0  0  0
    3.8523    0.0680    0.0289 C   0  0  0  0  0  0  0  0  0  0  0  0
    4.4370   -1.3830    0.0486 C   0  0  0  0  0  0  0  0  0  0  0  0
    4.7727   -2.0642   -1.1343 C   0  0  0  0  0  0  0  0  0  0  0  0
    5.4257   -3.3063   -1.1107 C   0  0  0  0  0  0  0  0  0  0  0  0
    5.7311   -3.9474    0.0962 C   0  0  0  0  0  0  0  0  0  0  0  0
    6.3579   -5.2743    0.1213 C   0  0  0  0  0  0  0  0  0  0  0  0
    7.1909   -5.6447   -0.8990 N   0  0  0  0  0  0  0  0  0  0  0  0
    7.7303   -6.8827   -0.8623 C   0  0  0  0  0  0  0  0  0  0  0  0
    7.5465   -7.8474    0.0644 N   0  0  0  0  0  0  0  0  0  0  0  0
    6.7148   -7.4320    1.0228 C   0  0  0  0  0  0  0  0  0  0  0  0
    6.2859   -8.1480    2.1075 N   0  0  0  0  0  0  0  0  0  0  0  0
    5.4362   -7.3481    2.8228 C   0  0  0  0  0  0  0  0  0  0  0  0
    5.2994   -6.1691    2.2681 N   0  0  0  0  0  0  0  0  0  0  0  0
    6.0895   -6.1987    1.1389 C   0  0  0  0  0  0  0  0  0  0  0  0
    5.3734   -3.2801    1.2760 C   0  0  0  0  0  0  0  0  0  0  0  0
    4.7251   -2.0401    1.2561 C   0  0  0  0  0  0  0  0  0  0  0  0
    4.3953    0.8226    1.2950 C   0  0  0  0  0  0  0  0  0  0  0  0
    4.2323    2.3367    1.2632 C   0  0  0  0  0  0  0  0  0  0  0  0
    4.8241    2.9388    0.0752 N   0  0  0  0  0  0  0  0  0  0  0  0
    4.2805    2.3494   -1.1423 C   0  0  0  0  0  0  0  0  0  0  0  0
    4.4767    0.8378   -1.1869 C   0  0  0  0  0  0  0  0  0  0  0  0
    1.6050   -0.0760   -1.2676 C   0  0  0  0  0  0  0  0  0  0  0  0
    0.2062   -0.1632   -1.3307 C   0  0  0  0  0  0  0  0  0  0  0  0
   -0.4830   -0.0870    1.9844 H   0  0  0  0  0  0  0  0  0  0  0  0
    1.9363    0.0355    2.1178 H   0  0  0  0  0  0  0  0  0  0  0  0
    4.5565   -1.6386   -2.1104 H   0  0  0  0  0  0  0  0  0  0  0  0
    5.6899   -3.7796   -2.0552 H   0  0  0  0  0  0  0  0  0  0  0  0
    8.3940   -7.1359   -1.6853 H   0  0  0  0  0  0  0  0  0  0  0  0
    6.5476   -9.0975    2.3175 H   0  0  0  0  0  0  0  0  0  0  0  0
    4.9474   -7.6793    3.7290 H   0  0  0  0  0  0  0  0  0  0  0  0
    5.5987   -3.7168    2.2474 H   0  0  0  0  0  0  0  0  0  0  0  0
    4.4835   -1.6041    2.2205 H   0  0  0  0  0  0  0  0  0  0  0  0
    5.4695    0.6127    1.4024 H   0  0  0  0  0  0  0  0  0  0  0  0
    3.9422    0.4591    2.2242 H   0  0  0  0  0  0  0  0  0  0  0  0
    4.7456    2.7511    2.1400 H   0  0  0  0  0  0  0  0  0  0  0  0
    3.1799    2.6232    1.3599 H   0  0  0  0  0  0  0  0  0  0  0  0
    5.8345    2.7976    0.0938 H   0  0  0  0  0  0  0  0  0  0  0  0
    4.8125    2.7896   -1.9950 H   0  0  0  0  0  0  0  0  0  0  0  0
    3.2263    2.6197   -1.2658 H   0  0  0  0  0  0  0  0  0  0  0  0
    5.5580    0.6430   -1.2204 H   0  0  0  0  0  0  0  0  0  0  0  0
    4.0975    0.4808   -2.1512 H   0  0  0  0  0  0  0  0  0  0  0  0
    2.1335   -0.0892   -2.2147 H   0  0  0  0  0  0  0  0  0  0  0  0
   -0.2864   -0.2333   -2.3009 H   0  0  0  0  0  0  0  0  0  0  0  0
  1  2  1  0  0  0  0
  2  3  1  0  0  0  0
  2 28  2  0  0  0  0
  3  4  2  0  0  0  0
  3 29  1  0  0  0  0
  4  5  1  0  0  0  0
  4 30  1  0  0  0  0
  5  6  1  0  0  0  0
  5 27  2  0  0  0  0
  6  7  1  0  0  0  0
  6 22  1  0  0  0  0
  6 26  1  0  0  0  0
  7  8  1  0  0  0  0
  7 21  2  0  0  0  0
  8  9  2  0  0  0  0
  8 31  1  0  0  0  0
  9 10  1  0  0  0  0
  9 32  1  0  0  0  0
 10 11  1  0  0  0  0
 10 20  2  0  0  0  0
 11 12  1  0  0  0  0
 11 19  2  0  0  0  0
 12 13  2  0  0  0  0
 13 14  1  0  0  0  0
 13 33  1  0  0  0  0
 14 15  2  0  0  0  0
 15 16  1  0  0  0  0
 15 19  1  0  0  0  0
 16 17  1  0  0  0  0
 16 34  1  0  0  0  0
 17 18  2  0  0  0  0
 17 35  1  0  0  0  0
 18 19  1  0  0  0  0
 20 21  1  0  0  0  0
 20 36  1  0  0  0  0
 21 37  1  0  0  0  0
 22 23  1  0  0  0  0
 22 38  1  0  0  0  0
 22 39  1  0  0  0  0
 23 24  1  0  0  0  0
 23 40  1  0  0  0  0
 23 41  1  0  0  0  0
 24 25  1  0  0  0  0
 24 42  1  0  0  0  0
 25 26  1  0  0  0  0
 25 43  1  0  0  0  0
 25 44  1  0  0  0  0
 26 45  1  0  0  0  0
 26 46  1  0  0  0  0
 27 28  1  0  0  0  0
 27 47  1  0  0  0  0
 28 48  1  0  0  0  0
M  END
$$$$
