
 OpenBabel01112422343D

 69 75  0  0  0  0  0  0  0  0999 V2000
    1.3916    0.6475   -0.5750 C   0  0  0  0  0  0  0  0  0  0  0  0
    2.5375   -0.0767   -0.1416 O   0  0  0  0  0  0  0  0  0  0  0  0
    3.0898   -0.9576   -1.0352 C   0  0  0  0  0  0  0  0  0  0  0  0
    2.6448   -1.1732   -2.3331 C   0  0  0  0  0  0  0  0  0  0  0  0
    3.2728   -2.1188   -3.1544 C   0  0  0  0  0  0  0  0  0  0  0  0
    4.3660   -2.8621   -2.6722 C   0  0  0  0  0  0  0  0  0  0  0  0
    5.1924   -3.8884   -3.1018 C   0  0  0  0  0  0  0  0  0  0  0  0
    5.1519   -4.3941   -4.4152 C   0  0  0  0  0  0  0  0  0  0  0  0
    5.8866   -5.5668   -4.6486 C   0  0  0  0  0  0  0  0  0  0  0  0
    6.9570   -5.9654   -3.8475 C   0  0  0  0  0  0  0  0  0  0  0  0
    7.1292   -5.2921   -2.5964 C   0  0  0  0  0  0  0  0  0  0  0  0
    8.3826   -5.3560   -1.9652 C   0  0  0  0  0  0  0  0  0  0  0  0
    9.5260   -5.5265   -2.7578 C   0  0  0  0  0  0  0  0  0  0  0  0
    9.2901   -5.8310   -4.1065 C   0  0  0  0  0  0  0  0  0  0  0  0
    9.5961   -5.1755   -5.3559 C   0  0  0  0  0  0  0  0  0  0  0  0
    8.9029   -5.8549   -6.3454 C   0  0  0  0  0  0  0  0  0  0  0  0
    8.4756   -7.0053   -5.6960 N   0  0  0  0  0  0  0  0  0  0  0  0
    9.2931   -8.2098   -5.8782 C   0  0  0  0  0  0  0  0  0  0  0  0
    8.1139   -6.5379   -4.4213 C   0  0  0  0  0  0  0  0  0  0  0  0
    6.1457   -4.3263   -2.2077 C   0  0  0  0  0  0  0  0  0  0  0  0
    5.9534   -3.4326   -1.1452 N   0  0  0  0  0  0  0  0  0  0  0  0
    6.7403   -3.3618    0.0771 C   0  0  0  0  0  0  0  0  0  0  0  0
    8.0258   -2.5203   -0.0283 C   0  0  0  0  0  0  0  0  0  0  0  0
    7.8280   -1.0062   -0.1392 C   0  0  0  0  0  0  0  0  0  0  0  0
    7.0431   -0.3966    0.9391 N   0  0  0  0  0  0  0  0  0  0  0  0
    7.6298   -0.5697    2.2775 C   0  0  0  0  0  0  0  0  0  0  0  0
    6.7576    0.0968    3.3671 C   0  0  0  0  0  0  0  0  0  0  0  0
    6.4890    1.5320    3.1578 N   0  0  0  0  0  0  0  0  0  0  0  0
    7.6708    2.3446    3.4283 C   0  0  0  0  0  0  0  0  0  0  0  0
    5.9869    1.7308    1.7819 C   0  0  0  0  0  0  0  0  0  0  0  0
    6.8235    1.0422    0.6739 C   0  0  0  0  0  0  0  0  0  0  0  0
    4.8295   -2.6183   -1.3698 C   0  0  0  0  0  0  0  0  0  0  0  0
    4.1920   -1.6677   -0.5471 C   0  0  0  0  0  0  0  0  0  0  0  0
    5.6354   -5.9537   -6.0141 C   0  0  0  0  0  0  0  0  0  0  0  0
    5.7826   -6.9973   -6.6351 O   0  0  0  0  0  0  0  0  0  0  0  0
    5.1318   -4.8109   -6.5401 N   0  0  0  0  0  0  0  0  0  0  0  0
    4.7430   -3.8474   -5.6657 C   0  0  0  0  0  0  0  0  0  0  0  0
    4.3093   -2.7606   -6.0299 O   0  0  0  0  0  0  0  0  0  0  0  0
    1.0456    1.2606    0.2629 H   0  0  0  0  0  0  0  0  0  0  0  0
    0.5719   -0.0245   -0.8520 H   0  0  0  0  0  0  0  0  0  0  0  0
    1.6451    1.3222   -1.3994 H   0  0  0  0  0  0  0  0  0  0  0  0
    1.8014   -0.6333   -2.7504 H   0  0  0  0  0  0  0  0  0  0  0  0
    2.8795   -2.2827   -4.1523 H   0  0  0  0  0  0  0  0  0  0  0  0
    8.5523   -4.9937   -0.9649 H   0  0  0  0  0  0  0  0  0  0  0  0
   10.4840   -5.1721   -2.4166 H   0  0  0  0  0  0  0  0  0  0  0  0
   10.1221   -4.2423   -5.4874 H   0  0  0  0  0  0  0  0  0  0  0  0
    8.7662   -5.7310   -7.4137 H   0  0  0  0  0  0  0  0  0  0  0  0
    9.1137   -8.6031   -6.8799 H   0  0  0  0  0  0  0  0  0  0  0  0
    9.0499   -8.9428   -5.1074 H   0  0  0  0  0  0  0  0  0  0  0  0
   10.3504   -7.9220   -5.7848 H   0  0  0  0  0  0  0  0  0  0  0  0
    6.9900   -4.3904    0.3513 H   0  0  0  0  0  0  0  0  0  0  0  0
    6.1012   -3.0021    0.8883 H   0  0  0  0  0  0  0  0  0  0  0  0
    8.6172   -2.8215   -0.8957 H   0  0  0  0  0  0  0  0  0  0  0  0
    8.6495   -2.7436    0.8490 H   0  0  0  0  0  0  0  0  0  0  0  0
    7.3445   -0.7976   -1.1023 H   0  0  0  0  0  0  0  0  0  0  0  0
    8.8202   -0.5305   -0.1913 H   0  0  0  0  0  0  0  0  0  0  0  0
    8.6509   -0.1642    2.3101 H   0  0  0  0  0  0  0  0  0  0  0  0
    7.6957   -1.6342    2.5277 H   0  0  0  0  0  0  0  0  0  0  0  0
    7.2134   -0.0627    4.3516 H   0  0  0  0  0  0  0  0  0  0  0  0
    5.7912   -0.4255    3.4040 H   0  0  0  0  0  0  0  0  0  0  0  0
    8.0066    2.1923    4.4606 H   0  0  0  0  0  0  0  0  0  0  0  0
    7.4291    3.4088    3.3353 H   0  0  0  0  0  0  0  0  0  0  0  0
    8.5119    2.1273    2.7630 H   0  0  0  0  0  0  0  0  0  0  0  0
    5.8998    2.8013    1.5611 H   0  0  0  0  0  0  0  0  0  0  0  0
    4.9654    1.3340    1.7339 H   0  0  0  0  0  0  0  0  0  0  0  0
    7.7788    1.5683    0.5767 H   0  0  0  0  0  0  0  0  0  0  0  0
    6.2925    1.1646   -0.2774 H   0  0  0  0  0  0  0  0  0  0  0  0
    4.5413   -1.4729    0.4627 H   0  0  0  0  0  0  0  0  0  0  0  0
    5.1863   -4.6436   -7.5422 H   0  0  0  0  0  0  0  0  0  0  0  0
  1  2  1  0  0  0  0
  1 39  1  0  0  0  0
  1 40  1  0  0  0  0
  1 41  1  0  0  0  0
  2  3  1  0  0  0  0
  3  4  1  0  0  0  0
  3 33  2  0  0  0  0
  4  5  2  0  0  0  0
  4 42  1  0  0  0  0
  5  6  1  0  0  0  0
  5 43  1  0  0  0  0
  6  7  1  0  0  0  0
  6 32  2  0  0  0  0
  7  8  1  0  0  0  0
  7 20  2  0  0  0  0
  8  9  2  0  0  0  0
  8 37  1  0  0  0  0
  9 10  1  0  0  0  0
  9 34  1  0  0  0  0
 10 11  1  0  0  0  0
 10 19  2  0  0  0  0
 11 12  2  0  0  0  0
 11 20  1  0  0  0  0
 12 13  1  0  0  0  0
 12 44  1  0  0  0  0
 13 14  2  0  0  0  0
 13 45  1  0  0  0  0
 14 15  1  0  0  0  0
 14 19  1  0  0  0  0
 15 16  2  0  0  0  0
 15 46  1  0  0  0  0
 16 17  1  0  0  0  0
 16 47  1  0  0  0  0
 17 18  1  0  0  0  0
 17 19  1  0  0  0  0
 18 48  1  0  0  0  0
 18 49  1  0  0  0  0
 18 50  1  0  0  0  0
 20 21  1  0  0  0  0
 21 22  1  0  0  0  0
 21 32  1  0  0  0  0
 22 23  1  0  0  0  0
 22 51  1  0  0  0  0
 22 52  1  0  0  0  0
 23 24  1  0  0  0  0
 23 53  1  0  0  0  0
 23 54  1  0  0  0  0
 24 25  1  0  0  0  0
 24 55  1  0  0  0  0
 24 56  1  0  0  0  0
 25 26  1  0  0  0  0
 25 31  1  0  0  0  0
 26 27  1  0  0  0  0
 26 57  1  0  0  0  0
 26 58  1  0  0  0  0
 27 28  1  0  0  0  0
 27 59  1  0  0  0  0
 27 60  1  0  0  0  0
 28 29  1  0  0  0  0
 28 30  1  0  0  0  0
 29 61  1  0  0  0  0
 29 62  1  0  0  0  0
 29 63  1  0  0  0  0
 30 31  1  0  0  0  0
 30 64  1  0  0  0  0
 30 65  1  0  0  0  0
 31 66  1  0  0  0  0
 31 67  1  0  0  0  0
 32 33  1  0  0  0  0
 33 68  1  0  0  0  0
 34 35  2  0  0  0  0
 34 36  1  0  0  0  0
 36 37  1  0  0  0  0
 36 69  1  0  0  0  0
 37 38  2  0  0  0  0
M  END
$$$$
