REMARK  Name = 
REMARK  13 active torsions:
REMARK  status: ('A' for Active; 'I' for Inactive)
REMARK    1  A    between atoms: C_2  and  C_32
REMARK    2  A    between atoms: N_3  and  C_4
REMARK    3  A    between atoms: C_8  and  O_9
REMARK    4  A    between atoms: O_9  and  C_10
REMARK    5  A    between atoms: C_10  and  C_12
REMARK    6  A    between atoms: C_14  and  O_15
REMARK    7  A    between atoms: C_16  and  C_17
REMARK    8  A    between atoms: C_17  and  C_19
REMARK    9  A    between atoms: C_20  and  O_21
REMARK   10  A    between atoms: C_25  and  C_26
REMARK   11  A    between atoms: C_26  and  O_28
REMARK   12  A    between atoms: C_29  and  O_30
REMARK   13  A    between atoms: C_35  and  O_36
REMARK                            x       y       z     vdW  Elec       q    Type
REMARK                         _______ _______ _______ _____ _____    ______ ____
ROOT
ATOM      1  C   UNL     1       0.647   2.246   1.038  0.00  0.00    +0.000 C 
ATOM      2  O   UNL     1       0.896   3.286   1.622  0.00  0.00    +0.000 OA
ENDROOT
BRANCH   1   3
ATOM      3  C   UNL     1       0.334   2.168  -0.413  0.00  0.00    +0.000 A 
ATOM      4  C   UNL     1       0.395   3.340  -1.176  0.00  0.00    +0.000 A 
ATOM      5  C   UNL     1       0.023   3.308  -2.522  0.00  0.00    +0.000 A 
ATOM      6  C   UNL     1      -0.394   2.109  -3.130  0.00  0.00    +0.000 A 
ATOM      7  C   UNL     1      -0.437   0.943  -2.352  0.00  0.00    +0.000 A 
ATOM      8  C   UNL     1      -0.109   0.978  -1.001  0.00  0.00    +0.000 A 
ATOM      9  H   UNL     1       0.706   4.272  -0.708  0.00  0.00    +0.000 HD
ATOM     10  H   UNL     1      -0.215   0.068  -0.414  0.00  0.00    +0.000 HD
BRANCH   5  11
ATOM     11  O   UNL     1       0.043   4.476  -3.235  0.00  0.00    +0.000 OA
ATOM     12  H   UNL     1       0.245   5.228  -2.654  0.00  0.00    +0.000 HD
ENDBRANCH   5  11
BRANCH   6  13
ATOM     13  C   UNL     1      -0.727   2.094  -4.574  0.00  0.00    +0.000 C 
ATOM     14  O   UNL     1       0.021   2.686  -5.360  0.00  0.00    +0.000 OA
BRANCH  13  15
ATOM     15  C   UNL     1      -1.777   1.220  -5.182  0.00  0.00    +0.000 A 
ATOM     16  C   UNL     1      -1.452   0.636  -6.428  0.00  0.00    +0.000 A 
ATOM     17  C   UNL     1      -2.313  -0.252  -7.069  0.00  0.00    +0.000 A 
ATOM     18  C   UNL     1      -3.529  -0.576  -6.484  0.00  0.00    +0.000 A 
ATOM     19  C   UNL     1      -3.881  -0.008  -5.258  0.00  0.00    +0.000 A 
ATOM     20  C   UNL     1      -3.009   0.883  -4.596  0.00  0.00    +0.000 A 
ATOM     21  H   UNL     1      -2.030  -0.679  -8.028  0.00  0.00    +0.000 HD
ATOM     22  H   UNL     1      -4.211  -1.257  -6.990  0.00  0.00    +0.000 HD
ATOM     23  H   UNL     1      -4.858  -0.249  -4.844  0.00  0.00    +0.000 HD
BRANCH  16  24
ATOM     24  O   UNL     1      -0.267   0.872  -7.081  0.00  0.00    +0.000 OA
ATOM     25  H   UNL     1       0.142   1.680  -6.687  0.00  0.00    +0.000 HD
ENDBRANCH  16  24
BRANCH  20  26
ATOM     26  C   UNL     1      -3.481   1.481  -3.324  0.00  0.00    +0.000 C 
ATOM     27  O   UNL     1      -3.298   2.647  -3.031  0.00  0.00    +0.000 OA
BRANCH  26  28
ATOM     28  O   UNL     1      -4.131   0.614  -2.518  0.00  0.00    +0.000 OA
ATOM     29  H   UNL     1      -4.073  -0.332  -2.758  0.00  0.00    +0.000 HD
ENDBRANCH  26  28
ENDBRANCH  20  26
ENDBRANCH  13  15
ENDBRANCH   6  13
BRANCH   7  30
ATOM     30  O   UNL     1      -0.793  -0.292  -2.830  0.00  0.00    +0.000 OA
ATOM     31  H   UNL     1      -0.428  -0.404  -3.725  0.00  0.00    +0.000 HD
ENDBRANCH   7  30
ENDBRANCH   1   3
BRANCH   1  32
ATOM     32  O   UNL     1       0.477   1.034   1.625  0.00  0.00    +0.000 OA
BRANCH  32  37
ATOM     33  C   UNL     1      -0.159  -0.205   3.643  0.00  0.00    +0.000 C 
ATOM     34  C   UNL     1      -1.172  -1.091   2.912  0.00  0.00    +0.000 C 
ATOM     35  N   UNL     1      -2.323  -0.211   2.651  0.00  0.00    +0.000 NA
ATOM     36  C   UNL     1      -1.767   1.151   2.499  0.00  0.00    +0.000 C 
ATOM     37  C   UNL     1      -0.265   1.102   2.856  0.00  0.00    +0.000 C 
ATOM     38  H   UNL     1      -0.525  -0.025   4.664  0.00  0.00    +0.000 HD
ATOM     39  H   UNL     1      -1.477  -1.963   3.499  0.00  0.00    +0.000 HD
ATOM     40  H   UNL     1      -0.768  -1.460   1.961  0.00  0.00    +0.000 HD
ATOM     41  H   UNL     1      -2.924  -0.224   3.478  0.00  0.00    +0.000 HD
ATOM     42  H   UNL     1      -2.299   1.831   3.171  0.00  0.00    +0.000 HD
ATOM     43  H   UNL     1      -1.946   1.483   1.472  0.00  0.00    +0.000 HD
ATOM     44  H   UNL     1       0.057   1.952   3.467  0.00  0.00    +0.000 HD
BRANCH  33  47
ATOM     45  O   UNL     1       0.413  -2.383   5.208  0.00  0.00    +0.000 OA
ATOM     46  C   UNL     1       1.344  -1.891   4.574  0.00  0.00    +0.000 C 
ATOM     47  N   UNL     1       1.168  -0.789   3.757  0.00  0.00    +0.000 N 
ATOM     48  H   UNL     1       1.959  -0.275   3.394  0.00  0.00    +0.000 HD
BRANCH  46  49
ATOM     49  C   UNL     1       2.698  -2.503   4.677  0.00  0.00    +0.000 A 
ATOM     50  C   UNL     1       3.704  -2.299   3.726  0.00  0.00    +0.000 A 
ATOM     51  C   UNL     1       4.914  -3.004   3.825  0.00  0.00    +0.000 A 
ATOM     52  C   UNL     1       5.105  -3.907   4.870  0.00  0.00    +0.000 A 
ATOM     53  C   UNL     1       4.129  -4.091   5.837  0.00  0.00    +0.000 A 
ATOM     54  C   UNL     1       2.922  -3.395   5.737  0.00  0.00    +0.000 A 
ATOM     55  H   UNL     1       3.560  -1.635   2.881  0.00  0.00    +0.000 HD
ATOM     56  H   UNL     1       5.679  -2.852   3.070  0.00  0.00    +0.000 HD
ATOM     57  H   UNL     1       4.286  -4.798   6.647  0.00  0.00    +0.000 HD
ATOM     58  H   UNL     1       2.149  -3.568   6.483  0.00  0.00    +0.000 HD
BRANCH  52  59
ATOM     59  O   UNL     1       6.243  -4.650   4.968  0.00  0.00    +0.000 OA
ATOM     60  H   UNL     1       6.771  -4.525   4.162  0.00  0.00    +0.000 HD
ENDBRANCH  52  59
ENDBRANCH  46  49
ENDBRANCH  33  47
ENDBRANCH  32  37
ENDBRANCH   1  32
TORSDOF 13
