MODEL 1
REMARK VINA RESULT:   -10.869      0.000      0.000
REMARK INTER + INTRA:         -16.096
REMARK INTER:                 -15.316
REMARK INTRA:                  -0.779
REMARK UNBOUND:                -0.779
REMARK  Name = 
REMARK  8 active torsions:
REMARK  status: ('A' for Active; 'I' for Inactive)
REMARK    1  A    between atoms: C_1  and  C_2
REMARK    2  A    between atoms: C_8  and  C_9
REMARK    3  A    between atoms: C_13  and  O_14
REMARK    4  A    between atoms: O_14  and  C_15
REMARK    5  A    between atoms: C_15  and  C_16
REMARK    6  A    between atoms: C_16  and  N_17
REMARK    7  A    between atoms: C_16  and  C_18
REMARK    8  A    between atoms: C_18  and  C_19
REMARK                            x       y       z     vdW  Elec       q    Type
REMARK                         _______ _______ _______ _____ _____    ______ ____
ROOT
ATOM      1  C   UNL     1      -8.848  -6.247  18.389  0.00  0.00    +0.000 A 
ATOM      2  C   UNL     1      -9.998  -5.491  18.170  0.00  0.00    +0.000 A 
ATOM      3  N   UNL     1     -11.105  -5.932  17.514  0.00  0.00    +0.000 NA
ATOM      4  C   UNL     1     -11.075  -7.204  17.054  0.00  0.00    +0.000 A 
ATOM      5  C   UNL     1     -10.001  -8.059  17.229  0.00  0.00    +0.000 A 
ATOM      6  C   UNL     1      -8.891  -7.566  17.914  0.00  0.00    +0.000 A 
ATOM      7  H   UNL     1     -10.062  -4.461  18.517  0.00  0.00    +0.000 HD
ATOM      8  H   UNL     1     -11.976  -7.502  16.530  0.00  0.00    +0.000 HD
ATOM      9  H   UNL     1      -8.052  -8.240  18.075  0.00  0.00    +0.000 HD
ENDROOT
BRANCH   1  16
ATOM     10  C   UNL     1      -6.242  -3.499  21.793  0.00  0.00    +0.000 A 
ATOM     11  N   UNL     1      -4.915  -3.348  21.901  0.00  0.00    +0.000 NA
ATOM     12  N   UNL     1      -4.421  -4.105  20.906  0.00  0.00    +0.000 N 
ATOM     13  C   UNL     1      -5.375  -4.736  20.159  0.00  0.00    +0.000 A 
ATOM     14  C   UNL     1      -5.302  -5.591  19.072  0.00  0.00    +0.000 A 
ATOM     15  N   UNL     1      -6.456  -6.064  18.536  0.00  0.00    +0.000 NA
ATOM     16  C   UNL     1      -7.658  -5.692  19.054  0.00  0.00    +0.000 A 
ATOM     17  C   UNL     1      -7.769  -4.845  20.158  0.00  0.00    +0.000 A 
ATOM     18  C   UNL     1      -6.585  -4.355  20.715  0.00  0.00    +0.000 A 
ATOM     19  H   UNL     1      -3.414  -4.145  20.791  0.00  0.00    +0.000 HD
ATOM     20  H   UNL     1      -4.375  -5.913  18.615  0.00  0.00    +0.000 HD
ATOM     21  H   UNL     1      -8.726  -4.578  20.587  0.00  0.00    +0.000 HD
BRANCH  10  22
ATOM     22  C   UNL     1      -7.170  -2.814  22.725  0.00  0.00    +0.000 C 
ATOM     23  H   UNL     1      -7.513  -3.482  23.521  0.00  0.00    +0.000 HD
ATOM     24  H   UNL     1      -8.049  -2.450  22.184  0.00  0.00    +0.000 HD
ATOM     25  H   UNL     1      -6.676  -1.955  23.191  0.00  0.00    +0.000 HD
ENDBRANCH  10  22
ENDBRANCH   1  16
BRANCH   5  26
ATOM     26  O   UNL     1      -9.876  -9.346  16.806  0.00  0.00    +0.000 OA
BRANCH  26  27
ATOM     27  C   UNL     1     -10.600  -9.734  15.634  0.00  0.00    +0.000 C 
ATOM     28  H   UNL     1     -11.112  -8.862  15.210  0.00  0.00    +0.000 HD
ATOM     29  H   UNL     1     -11.331 -10.513  15.883  0.00  0.00    +0.000 HD
BRANCH  27  30
ATOM     30  C   UNL     1      -9.570 -10.280  14.618  0.00  0.00    +0.000 C 
ATOM     31  H   UNL     1     -10.054 -11.077  14.041  0.00  0.00    +0.000 HD
BRANCH  30  32
ATOM     32  N   UNL     1      -9.207  -9.228  13.648  0.00  0.00    +0.000 NA
ATOM     33  H   UNL     1      -9.641  -9.415  12.747  0.00  0.00    +0.000 HD
ATOM     34  H   UNL     1      -8.198  -9.274  13.491  0.00  0.00    +0.000 HD
ENDBRANCH  30  32
BRANCH  30  35
ATOM     35  C   UNL     1      -8.337 -10.849  15.354  0.00  0.00    +0.000 C 
ATOM     36  H   UNL     1      -8.109 -10.224  16.227  0.00  0.00    +0.000 HD
ATOM     37  H   UNL     1      -7.461 -10.778  14.695  0.00  0.00    +0.000 HD
BRANCH  35  38
ATOM     38  C   UNL     1      -8.498 -12.275  15.831  0.00  0.00    +0.000 A 
ATOM     39  C   UNL     1      -8.603 -13.320  14.902  0.00  0.00    +0.000 A 
ATOM     40  C   UNL     1      -8.810 -14.632  15.330  0.00  0.00    +0.000 A 
ATOM     41  C   UNL     1      -8.908 -14.916  16.690  0.00  0.00    +0.000 A 
ATOM     42  C   UNL     1      -8.778 -13.891  17.625  0.00  0.00    +0.000 A 
ATOM     43  C   UNL     1      -8.566 -12.579  17.199  0.00  0.00    +0.000 A 
ATOM     44  H   UNL     1      -8.544 -13.117  13.836  0.00  0.00    +0.000 HD
ATOM     45  H   UNL     1      -8.911 -15.431  14.599  0.00  0.00    +0.000 HD
ATOM     46  H   UNL     1      -9.091 -15.935  17.021  0.00  0.00    +0.000 HD
ATOM     47  H   UNL     1      -8.856 -14.111  18.685  0.00  0.00    +0.000 HD
ATOM     48  H   UNL     1      -8.480 -11.791  17.943  0.00  0.00    +0.000 HD
ENDBRANCH  35  38
ENDBRANCH  30  35
ENDBRANCH  27  30
ENDBRANCH  26  27
ENDBRANCH   5  26
TORSDOF 8
ENDMDL
MODEL 2
REMARK VINA RESULT:   -10.625      1.369      1.906
REMARK INTER + INTRA:         -15.752
REMARK INTER:                 -15.152
REMARK INTRA:                  -0.600
REMARK UNBOUND:                -0.779
REMARK  Name = 
REMARK  8 active torsions:
REMARK  status: ('A' for Active; 'I' for Inactive)
REMARK    1  A    between atoms: C_1  and  C_2
REMARK    2  A    between atoms: C_8  and  C_9
REMARK    3  A    between atoms: C_13  and  O_14
REMARK    4  A    between atoms: O_14  and  C_15
REMARK    5  A    between atoms: C_15  and  C_16
REMARK    6  A    between atoms: C_16  and  N_17
REMARK    7  A    between atoms: C_16  and  C_18
REMARK    8  A    between atoms: C_18  and  C_19
REMARK                            x       y       z     vdW  Elec       q    Type
REMARK                         _______ _______ _______ _____ _____    ______ ____
ROOT
ATOM      1  C   UNL     1      -8.047  -7.175  19.541  0.00  0.00    +0.000 A 
ATOM      2  C   UNL     1      -8.464  -8.257  20.314  0.00  0.00    +0.000 A 
ATOM      3  N   UNL     1      -9.145  -9.335  19.840  0.00  0.00    +0.000 NA
ATOM      4  C   UNL     1      -9.423  -9.347  18.516  0.00  0.00    +0.000 A 
ATOM      5  C   UNL     1      -9.042  -8.343  17.643  0.00  0.00    +0.000 A 
ATOM      6  C   UNL     1      -8.339  -7.261  18.171  0.00  0.00    +0.000 A 
ATOM      7  H   UNL     1      -8.268  -8.284  21.385  0.00  0.00    +0.000 HD
ATOM      8  H   UNL     1      -9.975 -10.221  18.192  0.00  0.00    +0.000 HD
ATOM      9  H   UNL     1      -8.017  -6.480  17.486  0.00  0.00    +0.000 HD
ENDROOT
BRANCH   1  16
ATOM     10  C   UNL     1      -7.594  -2.895  22.264  0.00  0.00    +0.000 A 
ATOM     11  N   UNL     1      -6.509  -2.129  22.436  0.00  0.00    +0.000 NA
ATOM     12  N   UNL     1      -5.553  -2.758  21.730  0.00  0.00    +0.000 N 
ATOM     13  C   UNL     1      -5.978  -3.899  21.109  0.00  0.00    +0.000 A 
ATOM     14  C   UNL     1      -5.333  -4.825  20.308  0.00  0.00    +0.000 A 
ATOM     15  N   UNL     1      -6.044  -5.879  19.829  0.00  0.00    +0.000 NA
ATOM     16  C   UNL     1      -7.365  -6.008  20.124  0.00  0.00    +0.000 A 
ATOM     17  C   UNL     1      -8.043  -5.101  20.941  0.00  0.00    +0.000 A 
ATOM     18  C   UNL     1      -7.318  -4.015  21.438  0.00  0.00    +0.000 A 
ATOM     19  H   UNL     1      -4.625  -2.350  21.714  0.00  0.00    +0.000 HD
ATOM     20  H   UNL     1      -4.287  -4.769  20.035  0.00  0.00    +0.000 HD
ATOM     21  H   UNL     1      -9.087  -5.226  21.200  0.00  0.00    +0.000 HD
BRANCH  10  22
ATOM     22  C   UNL     1      -8.890  -2.543  22.893  0.00  0.00    +0.000 C 
ATOM     23  H   UNL     1      -9.723  -2.638  22.189  0.00  0.00    +0.000 HD
ATOM     24  H   UNL     1      -8.867  -1.510  23.254  0.00  0.00    +0.000 HD
ATOM     25  H   UNL     1      -9.090  -3.199  23.746  0.00  0.00    +0.000 HD
ENDBRANCH  10  22
ENDBRANCH   1  16
BRANCH   5  26
ATOM     26  O   UNL     1      -9.272  -8.264  16.304  0.00  0.00    +0.000 OA
BRANCH  26  27
ATOM     27  C   UNL     1     -10.278  -9.120  15.751  0.00  0.00    +0.000 C 
ATOM     28  H   UNL     1     -11.046  -8.515  15.255  0.00  0.00    +0.000 HD
ATOM     29  H   UNL     1     -10.733  -9.727  16.543  0.00  0.00    +0.000 HD
BRANCH  27  30
ATOM     30  C   UNL     1      -9.584 -10.035  14.716  0.00  0.00    +0.000 C 
ATOM     31  H   UNL     1     -10.304 -10.802  14.406  0.00  0.00    +0.000 HD
BRANCH  30  32
ATOM     32  N   UNL     1      -9.248  -9.265  13.502  0.00  0.00    +0.000 NA
ATOM     33  H   UNL     1      -8.239  -9.160  13.419  0.00  0.00    +0.000 HD
ATOM     34  H   UNL     1      -9.623  -8.320  13.609  0.00  0.00    +0.000 HD
ENDBRANCH  30  32
BRANCH  30  35
ATOM     35  C   UNL     1      -8.344 -10.712  15.341  0.00  0.00    +0.000 C 
ATOM     36  H   UNL     1      -8.041 -10.164  16.243  0.00  0.00    +0.000 HD
ATOM     37  H   UNL     1      -7.501 -10.633  14.641  0.00  0.00    +0.000 HD
BRANCH  35  38
ATOM     38  C   UNL     1      -8.551 -12.161  15.724  0.00  0.00    +0.000 A 
ATOM     39  C   UNL     1      -8.584 -12.532  17.076  0.00  0.00    +0.000 A 
ATOM     40  C   UNL     1      -8.717 -13.873  17.440  0.00  0.00    +0.000 A 
ATOM     41  C   UNL     1      -8.825 -14.856  16.459  0.00  0.00    +0.000 A 
ATOM     42  C   UNL     1      -8.821 -14.497  15.113  0.00  0.00    +0.000 A 
ATOM     43  C   UNL     1      -8.693 -13.156  14.747  0.00  0.00    +0.000 A 
ATOM     44  H   UNL     1      -8.486 -11.782  17.856  0.00  0.00    +0.000 HD
ATOM     45  H   UNL     1      -8.720 -14.151  18.491  0.00  0.00    +0.000 HD
ATOM     46  H   UNL     1      -8.906 -15.902  16.744  0.00  0.00    +0.000 HD
ATOM     47  H   UNL     1      -8.904 -15.263  14.347  0.00  0.00    +0.000 HD
ATOM     48  H   UNL     1      -8.680 -12.899  13.691  0.00  0.00    +0.000 HD
ENDBRANCH  35  38
ENDBRANCH  30  35
ENDBRANCH  27  30
ENDBRANCH  26  27
ENDBRANCH   5  26
TORSDOF 8
ENDMDL
MODEL 3
REMARK VINA RESULT:   -10.363      2.592      4.568
REMARK INTER + INTRA:         -15.383
REMARK INTER:                 -14.796
REMARK INTRA:                  -0.587
REMARK UNBOUND:                -0.779
REMARK  Name = 
REMARK  8 active torsions:
REMARK  status: ('A' for Active; 'I' for Inactive)
REMARK    1  A    between atoms: C_1  and  C_2
REMARK    2  A    between atoms: C_8  and  C_9
REMARK    3  A    between atoms: C_13  and  O_14
REMARK    4  A    between atoms: O_14  and  C_15
REMARK    5  A    between atoms: C_15  and  C_16
REMARK    6  A    between atoms: C_16  and  N_17
REMARK    7  A    between atoms: C_16  and  C_18
REMARK    8  A    between atoms: C_18  and  C_19
REMARK                            x       y       z     vdW  Elec       q    Type
REMARK                         _______ _______ _______ _____ _____    ______ ____
ROOT
ATOM      1  C   UNL     1      -6.911  -4.330  20.937  0.00  0.00    +0.000 A 
ATOM      2  C   UNL     1      -5.520  -4.346  21.024  0.00  0.00    +0.000 A 
ATOM      3  N   UNL     1      -4.697  -5.034  20.188  0.00  0.00    +0.000 NA
ATOM      4  C   UNL     1      -5.286  -5.745  19.199  0.00  0.00    +0.000 A 
ATOM      5  C   UNL     1      -6.655  -5.789  18.997  0.00  0.00    +0.000 A 
ATOM      6  C   UNL     1      -7.460  -5.061  19.873  0.00  0.00    +0.000 A 
ATOM      7  H   UNL     1      -5.006  -3.795  21.809  0.00  0.00    +0.000 HD
ATOM      8  H   UNL     1      -4.587  -6.282  18.569  0.00  0.00    +0.000 HD
ATOM      9  H   UNL     1      -8.534  -5.074  19.705  0.00  0.00    +0.000 HD
ENDROOT
BRANCH   1  16
ATOM     10  C   UNL     1      -8.602  -2.938  25.535  0.00  0.00    +0.000 A 
ATOM     11  N   UNL     1      -9.603  -2.099  25.834  0.00  0.00    +0.000 NA
ATOM     12  N   UNL     1     -10.056  -1.695  24.635  0.00  0.00    +0.000 N 
ATOM     13  C   UNL     1      -9.390  -2.239  23.574  0.00  0.00    +0.000 A 
ATOM     14  C   UNL     1      -9.529  -2.091  22.205  0.00  0.00    +0.000 A 
ATOM     15  N   UNL     1      -8.694  -2.783  21.387  0.00  0.00    +0.000 NA
ATOM     16  C   UNL     1      -7.751  -3.613  21.910  0.00  0.00    +0.000 A 
ATOM     17  C   UNL     1      -7.574  -3.774  23.285  0.00  0.00    +0.000 A 
ATOM     18  C   UNL     1      -8.429  -3.064  24.132  0.00  0.00    +0.000 A 
ATOM     19  H   UNL     1     -10.832  -1.041  24.614  0.00  0.00    +0.000 HD
ATOM     20  H   UNL     1     -10.264  -1.451  21.735  0.00  0.00    +0.000 HD
ATOM     21  H   UNL     1      -6.801  -4.411  23.697  0.00  0.00    +0.000 HD
BRANCH  10  22
ATOM     22  C   UNL     1      -7.822  -3.614  26.599  0.00  0.00    +0.000 C 
ATOM     23  H   UNL     1      -6.995  -4.201  26.187  0.00  0.00    +0.000 HD
ATOM     24  H   UNL     1      -8.467  -4.290  27.169  0.00  0.00    +0.000 HD
ATOM     25  H   UNL     1      -7.404  -2.877  27.292  0.00  0.00    +0.000 HD
ENDBRANCH  10  22
ENDBRANCH   1  16
BRANCH   5  26
ATOM     26  O   UNL     1      -7.338  -6.469  18.037  0.00  0.00    +0.000 OA
BRANCH  26  27
ATOM     27  C   UNL     1      -8.707  -6.794  18.300  0.00  0.00    +0.000 C 
ATOM     28  H   UNL     1      -9.329  -6.492  17.449  0.00  0.00    +0.000 HD
ATOM     29  H   UNL     1      -9.047  -6.286  19.210  0.00  0.00    +0.000 HD
BRANCH  27  30
ATOM     30  C   UNL     1      -8.787  -8.326  18.487  0.00  0.00    +0.000 C 
ATOM     31  H   UNL     1      -7.770  -8.730  18.403  0.00  0.00    +0.000 HD
BRANCH  30  32
ATOM     32  N   UNL     1      -9.250  -8.648  19.852  0.00  0.00    +0.000 NA
ATOM     33  H   UNL     1      -8.637  -9.341  20.277  0.00  0.00    +0.000 HD
ATOM     34  H   UNL     1     -10.169  -9.090  19.781  0.00  0.00    +0.000 HD
ENDBRANCH  30  32
BRANCH  30  35
ATOM     35  C   UNL     1      -9.686  -8.957  17.401  0.00  0.00    +0.000 C 
ATOM     36  H   UNL     1      -9.757  -8.277  16.542  0.00  0.00    +0.000 HD
ATOM     37  H   UNL     1     -10.707  -9.056  17.793  0.00  0.00    +0.000 HD
BRANCH  35  38
ATOM     38  C   UNL     1      -9.204 -10.299  16.894  0.00  0.00    +0.000 A 
ATOM     39  C   UNL     1      -9.118 -10.539  15.515  0.00  0.00    +0.000 A 
ATOM     40  C   UNL     1      -8.731 -11.792  15.036  0.00  0.00    +0.000 A 
ATOM     41  C   UNL     1      -8.418 -12.814  15.928  0.00  0.00    +0.000 A 
ATOM     42  C   UNL     1      -8.473 -12.580  17.300  0.00  0.00    +0.000 A 
ATOM     43  C   UNL     1      -8.856 -11.327  17.781  0.00  0.00    +0.000 A 
ATOM     44  H   UNL     1      -9.372  -9.758  14.802  0.00  0.00    +0.000 HD
ATOM     45  H   UNL     1      -8.688 -11.973  13.965  0.00  0.00    +0.000 HD
ATOM     46  H   UNL     1      -8.138 -13.795  15.554  0.00  0.00    +0.000 HD
ATOM     47  H   UNL     1      -8.231 -13.378  17.997  0.00  0.00    +0.000 HD
ATOM     48  H   UNL     1      -8.904 -11.168  18.856  0.00  0.00    +0.000 HD
ENDBRANCH  35  38
ENDBRANCH  30  35
ENDBRANCH  27  30
ENDBRANCH  26  27
ENDBRANCH   5  26
TORSDOF 8
ENDMDL
MODEL 4
REMARK VINA RESULT:   -10.350      2.019      9.268
REMARK INTER + INTRA:         -15.364
REMARK INTER:                 -14.812
REMARK INTRA:                  -0.552
REMARK UNBOUND:                -0.779
REMARK  Name = 
REMARK  8 active torsions:
REMARK  status: ('A' for Active; 'I' for Inactive)
REMARK    1  A    between atoms: C_1  and  C_2
REMARK    2  A    between atoms: C_8  and  C_9
REMARK    3  A    between atoms: C_13  and  O_14
REMARK    4  A    between atoms: O_14  and  C_15
REMARK    5  A    between atoms: C_15  and  C_16
REMARK    6  A    between atoms: C_16  and  N_17
REMARK    7  A    between atoms: C_16  and  C_18
REMARK    8  A    between atoms: C_18  and  C_19
REMARK                            x       y       z     vdW  Elec       q    Type
REMARK                         _______ _______ _______ _____ _____    ______ ____
ROOT
ATOM      1  C   UNL     1      -9.391  -7.688  17.264  0.00  0.00    +0.000 A 
ATOM      2  C   UNL     1     -10.324  -6.775  16.776  0.00  0.00    +0.000 A 
ATOM      3  N   UNL     1     -10.585  -5.560  17.329  0.00  0.00    +0.000 NA
ATOM      4  C   UNL     1      -9.871  -5.223  18.428  0.00  0.00    +0.000 A 
ATOM      5  C   UNL     1      -8.901  -6.035  18.991  0.00  0.00    +0.000 A 
ATOM      6  C   UNL     1      -8.662  -7.268  18.386  0.00  0.00    +0.000 A 
ATOM      7  H   UNL     1     -10.926  -7.009  15.900  0.00  0.00    +0.000 HD
ATOM      8  H   UNL     1     -10.124  -4.252  18.835  0.00  0.00    +0.000 HD
ATOM      9  H   UNL     1      -7.885  -7.901  18.811  0.00  0.00    +0.000 HD
ENDROOT
BRANCH   1  16
ATOM     10  C   UNL     1      -8.586 -12.716  17.152  0.00  0.00    +0.000 A 
ATOM     11  N   UNL     1      -8.467 -13.516  16.084  0.00  0.00    +0.000 NA
ATOM     12  N   UNL     1      -8.622 -12.686  15.039  0.00  0.00    +0.000 N 
ATOM     13  C   UNL     1      -8.835 -11.382  15.388  0.00  0.00    +0.000 A 
ATOM     14  C   UNL     1      -9.044 -10.234  14.643  0.00  0.00    +0.000 A 
ATOM     15  N   UNL     1      -9.230  -9.059  15.296  0.00  0.00    +0.000 NA
ATOM     16  C   UNL     1      -9.197  -9.014  16.655  0.00  0.00    +0.000 A 
ATOM     17  C   UNL     1      -9.004 -10.154  17.438  0.00  0.00    +0.000 A 
ATOM     18  C   UNL     1      -8.814 -11.368  16.772  0.00  0.00    +0.000 A 
ATOM     19  H   UNL     1      -8.569 -13.079  14.105  0.00  0.00    +0.000 HD
ATOM     20  H   UNL     1      -9.072 -10.210  13.561  0.00  0.00    +0.000 HD
ATOM     21  H   UNL     1      -9.012 -10.119  18.520  0.00  0.00    +0.000 HD
BRANCH  10  22
ATOM     22  C   UNL     1      -8.475 -13.252  18.530  0.00  0.00    +0.000 C 
ATOM     23  H   UNL     1      -8.050 -12.517  19.220  0.00  0.00    +0.000 HD
ATOM     24  H   UNL     1      -7.834 -14.139  18.540  0.00  0.00    +0.000 HD
ATOM     25  H   UNL     1      -9.462 -13.541  18.906  0.00  0.00    +0.000 HD
ENDBRANCH  10  22
ENDBRANCH   1  16
BRANCH   5  26
ATOM     26  O   UNL     1      -8.134  -5.787  20.087  0.00  0.00    +0.000 OA
BRANCH  26  27
ATOM     27  C   UNL     1      -7.717  -4.437  20.315  0.00  0.00    +0.000 C 
ATOM     28  H   UNL     1      -8.496  -3.897  20.867  0.00  0.00    +0.000 HD
ATOM     29  H   UNL     1      -7.521  -3.937  19.360  0.00  0.00    +0.000 HD
BRANCH  27  30
ATOM     30  C   UNL     1      -6.423  -4.493  21.159  0.00  0.00    +0.000 C 
ATOM     31  H   UNL     1      -6.562  -5.248  21.943  0.00  0.00    +0.000 HD
BRANCH  30  32
ATOM     32  N   UNL     1      -5.295  -4.962  20.328  0.00  0.00    +0.000 NA
ATOM     33  H   UNL     1      -5.628  -5.607  19.614  0.00  0.00    +0.000 HD
ATOM     34  H   UNL     1      -4.663  -5.501  20.923  0.00  0.00    +0.000 HD
ENDBRANCH  30  32
BRANCH  30  35
ATOM     35  C   UNL     1      -6.141  -3.120  21.806  0.00  0.00    +0.000 C 
ATOM     36  H   UNL     1      -6.096  -2.348  21.026  0.00  0.00    +0.000 HD
ATOM     37  H   UNL     1      -5.145  -3.138  22.270  0.00  0.00    +0.000 HD
BRANCH  35  38
ATOM     38  C   UNL     1      -7.169  -2.689  22.829  0.00  0.00    +0.000 A 
ATOM     39  C   UNL     1      -7.557  -1.343  22.912  0.00  0.00    +0.000 A 
ATOM     40  C   UNL     1      -8.462  -0.926  23.889  0.00  0.00    +0.000 A 
ATOM     41  C   UNL     1      -8.994  -1.846  24.788  0.00  0.00    +0.000 A 
ATOM     42  C   UNL     1      -8.638  -3.190  24.699  0.00  0.00    +0.000 A 
ATOM     43  C   UNL     1      -7.736  -3.611  23.719  0.00  0.00    +0.000 A 
ATOM     44  H   UNL     1      -7.142  -0.607  22.228  0.00  0.00    +0.000 HD
ATOM     45  H   UNL     1      -8.738   0.124  23.957  0.00  0.00    +0.000 HD
ATOM     46  H   UNL     1      -9.681  -1.515  25.563  0.00  0.00    +0.000 HD
ATOM     47  H   UNL     1      -9.050  -3.909  25.401  0.00  0.00    +0.000 HD
ATOM     48  H   UNL     1      -7.462  -4.662  23.674  0.00  0.00    +0.000 HD
ENDBRANCH  35  38
ENDBRANCH  30  35
ENDBRANCH  27  30
ENDBRANCH  26  27
ENDBRANCH   5  26
TORSDOF 8
ENDMDL
MODEL 5
REMARK VINA RESULT:   -10.295      2.725      9.362
REMARK INTER + INTRA:         -15.287
REMARK INTER:                 -14.539
REMARK INTRA:                  -0.748
REMARK UNBOUND:                -0.779
REMARK  Name = 
REMARK  8 active torsions:
REMARK  status: ('A' for Active; 'I' for Inactive)
REMARK    1  A    between atoms: C_1  and  C_2
REMARK    2  A    between atoms: C_8  and  C_9
REMARK    3  A    between atoms: C_13  and  O_14
REMARK    4  A    between atoms: O_14  and  C_15
REMARK    5  A    between atoms: C_15  and  C_16
REMARK    6  A    between atoms: C_16  and  N_17
REMARK    7  A    between atoms: C_16  and  C_18
REMARK    8  A    between atoms: C_18  and  C_19
REMARK                            x       y       z     vdW  Elec       q    Type
REMARK                         _______ _______ _______ _____ _____    ______ ____
ROOT
ATOM      1  C   UNL     1      -9.305  -6.989  18.463  0.00  0.00    +0.000 A 
ATOM      2  C   UNL     1     -10.345  -6.447  17.710  0.00  0.00    +0.000 A 
ATOM      3  N   UNL     1     -10.674  -5.128  17.674  0.00  0.00    +0.000 NA
ATOM      4  C   UNL     1      -9.920  -4.290  18.423  0.00  0.00    +0.000 A 
ATOM      5  C   UNL     1      -8.848  -4.706  19.194  0.00  0.00    +0.000 A 
ATOM      6  C   UNL     1      -8.542  -6.066  19.194  0.00  0.00    +0.000 A 
ATOM      7  H   UNL     1     -10.981  -7.086  17.099  0.00  0.00    +0.000 HD
ATOM      8  H   UNL     1     -10.229  -3.254  18.367  0.00  0.00    +0.000 HD
ATOM      9  H   UNL     1      -7.687  -6.395  19.779  0.00  0.00    +0.000 HD
ENDROOT
BRANCH   1  16
ATOM     10  C   UNL     1      -8.780 -11.711  16.628  0.00  0.00    +0.000 A 
ATOM     11  N   UNL     1      -8.486 -12.835  17.295  0.00  0.00    +0.000 NA
ATOM     12  N   UNL     1      -8.346 -12.428  18.569  0.00  0.00    +0.000 N 
ATOM     13  C   UNL     1      -8.540 -11.088  18.751  0.00  0.00    +0.000 A 
ATOM     14  C   UNL     1      -8.487 -10.278  19.873  0.00  0.00    +0.000 A 
ATOM     15  N   UNL     1      -8.733  -8.950  19.729  0.00  0.00    +0.000 NA
ATOM     16  C   UNL     1      -9.037  -8.435  18.506  0.00  0.00    +0.000 A 
ATOM     17  C   UNL     1      -9.084  -9.221  17.353  0.00  0.00    +0.000 A 
ATOM     18  C   UNL     1      -8.831 -10.588  17.494  0.00  0.00    +0.000 A 
ATOM     19  H   UNL     1      -8.117 -13.125  19.270  0.00  0.00    +0.000 HD
ATOM     20  H   UNL     1      -8.258 -10.634  20.869  0.00  0.00    +0.000 HD
ATOM     21  H   UNL     1      -9.295  -8.801  16.377  0.00  0.00    +0.000 HD
BRANCH  10  22
ATOM     22  C   UNL     1      -9.016 -11.726  15.164  0.00  0.00    +0.000 C 
ATOM     23  H   UNL     1     -10.031 -12.055  14.919  0.00  0.00    +0.000 HD
ATOM     24  H   UNL     1      -8.311 -12.405  14.675  0.00  0.00    +0.000 HD
ATOM     25  H   UNL     1      -8.872 -10.725  14.745  0.00  0.00    +0.000 HD
ENDBRANCH  10  22
ENDBRANCH   1  16
BRANCH   5  26
ATOM     26  O   UNL     1      -8.034  -3.946  19.976  0.00  0.00    +0.000 OA
BRANCH  26  27
ATOM     27  C   UNL     1      -7.002  -4.615  20.709  0.00  0.00    +0.000 C 
ATOM     28  H   UNL     1      -6.193  -4.905  20.029  0.00  0.00    +0.000 HD
ATOM     29  H   UNL     1      -7.409  -5.503  21.206  0.00  0.00    +0.000 HD
BRANCH  27  30
ATOM     30  C   UNL     1      -6.467  -3.617  21.762  0.00  0.00    +0.000 C 
ATOM     31  H   UNL     1      -6.474  -4.119  22.737  0.00  0.00    +0.000 HD
BRANCH  30  32
ATOM     32  N   UNL     1      -5.057  -3.284  21.476  0.00  0.00    +0.000 NA
ATOM     33  H   UNL     1      -4.884  -2.298  21.659  0.00  0.00    +0.000 HD
ATOM     34  H   UNL     1      -4.895  -3.417  20.476  0.00  0.00    +0.000 HD
ENDBRANCH  30  32
BRANCH  30  35
ATOM     35  C   UNL     1      -7.365  -2.361  21.820  0.00  0.00    +0.000 C 
ATOM     36  H   UNL     1      -8.176  -2.454  21.085  0.00  0.00    +0.000 HD
ATOM     37  H   UNL     1      -6.778  -1.485  21.513  0.00  0.00    +0.000 HD
BRANCH  35  38
ATOM     38  C   UNL     1      -7.991  -2.104  23.174  0.00  0.00    +0.000 A 
ATOM     39  C   UNL     1      -8.312  -3.179  24.015  0.00  0.00    +0.000 A 
ATOM     40  C   UNL     1      -8.943  -2.957  25.240  0.00  0.00    +0.000 A 
ATOM     41  C   UNL     1      -9.251  -1.660  25.642  0.00  0.00    +0.000 A 
ATOM     42  C   UNL     1      -8.912  -0.581  24.828  0.00  0.00    +0.000 A 
ATOM     43  C   UNL     1      -8.278  -0.801  23.604  0.00  0.00    +0.000 A 
ATOM     44  H   UNL     1      -8.092  -4.200  23.713  0.00  0.00    +0.000 HD
ATOM     45  H   UNL     1      -9.206  -3.800  25.874  0.00  0.00    +0.000 HD
ATOM     46  H   UNL     1      -9.762  -1.490  26.586  0.00  0.00    +0.000 HD
ATOM     47  H   UNL     1      -9.155   0.431  25.139  0.00  0.00    +0.000 HD
ATOM     48  H   UNL     1      -8.033   0.053  22.978  0.00  0.00    +0.000 HD
ENDBRANCH  35  38
ENDBRANCH  30  35
ENDBRANCH  27  30
ENDBRANCH  26  27
ENDBRANCH   5  26
TORSDOF 8
ENDMDL
MODEL 6
REMARK VINA RESULT:   -10.014      2.471      4.043
REMARK INTER + INTRA:         -14.892
REMARK INTER:                 -14.271
REMARK INTRA:                  -0.620
REMARK UNBOUND:                -0.779
REMARK  Name = 
REMARK  8 active torsions:
REMARK  status: ('A' for Active; 'I' for Inactive)
REMARK    1  A    between atoms: C_1  and  C_2
REMARK    2  A    between atoms: C_8  and  C_9
REMARK    3  A    between atoms: C_13  and  O_14
REMARK    4  A    between atoms: O_14  and  C_15
REMARK    5  A    between atoms: C_15  and  C_16
REMARK    6  A    between atoms: C_16  and  N_17
REMARK    7  A    between atoms: C_16  and  C_18
REMARK    8  A    between atoms: C_18  and  C_19
REMARK                            x       y       z     vdW  Elec       q    Type
REMARK                         _______ _______ _______ _____ _____    ______ ____
ROOT
ATOM      1  C   UNL     1      -7.617  -4.464  20.363  0.00  0.00    +0.000 A 
ATOM      2  C   UNL     1      -6.308  -4.927  20.253  0.00  0.00    +0.000 A 
ATOM      3  N   UNL     1      -5.868  -5.797  19.305  0.00  0.00    +0.000 NA
ATOM      4  C   UNL     1      -6.780  -6.230  18.403  0.00  0.00    +0.000 A 
ATOM      5  C   UNL     1      -8.103  -5.825  18.396  0.00  0.00    +0.000 A 
ATOM      6  C   UNL     1      -8.508  -4.925  19.382  0.00  0.00    +0.000 A 
ATOM      7  H   UNL     1      -5.544  -4.611  20.961  0.00  0.00    +0.000 HD
ATOM      8  H   UNL     1      -6.382  -6.929  17.677  0.00  0.00    +0.000 HD
ATOM      9  H   UNL     1      -9.541  -4.585  19.368  0.00  0.00    +0.000 HD
ENDROOT
BRANCH   1  16
ATOM     10  C   UNL     1      -9.752  -0.349  22.472  0.00  0.00    +0.000 A 
ATOM     11  N   UNL     1      -9.827  -0.022  23.769  0.00  0.00    +0.000 NA
ATOM     12  N   UNL     1      -9.216  -1.043  24.396  0.00  0.00    +0.000 N 
ATOM     13  C   UNL     1      -8.749  -2.014  23.556  0.00  0.00    +0.000 A 
ATOM     14  C   UNL     1      -8.082  -3.206  23.781  0.00  0.00    +0.000 A 
ATOM     15  N   UNL     1      -7.743  -3.974  22.713  0.00  0.00    +0.000 NA
ATOM     16  C   UNL     1      -8.045  -3.568  21.450  0.00  0.00    +0.000 A 
ATOM     17  C   UNL     1      -8.730  -2.380  21.188  0.00  0.00    +0.000 A 
ATOM     18  C   UNL     1      -9.083  -1.586  22.282  0.00  0.00    +0.000 A 
ATOM     19  H   UNL     1      -9.151  -1.012  25.407  0.00  0.00    +0.000 HD
ATOM     20  H   UNL     1      -7.810  -3.574  24.761  0.00  0.00    +0.000 HD
ATOM     21  H   UNL     1      -8.997  -2.077  20.183  0.00  0.00    +0.000 HD
BRANCH  10  22
ATOM     22  C   UNL     1     -10.320   0.533  21.424  0.00  0.00    +0.000 C 
ATOM     23  H   UNL     1      -9.646   0.634  20.568  0.00  0.00    +0.000 HD
ATOM     24  H   UNL     1     -10.507   1.532  21.830  0.00  0.00    +0.000 HD
ATOM     25  H   UNL     1     -11.272   0.129  21.062  0.00  0.00    +0.000 HD
ENDBRANCH  10  22
ENDBRANCH   1  16
BRANCH   5  26
ATOM     26  O   UNL     1      -9.090  -6.200  17.538  0.00  0.00    +0.000 OA
BRANCH  26  27
ATOM     27  C   UNL     1      -8.744  -7.099  16.479  0.00  0.00    +0.000 C 
ATOM     28  H   UNL     1      -7.797  -7.600  16.714  0.00  0.00    +0.000 HD
ATOM     29  H   UNL     1      -8.652  -6.551  15.534  0.00  0.00    +0.000 HD
BRANCH  27  30
ATOM     30  C   UNL     1      -9.877  -8.145  16.377  0.00  0.00    +0.000 C 
ATOM     31  H   UNL     1      -9.987  -8.622  17.359  0.00  0.00    +0.000 HD
BRANCH  30  32
ATOM     32  N   UNL     1     -11.163  -7.476  16.095  0.00  0.00    +0.000 NA
ATOM     33  H   UNL     1     -11.649  -7.267  16.965  0.00  0.00    +0.000 HD
ATOM     34  H   UNL     1     -11.760  -8.132  15.589  0.00  0.00    +0.000 HD
ENDBRANCH  30  32
BRANCH  30  35
ATOM     35  C   UNL     1      -9.531  -9.215  15.319  0.00  0.00    +0.000 C 
ATOM     36  H   UNL     1      -8.679  -8.873  14.716  0.00  0.00    +0.000 HD
ATOM     37  H   UNL     1     -10.373  -9.317  14.621  0.00  0.00    +0.000 HD
BRANCH  35  38
ATOM     38  C   UNL     1      -9.181 -10.570  15.893  0.00  0.00    +0.000 A 
ATOM     39  C   UNL     1      -9.205 -10.773  17.280  0.00  0.00    +0.000 A 
ATOM     40  C   UNL     1      -8.828 -12.003  17.823  0.00  0.00    +0.000 A 
ATOM     41  C   UNL     1      -8.431 -13.044  16.988  0.00  0.00    +0.000 A 
ATOM     42  C   UNL     1      -8.429 -12.863  15.606  0.00  0.00    +0.000 A 
ATOM     43  C   UNL     1      -8.810 -11.636  15.061  0.00  0.00    +0.000 A 
ATOM     44  H   UNL     1      -9.497  -9.969  17.950  0.00  0.00    +0.000 HD
ATOM     45  H   UNL     1      -8.830 -12.141  18.902  0.00  0.00    +0.000 HD
ATOM     46  H   UNL     1      -8.117 -13.993  17.414  0.00  0.00    +0.000 HD
ATOM     47  H   UNL     1      -8.118 -13.674  14.954  0.00  0.00    +0.000 HD
ATOM     48  H   UNL     1      -8.790 -11.512  13.981  0.00  0.00    +0.000 HD
ENDBRANCH  35  38
ENDBRANCH  30  35
ENDBRANCH  27  30
ENDBRANCH  26  27
ENDBRANCH   5  26
TORSDOF 8
ENDMDL
MODEL 7
REMARK VINA RESULT:    -9.791      2.735      7.882
REMARK INTER + INTRA:         -14.578
REMARK INTER:                 -13.549
REMARK INTRA:                  -1.029
REMARK UNBOUND:                -0.779
REMARK  Name = 
REMARK  8 active torsions:
REMARK  status: ('A' for Active; 'I' for Inactive)
REMARK    1  A    between atoms: C_1  and  C_2
REMARK    2  A    between atoms: C_8  and  C_9
REMARK    3  A    between atoms: C_13  and  O_14
REMARK    4  A    between atoms: O_14  and  C_15
REMARK    5  A    between atoms: C_15  and  C_16
REMARK    6  A    between atoms: C_16  and  N_17
REMARK    7  A    between atoms: C_16  and  C_18
REMARK    8  A    between atoms: C_18  and  C_19
REMARK                            x       y       z     vdW  Elec       q    Type
REMARK                         _______ _______ _______ _____ _____    ______ ____
ROOT
ATOM      1  C   UNL     1     -10.232  -6.099  17.840  0.00  0.00    +0.000 A 
ATOM      2  C   UNL     1     -11.290  -5.907  16.954  0.00  0.00    +0.000 A 
ATOM      3  N   UNL     1     -11.822  -4.698  16.629  0.00  0.00    +0.000 NA
ATOM      4  C   UNL     1     -11.266  -3.610  17.211  0.00  0.00    +0.000 A 
ATOM      5  C   UNL     1     -10.198  -3.671  18.089  0.00  0.00    +0.000 A 
ATOM      6  C   UNL     1      -9.680  -4.931  18.387  0.00  0.00    +0.000 A 
ATOM      7  H   UNL     1     -11.772  -6.754  16.469  0.00  0.00    +0.000 HD
ATOM      8  H   UNL     1     -11.733  -2.674  16.927  0.00  0.00    +0.000 HD
ATOM      9  H   UNL     1      -8.826  -4.984  19.059  0.00  0.00    +0.000 HD
ENDROOT
BRANCH   1  16
ATOM     10  C   UNL     1      -8.953 -10.971  17.089  0.00  0.00    +0.000 A 
ATOM     11  N   UNL     1      -8.491 -11.857  17.981  0.00  0.00    +0.000 NA
ATOM     12  N   UNL     1      -8.428 -11.159  19.128  0.00  0.00    +0.000 N 
ATOM     13  C   UNL     1      -8.833  -9.859  19.013  0.00  0.00    +0.000 A 
ATOM     14  C   UNL     1      -8.919  -8.821  19.924  0.00  0.00    +0.000 A 
ATOM     15  N   UNL     1      -9.370  -7.614  19.495  0.00  0.00    +0.000 NA
ATOM     16  C   UNL     1      -9.740  -7.439  18.198  0.00  0.00    +0.000 A 
ATOM     17  C   UNL     1      -9.652  -8.460  17.249  0.00  0.00    +0.000 A 
ATOM     18  C   UNL     1      -9.187  -9.704  17.684  0.00  0.00    +0.000 A 
ATOM     19  H   UNL     1      -8.099 -11.637  19.960  0.00  0.00    +0.000 HD
ATOM     20  H   UNL     1      -8.646  -8.905  20.968  0.00  0.00    +0.000 HD
ATOM     21  H   UNL     1      -9.917  -8.307  16.210  0.00  0.00    +0.000 HD
BRANCH  10  22
ATOM     22  C   UNL     1      -9.169 -11.349  15.671  0.00  0.00    +0.000 C 
ATOM     23  H   UNL     1      -9.162 -12.435  15.535  0.00  0.00    +0.000 HD
ATOM     24  H   UNL     1      -8.382 -10.922  15.041  0.00  0.00    +0.000 HD
ATOM     25  H   UNL     1     -10.133 -10.969  15.318  0.00  0.00    +0.000 HD
ENDBRANCH  10  22
ENDBRANCH   1  16
BRANCH   5  26
ATOM     26  O   UNL     1      -9.573  -2.641  18.722  0.00  0.00    +0.000 OA
BRANCH  26  27
ATOM     27  C   UNL     1      -9.844  -2.454  20.115  0.00  0.00    +0.000 C 
ATOM     28  H   UNL     1     -10.260  -3.376  20.538  0.00  0.00    +0.000 HD
ATOM     29  H   UNL     1     -10.550  -1.627  20.253  0.00  0.00    +0.000 HD
BRANCH  27  30
ATOM     30  C   UNL     1      -8.500  -2.123  20.803  0.00  0.00    +0.000 C 
ATOM     31  H   UNL     1      -7.765  -1.900  20.019  0.00  0.00    +0.000 HD
BRANCH  30  32
ATOM     32  N   UNL     1      -8.631  -0.893  21.610  0.00  0.00    +0.000 NA
ATOM     33  H   UNL     1      -8.175  -1.014  22.512  0.00  0.00    +0.000 HD
ATOM     34  H   UNL     1      -9.623  -0.749  21.812  0.00  0.00    +0.000 HD
ENDBRANCH  30  32
BRANCH  30  35
ATOM     35  C   UNL     1      -8.013  -3.324  21.642  0.00  0.00    +0.000 C 
ATOM     36  H   UNL     1      -8.838  -4.036  21.779  0.00  0.00    +0.000 HD
ATOM     37  H   UNL     1      -7.745  -2.975  22.648  0.00  0.00    +0.000 HD
BRANCH  35  38
ATOM     38  C   UNL     1      -6.846  -4.075  21.039  0.00  0.00    +0.000 A 
ATOM     39  C   UNL     1      -7.076  -5.155  20.174  0.00  0.00    +0.000 A 
ATOM     40  C   UNL     1      -6.008  -5.891  19.659  0.00  0.00    +0.000 A 
ATOM     41  C   UNL     1      -4.700  -5.552  19.993  0.00  0.00    +0.000 A 
ATOM     42  C   UNL     1      -4.456  -4.464  20.829  0.00  0.00    +0.000 A 
ATOM     43  C   UNL     1      -5.523  -3.724  21.342  0.00  0.00    +0.000 A 
ATOM     44  H   UNL     1      -8.091  -5.445  19.913  0.00  0.00    +0.000 HD
ATOM     45  H   UNL     1      -6.200  -6.740  19.007  0.00  0.00    +0.000 HD
ATOM     46  H   UNL     1      -3.870  -6.139  19.608  0.00  0.00    +0.000 HD
ATOM     47  H   UNL     1      -3.436  -4.199  21.092  0.00  0.00    +0.000 HD
ATOM     48  H   UNL     1      -5.312  -2.886  22.002  0.00  0.00    +0.000 HD
ENDBRANCH  35  38
ENDBRANCH  30  35
ENDBRANCH  27  30
ENDBRANCH  26  27
ENDBRANCH   5  26
TORSDOF 8
ENDMDL
MODEL 8
REMARK VINA RESULT:    -9.638      2.474      3.526
REMARK INTER + INTRA:         -14.361
REMARK INTER:                 -13.717
REMARK INTRA:                  -0.644
REMARK UNBOUND:                -0.779
REMARK  Name = 
REMARK  8 active torsions:
REMARK  status: ('A' for Active; 'I' for Inactive)
REMARK    1  A    between atoms: C_1  and  C_2
REMARK    2  A    between atoms: C_8  and  C_9
REMARK    3  A    between atoms: C_13  and  O_14
REMARK    4  A    between atoms: O_14  and  C_15
REMARK    5  A    between atoms: C_15  and  C_16
REMARK    6  A    between atoms: C_16  and  N_17
REMARK    7  A    between atoms: C_16  and  C_18
REMARK    8  A    between atoms: C_18  and  C_19
REMARK                            x       y       z     vdW  Elec       q    Type
REMARK                         _______ _______ _______ _____ _____    ______ ____
ROOT
ATOM      1  C   UNL     1     -10.596  -3.332  18.592  0.00  0.00    +0.000 A 
ATOM      2  C   UNL     1     -11.662  -2.870  17.823  0.00  0.00    +0.000 A 
ATOM      3  N   UNL     1     -12.186  -3.521  16.750  0.00  0.00    +0.000 NA
ATOM      4  C   UNL     1     -11.625  -4.709  16.423  0.00  0.00    +0.000 A 
ATOM      5  C   UNL     1     -10.578  -5.281  17.124  0.00  0.00    +0.000 A 
ATOM      6  C   UNL     1     -10.079  -4.582  18.222  0.00  0.00    +0.000 A 
ATOM      7  H   UNL     1     -12.138  -1.917  18.046  0.00  0.00    +0.000 HD
ATOM      8  H   UNL     1     -12.072  -5.180  15.556  0.00  0.00    +0.000 HD
ATOM      9  H   UNL     1      -9.271  -5.038  18.791  0.00  0.00    +0.000 HD
ENDROOT
BRANCH   1  16
ATOM     10  C   UNL     1      -7.320  -2.175  22.316  0.00  0.00    +0.000 A 
ATOM     11  N   UNL     1      -7.359  -1.141  23.167  0.00  0.00    +0.000 NA
ATOM     12  N   UNL     1      -8.462  -0.464  22.804  0.00  0.00    +0.000 N 
ATOM     13  C   UNL     1      -9.138  -1.020  21.755  0.00  0.00    +0.000 A 
ATOM     14  C   UNL     1     -10.289  -0.651  21.081  0.00  0.00    +0.000 A 
ATOM     15  N   UNL     1     -10.720  -1.427  20.053  0.00  0.00    +0.000 NA
ATOM     16  C   UNL     1     -10.035  -2.551  19.707  0.00  0.00    +0.000 A 
ATOM     17  C   UNL     1      -8.863  -2.944  20.355  0.00  0.00    +0.000 A 
ATOM     18  C   UNL     1      -8.414  -2.149  21.412  0.00  0.00    +0.000 A 
ATOM     19  H   UNL     1      -8.699   0.376  23.322  0.00  0.00    +0.000 HD
ATOM     20  H   UNL     1     -10.876   0.227  21.317  0.00  0.00    +0.000 HD
ATOM     21  H   UNL     1      -8.304  -3.822  20.055  0.00  0.00    +0.000 HD
BRANCH  10  22
ATOM     22  C   UNL     1      -6.234  -3.182  22.381  0.00  0.00    +0.000 C 
ATOM     23  H   UNL     1      -5.288  -2.740  22.709  0.00  0.00    +0.000 HD
ATOM     24  H   UNL     1      -6.076  -3.632  21.396  0.00  0.00    +0.000 HD
ATOM     25  H   UNL     1      -6.497  -3.981  23.082  0.00  0.00    +0.000 HD
ENDBRANCH  10  22
ENDBRANCH   1  16
BRANCH   5  26
ATOM     26  O   UNL     1      -9.951  -6.463  16.876  0.00  0.00    +0.000 OA
BRANCH  26  27
ATOM     27  C   UNL     1     -10.257  -7.570  17.730  0.00  0.00    +0.000 C 
ATOM     28  H   UNL     1     -11.174  -7.361  18.293  0.00  0.00    +0.000 HD
ATOM     29  H   UNL     1      -9.427  -7.753  18.422  0.00  0.00    +0.000 HD
BRANCH  27  30
ATOM     30  C   UNL     1     -10.471  -8.803  16.822  0.00  0.00    +0.000 C 
ATOM     31  H   UNL     1     -10.891  -9.608  17.439  0.00  0.00    +0.000 HD
BRANCH  30  32
ATOM     32  N   UNL     1     -11.482  -8.504  15.787  0.00  0.00    +0.000 NA
ATOM     33  H   UNL     1     -11.967  -7.638  16.010  0.00  0.00    +0.000 HD
ATOM     34  H   UNL     1     -12.191  -9.239  15.812  0.00  0.00    +0.000 HD
ENDBRANCH  30  32
BRANCH  30  35
ATOM     35  C   UNL     1      -9.129  -9.264  16.213  0.00  0.00    +0.000 C 
ATOM     36  H   UNL     1      -8.298  -8.799  16.759  0.00  0.00    +0.000 HD
ATOM     37  H   UNL     1      -9.057  -8.895  15.181  0.00  0.00    +0.000 HD
BRANCH  35  38
ATOM     38  C   UNL     1      -8.917 -10.763  16.232  0.00  0.00    +0.000 A 
ATOM     39  C   UNL     1      -8.858 -11.448  17.454  0.00  0.00    +0.000 A 
ATOM     40  C   UNL     1      -8.605 -12.821  17.485  0.00  0.00    +0.000 A 
ATOM     41  C   UNL     1      -8.416 -13.524  16.298  0.00  0.00    +0.000 A 
ATOM     42  C   UNL     1      -8.499 -12.859  15.076  0.00  0.00    +0.000 A 
ATOM     43  C   UNL     1      -8.756 -11.487  15.043  0.00  0.00    +0.000 A 
ATOM     44  H   UNL     1      -8.989 -10.915  18.392  0.00  0.00    +0.000 HD
ATOM     45  H   UNL     1      -8.541 -13.338  18.439  0.00  0.00    +0.000 HD
ATOM     46  H   UNL     1      -8.197 -14.588  16.325  0.00  0.00    +0.000 HD
ATOM     47  H   UNL     1      -8.349 -13.406  14.150  0.00  0.00    +0.000 HD
ATOM     48  H   UNL     1      -8.805 -10.985  14.080  0.00  0.00    +0.000 HD
ENDBRANCH  35  38
ENDBRANCH  30  35
ENDBRANCH  27  30
ENDBRANCH  26  27
ENDBRANCH   5  26
TORSDOF 8
ENDMDL
MODEL 9
REMARK VINA RESULT:    -9.618      2.322      2.965
REMARK INTER + INTRA:         -14.333
REMARK INTER:                 -13.665
REMARK INTRA:                  -0.667
REMARK UNBOUND:                -0.779
REMARK  Name = 
REMARK  8 active torsions:
REMARK  status: ('A' for Active; 'I' for Inactive)
REMARK    1  A    between atoms: C_1  and  C_2
REMARK    2  A    between atoms: C_8  and  C_9
REMARK    3  A    between atoms: C_13  and  O_14
REMARK    4  A    between atoms: O_14  and  C_15
REMARK    5  A    between atoms: C_15  and  C_16
REMARK    6  A    between atoms: C_16  and  N_17
REMARK    7  A    between atoms: C_16  and  C_18
REMARK    8  A    between atoms: C_18  and  C_19
REMARK                            x       y       z     vdW  Elec       q    Type
REMARK                         _______ _______ _______ _____ _____    ______ ____
ROOT
ATOM      1  C   UNL     1      -9.944  -3.540  18.192  0.00  0.00    +0.000 A 
ATOM      2  C   UNL     1     -10.478  -2.467  17.481  0.00  0.00    +0.000 A 
ATOM      3  N   UNL     1     -11.060  -2.559  16.255  0.00  0.00    +0.000 NA
ATOM      4  C   UNL     1     -11.126  -3.793  15.702  0.00  0.00    +0.000 A 
ATOM      5  C   UNL     1     -10.651  -4.937  16.320  0.00  0.00    +0.000 A 
ATOM      6  C   UNL     1     -10.070  -4.796  17.579  0.00  0.00    +0.000 A 
ATOM      7  H   UNL     1     -10.440  -1.457  17.886  0.00  0.00    +0.000 HD
ATOM      8  H   UNL     1     -11.588  -3.809  14.722  0.00  0.00    +0.000 HD
ATOM      9  H   UNL     1      -9.716  -5.694  18.079  0.00  0.00    +0.000 HD
ENDROOT
BRANCH   1  16
ATOM     10  C   UNL     1      -8.882  -1.329  22.655  0.00  0.00    +0.000 A 
ATOM     11  N   UNL     1      -7.985  -1.704  23.577  0.00  0.00    +0.000 NA
ATOM     12  N   UNL     1      -7.432  -2.814  23.058  0.00  0.00    +0.000 N 
ATOM     13  C   UNL     1      -7.934  -3.170  21.839  0.00  0.00    +0.000 A 
ATOM     14  C   UNL     1      -7.656  -4.220  20.981  0.00  0.00    +0.000 A 
ATOM     15  N   UNL     1      -8.341  -4.305  19.811  0.00  0.00    +0.000 NA
ATOM     16  C   UNL     1      -9.272  -3.366  19.490  0.00  0.00    +0.000 A 
ATOM     17  C   UNL     1      -9.589  -2.303  20.338  0.00  0.00    +0.000 A 
ATOM     18  C   UNL     1      -8.888  -2.211  21.544  0.00  0.00    +0.000 A 
ATOM     19  H   UNL     1      -6.709  -3.282  23.594  0.00  0.00    +0.000 HD
ATOM     20  H   UNL     1      -6.921  -4.989  21.181  0.00  0.00    +0.000 HD
ATOM     21  H   UNL     1     -10.354  -1.577  20.093  0.00  0.00    +0.000 HD
BRANCH  10  22
ATOM     22  C   UNL     1      -9.723  -0.123  22.848  0.00  0.00    +0.000 C 
ATOM     23  H   UNL     1     -10.789  -0.352  22.756  0.00  0.00    +0.000 HD
ATOM     24  H   UNL     1      -9.473   0.636  22.100  0.00  0.00    +0.000 HD
ATOM     25  H   UNL     1      -9.551   0.306  23.840  0.00  0.00    +0.000 HD
ENDBRANCH  10  22
ENDBRANCH   1  16
BRANCH   5  26
ATOM     26  O   UNL     1     -10.671  -6.213  15.848  0.00  0.00    +0.000 OA
BRANCH  26  27
ATOM     27  C   UNL     1      -9.545  -7.047  16.139  0.00  0.00    +0.000 C 
ATOM     28  H   UNL     1      -9.086  -6.733  17.084  0.00  0.00    +0.000 HD
ATOM     29  H   UNL     1      -8.810  -6.984  15.328  0.00  0.00    +0.000 HD
BRANCH  27  30
ATOM     30  C   UNL     1     -10.069  -8.496  16.269  0.00  0.00    +0.000 C 
ATOM     31  H   UNL     1      -9.949  -8.807  17.314  0.00  0.00    +0.000 HD
BRANCH  30  32
ATOM     32  N   UNL     1     -11.518  -8.540  15.987  0.00  0.00    +0.000 NA
ATOM     33  H   UNL     1     -12.027  -8.855  16.810  0.00  0.00    +0.000 HD
ATOM     34  H   UNL     1     -11.681  -9.246  15.266  0.00  0.00    +0.000 HD
ENDBRANCH  30  32
BRANCH  30  35
ATOM     35  C   UNL     1      -9.265  -9.444  15.351  0.00  0.00    +0.000 C 
ATOM     36  H   UNL     1      -8.318  -8.966  15.068  0.00  0.00    +0.000 HD
ATOM     37  H   UNL     1      -9.820  -9.594  14.416  0.00  0.00    +0.000 HD
BRANCH  35  38
ATOM     38  C   UNL     1      -8.942 -10.786  15.971  0.00  0.00    +0.000 A 
ATOM     39  C   UNL     1      -8.574 -11.866  15.156  0.00  0.00    +0.000 A 
ATOM     40  C   UNL     1      -8.330 -13.123  15.712  0.00  0.00    +0.000 A 
ATOM     41  C   UNL     1      -8.443 -13.313  17.086  0.00  0.00    +0.000 A 
ATOM     42  C   UNL     1      -8.780 -12.241  17.910  0.00  0.00    +0.000 A 
ATOM     43  C   UNL     1      -9.020 -10.982  17.357  0.00  0.00    +0.000 A 
ATOM     44  H   UNL     1      -8.495 -11.742  14.079  0.00  0.00    +0.000 HD
ATOM     45  H   UNL     1      -8.067 -13.958  15.067  0.00  0.00    +0.000 HD
ATOM     46  H   UNL     1      -8.274 -14.297  17.515  0.00  0.00    +0.000 HD
ATOM     47  H   UNL     1      -8.870 -12.389  18.983  0.00  0.00    +0.000 HD
ATOM     48  H   UNL     1      -9.294 -10.162  18.016  0.00  0.00    +0.000 HD
ENDBRANCH  35  38
ENDBRANCH  30  35
ENDBRANCH  27  30
ENDBRANCH  26  27
ENDBRANCH   5  26
TORSDOF 8
ENDMDL
