
 OpenBabel01112422393D

 39 42  0  0  0  0  0  0  0  0999 V2000
    1.5191   -0.2437    1.0162 O   0  0  0  0  0  0  0  0  0  0  0  0
    2.4891   -0.0486   -0.0463 S   0  0  0  0  0  0  0  0  0  0  0  0
    3.6861   -0.8661   -0.0993 O   0  0  0  0  0  0  0  0  0  0  0  0
    1.7105   -0.3245   -1.6029 C   0  0  0  0  0  0  0  0  0  0  0  0
    0.7723   -1.3728   -1.6222 C   0  0  0  0  0  0  0  0  0  0  0  0
    0.1248   -1.7093   -2.8058 C   0  0  0  0  0  0  0  0  0  0  0  0
   -1.0051   -3.0033   -2.8255 Cl  0  0  0  0  0  0  0  0  0  0  0  0
    0.3989   -1.0091   -3.9744 C   0  0  0  0  0  0  0  0  0  0  0  0
    1.3463    0.0172   -3.9612 C   0  0  0  0  0  0  0  0  0  0  0  0
    2.0255    0.3530   -2.7817 C   0  0  0  0  0  0  0  0  0  0  0  0
    3.2618    1.5406   -2.9459 Cl  0  0  0  0  0  0  0  0  0  0  0  0
    2.9866    1.5769    0.1185 N   0  0  0  0  0  0  0  0  0  0  0  0
    4.2799    1.9617    0.4537 C   0  0  0  0  0  0  0  0  0  0  0  0
    5.4607    1.2366    0.7332 C   0  0  0  0  0  0  0  0  0  0  0  0
    6.6353    1.9492    0.9546 C   0  0  0  0  0  0  0  0  0  0  0  0
    7.8219    1.3051    1.1865 O   0  0  0  0  0  0  0  0  0  0  0  0
    6.6460    3.3343    0.9351 C   0  0  0  0  0  0  0  0  0  0  0  0
    7.8180    4.0053    1.1429 O   0  0  0  0  0  0  0  0  0  0  0  0
    5.4845    4.0576    0.7027 C   0  0  0  0  0  0  0  0  0  0  0  0
    4.2795    3.3624    0.4551 C   0  0  0  0  0  0  0  0  0  0  0  0
    2.9487    3.8026    0.1741 C   0  0  0  0  0  0  0  0  0  0  0  0
    2.3739    5.0898    0.0478 C   0  0  0  0  0  0  0  0  0  0  0  0
    1.0210    5.2343   -0.2690 C   0  0  0  0  0  0  0  0  0  0  0  0
    0.2473    4.1035   -0.4565 C   0  0  0  0  0  0  0  0  0  0  0  0
   -1.0790    4.1942   -0.7908 O   0  0  0  0  0  0  0  0  0  0  0  0
    0.7887    2.8183   -0.3342 C   0  0  0  0  0  0  0  0  0  0  0  0
   -0.0294    1.7462   -0.5797 O   0  0  0  0  0  0  0  0  0  0  0  0
    2.1464    2.6691   -0.0155 C   0  0  0  0  0  0  0  0  0  0  0  0
    0.5623   -1.9366   -0.7137 H   0  0  0  0  0  0  0  0  0  0  0  0
   -0.1047   -1.2668   -4.9026 H   0  0  0  0  0  0  0  0  0  0  0  0
    1.5668    0.5426   -4.8888 H   0  0  0  0  0  0  0  0  0  0  0  0
    5.4784    0.1540    0.7616 H   0  0  0  0  0  0  0  0  0  0  0  0
    7.6564    0.3461    1.1394 H   0  0  0  0  0  0  0  0  0  0  0  0
    8.4829    3.2980    1.2673 H   0  0  0  0  0  0  0  0  0  0  0  0
    5.5152    5.1426    0.6995 H   0  0  0  0  0  0  0  0  0  0  0  0
    2.9932    5.9738    0.1854 H   0  0  0  0  0  0  0  0  0  0  0  0
    0.6076    6.2321   -0.3758 H   0  0  0  0  0  0  0  0  0  0  0  0
   -1.3218    5.1359   -0.8163 H   0  0  0  0  0  0  0  0  0  0  0  0
   -0.9107    2.1419   -0.7481 H   0  0  0  0  0  0  0  0  0  0  0  0
  1  2  2  0  0  0  0
  2  3  2  0  0  0  0
  2  4  1  0  0  0  0
  2 12  1  0  0  0  0
  4  5  1  0  0  0  0
  4 10  2  0  0  0  0
  5  6  2  0  0  0  0
  5 29  1  0  0  0  0
  6  7  1  0  0  0  0
  6  8  1  0  0  0  0
  8  9  2  0  0  0  0
  8 30  1  0  0  0  0
  9 10  1  0  0  0  0
  9 31  1  0  0  0  0
 10 11  1  0  0  0  0
 12 13  1  0  0  0  0
 12 28  1  0  0  0  0
 13 14  1  0  0  0  0
 13 20  2  0  0  0  0
 14 15  2  0  0  0  0
 14 32  1  0  0  0  0
 15 16  1  0  0  0  0
 15 17  1  0  0  0  0
 16 33  1  0  0  0  0
 17 18  1  0  0  0  0
 17 19  2  0  0  0  0
 18 34  1  0  0  0  0
 19 20  1  0  0  0  0
 19 35  1  0  0  0  0
 20 21  1  0  0  0  0
 21 22  1  0  0  0  0
 21 28  2  0  0  0  0
 22 23  2  0  0  0  0
 22 36  1  0  0  0  0
 23 24  1  0  0  0  0
 23 37  1  0  0  0  0
 24 25  1  0  0  0  0
 24 26  2  0  0  0  0
 25 38  1  0  0  0  0
 26 27  1  0  0  0  0
 26 28  1  0  0  0  0
 27 39  1  0  0  0  0
M  END
$$$$
