REMARK  Name = 
REMARK  6 active torsions:
REMARK  status: ('A' for Active; 'I' for Inactive)
REMARK    1  A    between atoms: C_6  and  C_7
REMARK    2  A    between atoms: N_9  and  C_10
REMARK    3  A    between atoms: C_10  and  C_11
REMARK    4  A    between atoms: C_11  and  C_12
REMARK    5  A    between atoms: C_12  and  O_13
REMARK    6  A    between atoms: C_20  and  C_21
REMARK                            x       y       z     vdW  Elec       q    Type
REMARK                         _______ _______ _______ _____ _____    ______ ____
ROOT
ATOM      1  C   UNL     1      -0.033   0.306   1.567  0.00  0.00    +0.000 A 
ATOM      2  C   UNL     1       0.979   0.179   2.505  0.00  0.00    +0.000 A 
ATOM      3  N   UNL     1       1.911  -0.573   1.824  0.00  0.00    +0.000 N 
ATOM      4  C   UNL     1       1.094  -1.633   1.446  0.00  0.00    +0.000 A 
ATOM      5  C   UNL     1       1.237  -3.013   1.563  0.00  0.00    +0.000 A 
ATOM      6  C   UNL     1       0.323  -3.787   0.854  0.00  0.00    +0.000 A 
ATOM      7  C   UNL     1      -0.719  -3.192   0.139  0.00  0.00    +0.000 A 
ATOM      8  C   UNL     1      -0.968  -1.805   0.233  0.00  0.00    +0.000 A 
ATOM      9  C   UNL     1      -0.074  -1.008   0.975  0.00  0.00    +0.000 A 
ATOM     10  H   UNL     1       1.138   0.543   3.512  0.00  0.00    +0.000 HD
ATOM     11  H   UNL     1       1.993  -3.451   2.205  0.00  0.00    +0.000 HD
ATOM     12  H   UNL     1       0.422  -4.870   0.873  0.00  0.00    +0.000 HD
ATOM     13  H   UNL     1      -1.400  -3.824  -0.426  0.00  0.00    +0.000 HD
ATOM     14  H   UNL     1      -1.893  -1.415  -0.170  0.00  0.00    +0.000 HD
ENDROOT
BRANCH   1  20
ATOM     15  O   UNL     1      -2.288   4.230  -0.022  0.00  0.00    +0.000 OA
ATOM     16  C   UNL     1      -1.821   3.391   0.733  0.00  0.00    +0.000 C 
ATOM     17  N   UNL     1      -1.654   3.531   2.047  0.00  0.00    +0.000 N 
ATOM     18  C   UNL     1      -1.027   2.448   2.567  0.00  0.00    +0.000 C 
ATOM     19  O   UNL     1      -0.667   2.342   3.723  0.00  0.00    +0.000 OA
ATOM     20  C   UNL     1      -0.826   1.483   1.464  0.00  0.00    +0.000 C 
ATOM     21  C   UNL     1      -1.314   2.050   0.347  0.00  0.00    +0.000 C 
ATOM     22  H   UNL     1      -1.867   4.362   2.578  0.00  0.00    +0.000 HD
BRANCH  21  23
ATOM     23  C   UNL     1      -1.335   1.598  -0.992  0.00  0.00    +0.000 A 
ATOM     24  C   UNL     1      -0.345   1.761  -1.936  0.00  0.00    +0.000 A 
ATOM     25  N   UNL     1      -0.824   1.244  -3.119  0.00  0.00    +0.000 N 
ATOM     26  C   UNL     1      -2.109   0.781  -2.947  0.00  0.00    +0.000 A 
ATOM     27  C   UNL     1      -3.011   0.228  -3.864  0.00  0.00    +0.000 A 
ATOM     28  C   UNL     1      -4.268  -0.161  -3.383  0.00  0.00    +0.000 A 
ATOM     29  C   UNL     1      -4.608  -0.015  -2.040  0.00  0.00    +0.000 A 
ATOM     30  C   UNL     1      -3.707   0.551  -1.140  0.00  0.00    +0.000 A 
ATOM     31  C   UNL     1      -2.442   0.968  -1.608  0.00  0.00    +0.000 A 
ATOM     32  H   UNL     1       0.638   2.203  -1.891  0.00  0.00    +0.000 HD
ATOM     33  H   UNL     1      -0.334   1.256  -4.011  0.00  0.00    +0.000 HD
ATOM     34  H   UNL     1      -2.761   0.119  -4.915  0.00  0.00    +0.000 HD
ATOM     35  H   UNL     1      -4.996  -0.583  -4.072  0.00  0.00    +0.000 HD
ATOM     36  H   UNL     1      -5.584  -0.333  -1.684  0.00  0.00    +0.000 HD
ATOM     37  H   UNL     1      -3.977   0.670  -0.095  0.00  0.00    +0.000 HD
ENDBRANCH  21  23
ENDBRANCH   1  20
BRANCH   3  38
ATOM     38  C   UNL     1       2.763   0.119   0.815  0.00  0.00    +0.000 C 
ATOM     39  H   UNL     1       2.572   1.198   0.913  0.00  0.00    +0.000 HD
ATOM     40  H   UNL     1       2.419  -0.167  -0.191  0.00  0.00    +0.000 HD
BRANCH  38  41
ATOM     41  C   UNL     1       4.257  -0.103   0.954  0.00  0.00    +0.000 C 
ATOM     42  H   UNL     1       4.598   0.174   1.957  0.00  0.00    +0.000 HD
ATOM     43  H   UNL     1       4.786   0.573   0.265  0.00  0.00    +0.000 HD
BRANCH  41  44
ATOM     44  C   UNL     1       4.648  -1.531   0.629  0.00  0.00    +0.000 C 
ATOM     45  H   UNL     1       4.377  -1.794  -0.399  0.00  0.00    +0.000 HD
ATOM     46  H   UNL     1       4.157  -2.232   1.307  0.00  0.00    +0.000 HD
BRANCH  44  47
ATOM     47  O   UNL     1       6.051  -1.689   0.784  0.00  0.00    +0.000 OA
ATOM     48  H   UNL     1       6.490  -1.126   0.124  0.00  0.00    +0.000 HD
ENDBRANCH  44  47
ENDBRANCH  41  44
ENDBRANCH  38  41
ENDBRANCH   3  38
TORSDOF 6
