MODEL 1
REMARK VINA RESULT:   -11.012      0.000      0.000
REMARK INTER + INTRA:         -13.680
REMARK INTER:                 -13.265
REMARK INTRA:                  -0.414
REMARK UNBOUND:                -0.414
REMARK  Name = 
REMARK  4 active torsions:
REMARK  status: ('A' for Active; 'I' for Inactive)
REMARK    1  A    between atoms: C_1  and  N_2
REMARK    2  A    between atoms: C_12  and  C_13
REMARK    3  A    between atoms: C_13  and  C_14
REMARK    4  A    between atoms: C_14  and  N_15
REMARK                            x       y       z     vdW  Elec       q    Type
REMARK                         _______ _______ _______ _____ _____    ______ ____
ROOT
ATOM      1  N   UNL     1     -11.752   0.929  18.678  0.00  0.00    +0.000 N 
ATOM      2  C   UNL     1     -12.434   1.606  17.649  0.00  0.00    +0.000 A 
ATOM      3  C   UNL     1     -11.853   1.057  16.527  0.00  0.00    +0.000 A 
ATOM      4  C   UNL     1     -11.985  -0.309  16.908  0.00  0.00    +0.000 A 
ATOM      5  C   UNL     1     -12.292  -1.448  16.155  0.00  0.00    +0.000 A 
ATOM      6  C   UNL     1     -12.006  -2.681  16.675  0.00  0.00    +0.000 A 
ATOM      7  C   UNL     1     -11.220  -2.720  17.825  0.00  0.00    +0.000 A 
ATOM      8  C   UNL     1     -10.501  -3.886  18.017  0.00  0.00    +0.000 A 
ATOM      9  N   UNL     1     -10.596  -5.152  17.504  0.00  0.00    +0.000 N 
ATOM     10  C   UNL     1      -9.860  -6.032  18.269  0.00  0.00    +0.000 A 
ATOM     11  C   UNL     1      -9.947  -7.433  18.313  0.00  0.00    +0.000 A 
ATOM     12  C   UNL     1      -9.128  -8.079  19.249  0.00  0.00    +0.000 A 
ATOM     13  C   UNL     1      -8.225  -7.375  20.034  0.00  0.00    +0.000 A 
ATOM     14  C   UNL     1      -8.152  -5.967  19.948  0.00  0.00    +0.000 A 
ATOM     15  C   UNL     1      -8.998  -5.297  19.098  0.00  0.00    +0.000 A 
ATOM     16  C   UNL     1      -9.398  -3.972  18.834  0.00  0.00    +0.000 A 
ATOM     17  C   UNL     1      -9.114  -2.895  19.716  0.00  0.00    +0.000 A 
ATOM     18  C   UNL     1     -10.192  -1.962  19.824  0.00  0.00    +0.000 A 
ATOM     19  C   UNL     1     -11.034  -1.631  18.736  0.00  0.00    +0.000 A 
ATOM     20  C   UNL     1     -11.553  -0.388  18.267  0.00  0.00    +0.000 A 
ATOM     21  C   UNL     1     -10.485  -2.078  21.245  0.00  0.00    +0.000 C 
ATOM     22  O   UNL     1     -11.542  -2.178  21.859  0.00  0.00    +0.000 OA
ATOM     23  N   UNL     1      -9.274  -2.436  21.810  0.00  0.00    +0.000 N 
ATOM     24  C   UNL     1      -8.361  -2.914  20.918  0.00  0.00    +0.000 C 
ATOM     25  O   UNL     1      -7.234  -3.280  21.215  0.00  0.00    +0.000 OA
ATOM     26  H   UNL     1     -13.490   1.776  17.828  0.00  0.00    +0.000 HD
ATOM     27  H   UNL     1     -10.864   1.406  16.218  0.00  0.00    +0.000 HD
ATOM     28  H   UNL     1     -12.688  -1.346  15.150  0.00  0.00    +0.000 HD
ATOM     29  H   UNL     1     -12.231  -3.554  16.083  0.00  0.00    +0.000 HD
ATOM     30  H   UNL     1     -11.306  -5.443  16.849  0.00  0.00    +0.000 HD
ATOM     31  H   UNL     1      -9.187  -9.153  19.390  0.00  0.00    +0.000 HD
ATOM     32  H   UNL     1      -7.619  -7.902  20.772  0.00  0.00    +0.000 HD
ATOM     33  H   UNL     1      -7.447  -5.478  20.607  0.00  0.00    +0.000 HD
ATOM     34  H   UNL     1      -9.230  -2.830  22.740  0.00  0.00    +0.000 HD
ENDROOT
BRANCH   1  35
ATOM     35  C   UNL     1     -11.680   1.572  19.967  0.00  0.00    +0.000 C 
ATOM     36  H   UNL     1     -12.365   2.418  19.978  0.00  0.00    +0.000 HD
ATOM     37  H   UNL     1     -10.649   1.837  20.192  0.00  0.00    +0.000 HD
ATOM     38  H   UNL     1     -12.028   0.845  20.719  0.00  0.00    +0.000 HD
ENDBRANCH   1  35
BRANCH  11  39
ATOM     39  C   UNL     1     -10.947  -8.134  17.413  0.00  0.00    +0.000 C 
ATOM     40  H   UNL     1     -11.816  -7.468  17.305  0.00  0.00    +0.000 HD
ATOM     41  H   UNL     1     -11.288  -9.026  17.953  0.00  0.00    +0.000 HD
BRANCH  39  42
ATOM     42  C   UNL     1     -10.465  -8.551  16.021  0.00  0.00    +0.000 C 
ATOM     43  H   UNL     1     -10.079  -7.670  15.494  0.00  0.00    +0.000 HD
ATOM     44  H   UNL     1     -11.338  -8.913  15.464  0.00  0.00    +0.000 HD
BRANCH  42  45
ATOM     45  N   UNL     1      -9.456  -9.633  16.025  0.00  0.00    +0.000 NA
ATOM     46  C   UNL     1      -9.919 -10.701  16.930  0.00  0.00    +0.000 C 
ATOM     47  C   UNL     1      -8.900 -11.831  17.043  0.00  0.00    +0.000 C 
ATOM     48  C   UNL     1      -8.558 -12.403  15.675  0.00  0.00    +0.000 C 
ATOM     49  C   UNL     1      -8.133 -11.287  14.732  0.00  0.00    +0.000 C 
ATOM     50  C   UNL     1      -9.176 -10.167  14.683  0.00  0.00    +0.000 C 
ATOM     51  H   UNL     1     -10.879 -11.106  16.583  0.00  0.00    +0.000 HD
ATOM     52  H   UNL     1     -10.084 -10.288  17.933  0.00  0.00    +0.000 HD
ATOM     53  H   UNL     1      -9.302 -12.623  17.685  0.00  0.00    +0.000 HD
ATOM     54  H   UNL     1      -7.988 -11.457  17.525  0.00  0.00    +0.000 HD
ATOM     55  H   UNL     1      -9.433 -12.919  15.262  0.00  0.00    +0.000 HD
ATOM     56  H   UNL     1      -7.758 -13.145  15.767  0.00  0.00    +0.000 HD
ATOM     57  H   UNL     1      -7.976 -11.691  13.726  0.00  0.00    +0.000 HD
ATOM     58  H   UNL     1      -7.170 -10.877  15.063  0.00  0.00    +0.000 HD
ATOM     59  H   UNL     1     -10.093 -10.535  14.210  0.00  0.00    +0.000 HD
ATOM     60  H   UNL     1      -8.763  -9.384  14.037  0.00  0.00    +0.000 HD
ENDBRANCH  42  45
ENDBRANCH  39  42
ENDBRANCH  11  39
TORSDOF 4
ENDMDL
MODEL 2
REMARK VINA RESULT:   -11.008      1.769      2.432
REMARK INTER + INTRA:         -13.675
REMARK INTER:                 -13.336
REMARK INTRA:                  -0.338
REMARK UNBOUND:                -0.414
REMARK  Name = 
REMARK  4 active torsions:
REMARK  status: ('A' for Active; 'I' for Inactive)
REMARK    1  A    between atoms: C_1  and  N_2
REMARK    2  A    between atoms: C_12  and  C_13
REMARK    3  A    between atoms: C_13  and  C_14
REMARK    4  A    between atoms: C_14  and  N_15
REMARK                            x       y       z     vdW  Elec       q    Type
REMARK                         _______ _______ _______ _____ _____    ______ ____
ROOT
ATOM      1  N   UNL     1     -11.761  -0.898  15.768  0.00  0.00    +0.000 N 
ATOM      2  C   UNL     1     -12.150  -0.566  14.456  0.00  0.00    +0.000 A 
ATOM      3  C   UNL     1     -11.223  -1.261  13.711  0.00  0.00    +0.000 A 
ATOM      4  C   UNL     1     -11.367  -2.515  14.371  0.00  0.00    +0.000 A 
ATOM      5  C   UNL     1     -11.355  -3.823  13.873  0.00  0.00    +0.000 A 
ATOM      6  C   UNL     1     -11.153  -4.859  14.744  0.00  0.00    +0.000 A 
ATOM      7  C   UNL     1     -10.746  -4.534  16.036  0.00  0.00    +0.000 A 
ATOM      8  C   UNL     1     -10.038  -5.518  16.704  0.00  0.00    +0.000 A 
ATOM      9  N   UNL     1      -9.887  -6.866  16.519  0.00  0.00    +0.000 N 
ATOM     10  C   UNL     1      -9.354  -7.445  17.652  0.00  0.00    +0.000 A 
ATOM     11  C   UNL     1      -9.353  -8.800  18.020  0.00  0.00    +0.000 A 
ATOM     12  C   UNL     1      -8.809  -9.104  19.275  0.00  0.00    +0.000 A 
ATOM     13  C   UNL     1      -8.234  -8.126  20.075  0.00  0.00    +0.000 A 
ATOM     14  C   UNL     1      -8.236  -6.776  19.662  0.00  0.00    +0.000 A 
ATOM     15  C   UNL     1      -8.833  -6.433  18.473  0.00  0.00    +0.000 A 
ATOM     16  C   UNL     1      -9.227  -5.268  17.786  0.00  0.00    +0.000 A 
ATOM     17  C   UNL     1      -9.295  -3.994  18.413  0.00  0.00    +0.000 A 
ATOM     18  C   UNL     1     -10.419  -3.220  17.984  0.00  0.00    +0.000 A 
ATOM     19  C   UNL     1     -10.917  -3.257  16.661  0.00  0.00    +0.000 A 
ATOM     20  C   UNL     1     -11.358  -2.232  15.771  0.00  0.00    +0.000 A 
ATOM     21  C   UNL     1     -11.115  -3.061  19.253  0.00  0.00    +0.000 C 
ATOM     22  O   UNL     1     -12.297  -3.171  19.558  0.00  0.00    +0.000 OA
ATOM     23  N   UNL     1     -10.106  -3.113  20.198  0.00  0.00    +0.000 N 
ATOM     24  C   UNL     1      -8.938  -3.644  19.740  0.00  0.00    +0.000 C 
ATOM     25  O   UNL     1      -7.929  -3.774  20.416  0.00  0.00    +0.000 OA
ATOM     26  H   UNL     1     -13.220  -0.510  14.290  0.00  0.00    +0.000 HD
ATOM     27  H   UNL     1     -10.213  -0.854  13.607  0.00  0.00    +0.000 HD
ATOM     28  H   UNL     1     -11.437  -4.000  12.806  0.00  0.00    +0.000 HD
ATOM     29  H   UNL     1     -11.129  -5.864  14.351  0.00  0.00    +0.000 HD
ATOM     30  H   UNL     1     -10.347  -7.390  15.789  0.00  0.00    +0.000 HD
ATOM     31  H   UNL     1      -8.833 -10.119  19.659  0.00  0.00    +0.000 HD
ATOM     32  H   UNL     1      -7.841  -8.388  21.058  0.00  0.00    +0.000 HD
ATOM     33  H   UNL     1      -7.796  -6.060  20.344  0.00  0.00    +0.000 HD
ATOM     34  H   UNL     1     -10.315  -3.284  21.172  0.00  0.00    +0.000 HD
ENDROOT
BRANCH   1  35
ATOM     35  C   UNL     1     -12.123   0.016  16.823  0.00  0.00    +0.000 C 
ATOM     36  H   UNL     1     -13.042   0.529  16.546  0.00  0.00    +0.000 HD
ATOM     37  H   UNL     1     -11.292   0.684  17.036  0.00  0.00    +0.000 HD
ATOM     38  H   UNL     1     -12.330  -0.584  17.725  0.00  0.00    +0.000 HD
ENDBRANCH   1  35
BRANCH  11  39
ATOM     39  C   UNL     1      -9.987  -9.814  17.086  0.00  0.00    +0.000 C 
ATOM     40  H   UNL     1     -10.862  -9.334  16.623  0.00  0.00    +0.000 HD
ATOM     41  H   UNL     1     -10.362 -10.632  17.714  0.00  0.00    +0.000 HD
BRANCH  39  42
ATOM     42  C   UNL     1      -9.101 -10.402  15.984  0.00  0.00    +0.000 C 
ATOM     43  H   UNL     1      -8.260  -9.722  15.796  0.00  0.00    +0.000 HD
ATOM     44  H   UNL     1      -9.700 -10.447  15.067  0.00  0.00    +0.000 HD
BRANCH  42  45
ATOM     45  N   UNL     1      -8.607 -11.768  16.264  0.00  0.00    +0.000 NA
ATOM     46  C   UNL     1      -9.192 -12.225  17.538  0.00  0.00    +0.000 C 
ATOM     47  C   UNL     1      -8.680 -13.606  17.936  0.00  0.00    +0.000 C 
ATOM     48  C   UNL     1      -8.937 -14.626  16.836  0.00  0.00    +0.000 C 
ATOM     49  C   UNL     1      -8.376 -14.123  15.513  0.00  0.00    +0.000 C 
ATOM     50  C   UNL     1      -8.898 -12.721  15.182  0.00  0.00    +0.000 C 
ATOM     51  H   UNL     1     -10.288 -12.246  17.469  0.00  0.00    +0.000 HD
ATOM     52  H   UNL     1      -8.930 -11.521  18.337  0.00  0.00    +0.000 HD
ATOM     53  H   UNL     1      -9.175 -13.927  18.860  0.00  0.00    +0.000 HD
ATOM     54  H   UNL     1      -7.605 -13.554  18.146  0.00  0.00    +0.000 HD
ATOM     55  H   UNL     1     -10.015 -14.798  16.736  0.00  0.00    +0.000 HD
ATOM     56  H   UNL     1      -8.480 -15.586  17.099  0.00  0.00    +0.000 HD
ATOM     57  H   UNL     1      -8.644 -14.817  14.709  0.00  0.00    +0.000 HD
ATOM     58  H   UNL     1      -7.280 -14.104  15.566  0.00  0.00    +0.000 HD
ATOM     59  H   UNL     1      -9.973 -12.764  14.977  0.00  0.00    +0.000 HD
ATOM     60  H   UNL     1      -8.398 -12.414  14.256  0.00  0.00    +0.000 HD
ENDBRANCH  42  45
ENDBRANCH  39  42
ENDBRANCH  11  39
TORSDOF 4
ENDMDL
MODEL 3
REMARK VINA RESULT:   -10.625      0.956      1.175
REMARK INTER + INTRA:         -13.213
REMARK INTER:                 -12.967
REMARK INTRA:                  -0.247
REMARK UNBOUND:                -0.414
REMARK  Name = 
REMARK  4 active torsions:
REMARK  status: ('A' for Active; 'I' for Inactive)
REMARK    1  A    between atoms: C_1  and  N_2
REMARK    2  A    between atoms: C_12  and  C_13
REMARK    3  A    between atoms: C_13  and  C_14
REMARK    4  A    between atoms: C_14  and  N_15
REMARK                            x       y       z     vdW  Elec       q    Type
REMARK                         _______ _______ _______ _____ _____    ______ ____
ROOT
ATOM      1  N   UNL     1     -11.557   1.367  20.357  0.00  0.00    +0.000 N 
ATOM      2  C   UNL     1     -12.165   2.284  19.478  0.00  0.00    +0.000 A 
ATOM      3  C   UNL     1     -11.453   2.066  18.319  0.00  0.00    +0.000 A 
ATOM      4  C   UNL     1     -11.560   0.646  18.307  0.00  0.00    +0.000 A 
ATOM      5  C   UNL     1     -11.741  -0.254  17.251  0.00  0.00    +0.000 A 
ATOM      6  C   UNL     1     -11.453  -1.576  17.453  0.00  0.00    +0.000 A 
ATOM      7  C   UNL     1     -10.783  -1.909  18.628  0.00  0.00    +0.000 A 
ATOM      8  C   UNL     1     -10.035  -3.073  18.579  0.00  0.00    +0.000 A 
ATOM      9  N   UNL     1     -10.022  -4.155  17.742  0.00  0.00    +0.000 N 
ATOM     10  C   UNL     1      -9.327  -5.197  18.320  0.00  0.00    +0.000 A 
ATOM     11  C   UNL     1      -9.356  -6.559  17.981  0.00  0.00    +0.000 A 
ATOM     12  C   UNL     1      -8.604  -7.419  18.794  0.00  0.00    +0.000 A 
ATOM     13  C   UNL     1      -7.815  -6.937  19.829  0.00  0.00    +0.000 A 
ATOM     14  C   UNL     1      -7.797  -5.557  20.128  0.00  0.00    +0.000 A 
ATOM     15  C   UNL     1      -8.584  -4.697  19.401  0.00  0.00    +0.000 A 
ATOM     16  C   UNL     1      -9.014  -3.357  19.456  0.00  0.00    +0.000 A 
ATOM     17  C   UNL     1      -8.867  -2.551  20.618  0.00  0.00    +0.000 A 
ATOM     18  C   UNL     1      -9.991  -1.699  20.854  0.00  0.00    +0.000 A 
ATOM     19  C   UNL     1     -10.735  -1.103  19.810  0.00  0.00    +0.000 A 
ATOM     20  C   UNL     1     -11.261   0.212  19.635  0.00  0.00    +0.000 A 
ATOM     21  C   UNL     1     -10.416  -2.198  22.154  0.00  0.00    +0.000 C 
ATOM     22  O   UNL     1     -11.523  -2.477  22.603  0.00  0.00    +0.000 OA
ATOM     23  N   UNL     1      -9.252  -2.674  22.729  0.00  0.00    +0.000 N 
ATOM     24  C   UNL     1      -8.235  -2.880  21.845  0.00  0.00    +0.000 C 
ATOM     25  O   UNL     1      -7.128  -3.293  22.153  0.00  0.00    +0.000 OA
ATOM     26  H   UNL     1     -13.240   2.382  19.582  0.00  0.00    +0.000 HD
ATOM     27  H   UNL     1     -10.455   2.502  18.220  0.00  0.00    +0.000 HD
ATOM     28  H   UNL     1     -12.040   0.108  16.273  0.00  0.00    +0.000 HD
ATOM     29  H   UNL     1     -11.580  -2.262  16.629  0.00  0.00    +0.000 HD
ATOM     30  H   UNL     1     -10.651  -4.271  16.961  0.00  0.00    +0.000 HD
ATOM     31  H   UNL     1      -8.629  -8.492  18.637  0.00  0.00    +0.000 HD
ATOM     32  H   UNL     1      -7.262  -7.632  20.461  0.00  0.00    +0.000 HD
ATOM     33  H   UNL     1      -7.182  -5.251  20.964  0.00  0.00    +0.000 HD
ATOM     34  H   UNL     1      -9.282  -3.303  23.520  0.00  0.00    +0.000 HD
ENDROOT
BRANCH   1  35
ATOM     35  C   UNL     1     -11.642   1.642  21.771  0.00  0.00    +0.000 C 
ATOM     36  H   UNL     1     -10.637   1.786  22.163  0.00  0.00    +0.000 HD
ATOM     37  H   UNL     1     -12.200   0.852  22.268  0.00  0.00    +0.000 HD
ATOM     38  H   UNL     1     -12.191   2.590  21.891  0.00  0.00    +0.000 HD
ENDBRANCH   1  35
BRANCH  11  39
ATOM     39  C   UNL     1     -10.231  -7.009  16.826  0.00  0.00    +0.000 C 
ATOM     40  H   UNL     1      -9.682  -6.800  15.896  0.00  0.00    +0.000 HD
ATOM     41  H   UNL     1     -11.118  -6.363  16.831  0.00  0.00    +0.000 HD
BRANCH  39  42
ATOM     42  C   UNL     1     -10.683  -8.472  16.819  0.00  0.00    +0.000 C 
ATOM     43  H   UNL     1     -11.579  -8.569  16.191  0.00  0.00    +0.000 HD
ATOM     44  H   UNL     1     -10.969  -8.735  17.844  0.00  0.00    +0.000 HD
BRANCH  42  45
ATOM     45  N   UNL     1      -9.643  -9.429  16.384  0.00  0.00    +0.000 NA
ATOM     46  C   UNL     1      -9.772 -10.658  17.187  0.00  0.00    +0.000 C 
ATOM     47  C   UNL     1      -8.689 -11.677  16.845  0.00  0.00    +0.000 C 
ATOM     48  C   UNL     1      -8.695 -12.009  15.360  0.00  0.00    +0.000 C 
ATOM     49  C   UNL     1      -8.614 -10.731  14.537  0.00  0.00    +0.000 C 
ATOM     50  C   UNL     1      -9.703  -9.733  14.946  0.00  0.00    +0.000 C 
ATOM     51  H   UNL     1     -10.762 -11.110  17.037  0.00  0.00    +0.000 HD
ATOM     52  H   UNL     1      -9.685 -10.413  18.252  0.00  0.00    +0.000 HD
ATOM     53  H   UNL     1      -8.850 -12.591  17.429  0.00  0.00    +0.000 HD
ATOM     54  H   UNL     1      -7.707 -11.281  17.131  0.00  0.00    +0.000 HD
ATOM     55  H   UNL     1      -9.613 -12.551  15.106  0.00  0.00    +0.000 HD
ATOM     56  H   UNL     1      -7.853 -12.667  15.118  0.00  0.00    +0.000 HD
ATOM     57  H   UNL     1      -8.711 -10.968  13.472  0.00  0.00    +0.000 HD
ATOM     58  H   UNL     1      -7.627 -10.272  14.672  0.00  0.00    +0.000 HD
ATOM     59  H   UNL     1     -10.688 -10.126  14.670  0.00  0.00    +0.000 HD
ATOM     60  H   UNL     1      -9.532  -8.827  14.354  0.00  0.00    +0.000 HD
ENDBRANCH  42  45
ENDBRANCH  39  42
ENDBRANCH  11  39
TORSDOF 4
ENDMDL
MODEL 4
REMARK VINA RESULT:   -10.354      2.226      2.993
REMARK INTER + INTRA:         -12.886
REMARK INTER:                 -12.691
REMARK INTRA:                  -0.196
REMARK UNBOUND:                -0.414
REMARK  Name = 
REMARK  4 active torsions:
REMARK  status: ('A' for Active; 'I' for Inactive)
REMARK    1  A    between atoms: C_1  and  N_2
REMARK    2  A    between atoms: C_12  and  C_13
REMARK    3  A    between atoms: C_13  and  C_14
REMARK    4  A    between atoms: C_14  and  N_15
REMARK                            x       y       z     vdW  Elec       q    Type
REMARK                         _______ _______ _______ _____ _____    ______ ____
ROOT
ATOM      1  N   UNL     1      -9.849   0.663  23.191  0.00  0.00    +0.000 N 
ATOM      2  C   UNL     1     -10.771   1.682  22.883  0.00  0.00    +0.000 A 
ATOM      3  C   UNL     1     -10.664   1.742  21.511  0.00  0.00    +0.000 A 
ATOM      4  C   UNL     1     -10.793   0.346  21.259  0.00  0.00    +0.000 A 
ATOM      5  C   UNL     1     -11.450  -0.347  20.237  0.00  0.00    +0.000 A 
ATOM      6  C   UNL     1     -11.128  -1.659  20.015  0.00  0.00    +0.000 A 
ATOM      7  C   UNL     1     -10.005  -2.157  20.672  0.00  0.00    +0.000 A 
ATOM      8  C   UNL     1      -9.383  -3.231  20.058  0.00  0.00    +0.000 A 
ATOM      9  N   UNL     1      -9.772  -4.130  19.103  0.00  0.00    +0.000 N 
ATOM     10  C   UNL     1      -8.910  -5.208  19.084  0.00  0.00    +0.000 A 
ATOM     11  C   UNL     1      -9.116  -6.479  18.525  0.00  0.00    +0.000 A 
ATOM     12  C   UNL     1      -8.095  -7.418  18.722  0.00  0.00    +0.000 A 
ATOM     13  C   UNL     1      -6.914  -7.084  19.370  0.00  0.00    +0.000 A 
ATOM     14  C   UNL     1      -6.735  -5.789  19.903  0.00  0.00    +0.000 A 
ATOM     15  C   UNL     1      -7.749  -4.868  19.796  0.00  0.00    +0.000 A 
ATOM     16  C   UNL     1      -8.082  -3.599  20.309  0.00  0.00    +0.000 A 
ATOM     17  C   UNL     1      -7.408  -3.021  21.419  0.00  0.00    +0.000 A 
ATOM     18  C   UNL     1      -8.288  -2.316  22.300  0.00  0.00    +0.000 A 
ATOM     19  C   UNL     1      -9.412  -1.589  21.844  0.00  0.00    +0.000 A 
ATOM     20  C   UNL     1      -9.934  -0.309  22.195  0.00  0.00    +0.000 A 
ATOM     21  C   UNL     1      -8.088  -3.082  23.522  0.00  0.00    +0.000 C 
ATOM     22  O   UNL     1      -8.877  -3.524  24.350  0.00  0.00    +0.000 OA
ATOM     23  N   UNL     1      -6.799  -3.570  23.406  0.00  0.00    +0.000 N 
ATOM     24  C   UNL     1      -6.297  -3.528  22.140  0.00  0.00    +0.000 C 
ATOM     25  O   UNL     1      -5.179  -3.908  21.829  0.00  0.00    +0.000 OA
ATOM     26  H   UNL     1     -11.681   1.677  23.473  0.00  0.00    +0.000 HD
ATOM     27  H   UNL     1      -9.811   2.262  21.068  0.00  0.00    +0.000 HD
ATOM     28  H   UNL     1     -12.152   0.171  19.592  0.00  0.00    +0.000 HD
ATOM     29  H   UNL     1     -11.627  -2.183  19.215  0.00  0.00    +0.000 HD
ATOM     30  H   UNL     1     -10.688  -4.143  18.680  0.00  0.00    +0.000 HD
ATOM     31  H   UNL     1      -8.209  -8.441  18.378  0.00  0.00    +0.000 HD
ATOM     32  H   UNL     1      -6.148  -7.844  19.531  0.00  0.00    +0.000 HD
ATOM     33  H   UNL     1      -5.802  -5.602  20.419  0.00  0.00    +0.000 HD
ATOM     34  H   UNL     1      -6.480  -4.339  23.980  0.00  0.00    +0.000 HD
ENDROOT
BRANCH   1  35
ATOM     35  C   UNL     1      -9.279   0.657  24.516  0.00  0.00    +0.000 C 
ATOM     36  H   UNL     1      -8.195   0.693  24.434  0.00  0.00    +0.000 HD
ATOM     37  H   UNL     1      -9.651  -0.200  25.074  0.00  0.00    +0.000 HD
ATOM     38  H   UNL     1      -9.612   1.577  25.023  0.00  0.00    +0.000 HD
ENDBRANCH   1  35
BRANCH  11  39
ATOM     39  C   UNL     1     -10.427  -6.765  17.818  0.00  0.00    +0.000 C 
ATOM     40  H   UNL     1     -11.026  -5.843  17.848  0.00  0.00    +0.000 HD
ATOM     41  H   UNL     1     -10.955  -7.515  18.421  0.00  0.00    +0.000 HD
BRANCH  39  42
ATOM     42  C   UNL     1     -10.350  -7.260  16.370  0.00  0.00    +0.000 C 
ATOM     43  H   UNL     1      -9.937  -6.463  15.739  0.00  0.00    +0.000 HD
ATOM     44  H   UNL     1     -11.375  -7.452  16.032  0.00  0.00    +0.000 HD
BRANCH  42  45
ATOM     45  N   UNL     1      -9.578  -8.509  16.195  0.00  0.00    +0.000 NA
ATOM     46  C   UNL     1     -10.347  -9.622  16.780  0.00  0.00    +0.000 C 
ATOM     47  C   UNL     1      -9.589 -10.943  16.700  0.00  0.00    +0.000 C 
ATOM     48  C   UNL     1      -9.196 -11.265  15.265  0.00  0.00    +0.000 C 
ATOM     49  C   UNL     1      -8.448 -10.091  14.650  0.00  0.00    +0.000 C 
ATOM     50  C   UNL     1      -9.241  -8.788  14.790  0.00  0.00    +0.000 C 
ATOM     51  H   UNL     1     -11.317  -9.724  16.274  0.00  0.00    +0.000 HD
ATOM     52  H   UNL     1     -10.553  -9.411  17.837  0.00  0.00    +0.000 HD
ATOM     53  H   UNL     1     -10.214 -11.749  17.102  0.00  0.00    +0.000 HD
ATOM     54  H   UNL     1      -8.689 -10.890  17.325  0.00  0.00    +0.000 HD
ATOM     55  H   UNL     1     -10.095 -11.477  14.675  0.00  0.00    +0.000 HD
ATOM     56  H   UNL     1      -8.572 -12.165  15.239  0.00  0.00    +0.000 HD
ATOM     57  H   UNL     1      -8.248 -10.291  13.592  0.00  0.00    +0.000 HD
ATOM     58  H   UNL     1      -7.473  -9.981  15.142  0.00  0.00    +0.000 HD
ATOM     59  H   UNL     1     -10.145  -8.836  14.173  0.00  0.00    +0.000 HD
ATOM     60  H   UNL     1      -8.606  -7.992  14.383  0.00  0.00    +0.000 HD
ENDBRANCH  42  45
ENDBRANCH  39  42
ENDBRANCH  11  39
TORSDOF 4
ENDMDL
MODEL 5
REMARK VINA RESULT:    -9.863      2.254      4.144
REMARK INTER + INTRA:         -12.295
REMARK INTER:                 -12.006
REMARK INTRA:                  -0.289
REMARK UNBOUND:                -0.414
REMARK  Name = 
REMARK  4 active torsions:
REMARK  status: ('A' for Active; 'I' for Inactive)
REMARK    1  A    between atoms: C_1  and  N_2
REMARK    2  A    between atoms: C_12  and  C_13
REMARK    3  A    between atoms: C_13  and  C_14
REMARK    4  A    between atoms: C_14  and  N_15
REMARK                            x       y       z     vdW  Elec       q    Type
REMARK                         _______ _______ _______ _____ _____    ______ ____
ROOT
ATOM      1  N   UNL     1     -11.132   1.979  21.026  0.00  0.00    +0.000 N 
ATOM      2  C   UNL     1     -11.412   2.156  22.394  0.00  0.00    +0.000 A 
ATOM      3  C   UNL     1     -12.443   1.261  22.581  0.00  0.00    +0.000 A 
ATOM      4  C   UNL     1     -11.824   0.141  21.955  0.00  0.00    +0.000 A 
ATOM      5  C   UNL     1     -11.837  -1.219  22.284  0.00  0.00    +0.000 A 
ATOM      6  C   UNL     1     -11.468  -2.132  21.334  0.00  0.00    +0.000 A 
ATOM      7  C   UNL     1     -11.320  -1.667  20.029  0.00  0.00    +0.000 A 
ATOM      8  C   UNL     1     -11.496  -2.613  19.035  0.00  0.00    +0.000 A 
ATOM      9  N   UNL     1     -11.491  -3.982  19.019  0.00  0.00    +0.000 N 
ATOM     10  C   UNL     1     -11.376  -4.443  17.724  0.00  0.00    +0.000 A 
ATOM     11  C   UNL     1     -10.995  -5.721  17.285  0.00  0.00    +0.000 A 
ATOM     12  C   UNL     1     -10.883  -5.894  15.898  0.00  0.00    +0.000 A 
ATOM     13  C   UNL     1     -11.204  -4.878  15.009  0.00  0.00    +0.000 A 
ATOM     14  C   UNL     1     -11.602  -3.611  15.489  0.00  0.00    +0.000 A 
ATOM     15  C   UNL     1     -11.646  -3.384  16.843  0.00  0.00    +0.000 A 
ATOM     16  C   UNL     1     -11.786  -2.297  17.728  0.00  0.00    +0.000 A 
ATOM     17  C   UNL     1     -11.661  -0.945  17.307  0.00  0.00    +0.000 A 
ATOM     18  C   UNL     1     -10.979  -0.124  18.259  0.00  0.00    +0.000 A 
ATOM     19  C   UNL     1     -11.106  -0.301  19.657  0.00  0.00    +0.000 A 
ATOM     20  C   UNL     1     -11.270   0.624  20.730  0.00  0.00    +0.000 A 
ATOM     21  C   UNL     1      -9.837   0.295  17.459  0.00  0.00    +0.000 C 
ATOM     22  O   UNL     1      -8.639   0.361  17.712  0.00  0.00    +0.000 OA
ATOM     23  N   UNL     1     -10.311   0.272  16.159  0.00  0.00    +0.000 N 
ATOM     24  C   UNL     1     -11.459  -0.444  15.996  0.00  0.00    +0.000 C 
ATOM     25  O   UNL     1     -12.037  -0.583  14.929  0.00  0.00    +0.000 OA
ATOM     26  H   UNL     1     -10.545   2.303  23.029  0.00  0.00    +0.000 HD
ATOM     27  H   UNL     1     -13.449   1.536  22.252  0.00  0.00    +0.000 HD
ATOM     28  H   UNL     1     -12.199  -1.541  23.255  0.00  0.00    +0.000 HD
ATOM     29  H   UNL     1     -11.496  -3.180  21.589  0.00  0.00    +0.000 HD
ATOM     30  H   UNL     1     -11.315  -4.554  19.831  0.00  0.00    +0.000 HD
ATOM     31  H   UNL     1     -10.529  -6.833  15.484  0.00  0.00    +0.000 HD
ATOM     32  H   UNL     1     -11.082  -5.035  13.937  0.00  0.00    +0.000 HD
ATOM     33  H   UNL     1     -11.812  -2.855  14.743  0.00  0.00    +0.000 HD
ATOM     34  H   UNL     1      -9.675   0.271  15.374  0.00  0.00    +0.000 HD
ENDROOT
BRANCH   1  35
ATOM     35  C   UNL     1     -10.502   3.073  20.327  0.00  0.00    +0.000 C 
ATOM     36  H   UNL     1     -11.176   3.432  19.552  0.00  0.00    +0.000 HD
ATOM     37  H   UNL     1      -9.528   2.762  19.956  0.00  0.00    +0.000 HD
ATOM     38  H   UNL     1     -10.356   3.889  21.054  0.00  0.00    +0.000 HD
ENDBRANCH   1  35
BRANCH  11  39
ATOM     39  C   UNL     1     -10.674  -6.786  18.316  0.00  0.00    +0.000 C 
ATOM     40  H   UNL     1     -11.539  -7.463  18.371  0.00  0.00    +0.000 HD
ATOM     41  H   UNL     1     -10.599  -6.276  19.285  0.00  0.00    +0.000 HD
BRANCH  39  42
ATOM     42  C   UNL     1      -9.405  -7.616  18.095  0.00  0.00    +0.000 C 
ATOM     43  H   UNL     1      -8.852  -7.687  19.040  0.00  0.00    +0.000 HD
ATOM     44  H   UNL     1      -8.774  -7.071  17.383  0.00  0.00    +0.000 HD
BRANCH  42  45
ATOM     45  N   UNL     1      -9.650  -8.964  17.538  0.00  0.00    +0.000 NA
ATOM     46  C   UNL     1      -9.303  -8.948  16.105  0.00  0.00    +0.000 C 
ATOM     47  C   UNL     1      -9.589 -10.289  15.436  0.00  0.00    +0.000 C 
ATOM     48  C   UNL     1      -8.865 -11.424  16.146  0.00  0.00    +0.000 C 
ATOM     49  C   UNL     1      -9.188 -11.401  17.634  0.00  0.00    +0.000 C 
ATOM     50  C   UNL     1      -8.913 -10.023  18.244  0.00  0.00    +0.000 C 
ATOM     51  H   UNL     1      -8.244  -8.690  15.972  0.00  0.00    +0.000 HD
ATOM     52  H   UNL     1      -9.892  -8.178  15.592  0.00  0.00    +0.000 HD
ATOM     53  H   UNL     1      -9.273 -10.249  14.387  0.00  0.00    +0.000 HD
ATOM     54  H   UNL     1     -10.669 -10.479  15.441  0.00  0.00    +0.000 HD
ATOM     55  H   UNL     1      -7.784 -11.319  16.004  0.00  0.00    +0.000 HD
ATOM     56  H   UNL     1      -9.158 -12.386  15.712  0.00  0.00    +0.000 HD
ATOM     57  H   UNL     1      -8.594 -12.161  18.154  0.00  0.00    +0.000 HD
ATOM     58  H   UNL     1     -10.243 -11.664  17.782  0.00  0.00    +0.000 HD
ATOM     59  H   UNL     1      -7.836  -9.822  18.236  0.00  0.00    +0.000 HD
ATOM     60  H   UNL     1      -9.230 -10.078  19.292  0.00  0.00    +0.000 HD
ENDBRANCH  42  45
ENDBRANCH  39  42
ENDBRANCH  11  39
TORSDOF 4
ENDMDL
MODEL 6
REMARK VINA RESULT:    -9.724      3.197      4.491
REMARK INTER + INTRA:         -12.127
REMARK INTER:                 -11.770
REMARK INTRA:                  -0.357
REMARK UNBOUND:                -0.414
REMARK  Name = 
REMARK  4 active torsions:
REMARK  status: ('A' for Active; 'I' for Inactive)
REMARK    1  A    between atoms: C_1  and  N_2
REMARK    2  A    between atoms: C_12  and  C_13
REMARK    3  A    between atoms: C_13  and  C_14
REMARK    4  A    between atoms: C_14  and  N_15
REMARK                            x       y       z     vdW  Elec       q    Type
REMARK                         _______ _______ _______ _____ _____    ______ ____
ROOT
ATOM      1  N   UNL     1     -13.100  -0.049  11.905  0.00  0.00    +0.000 N 
ATOM      2  C   UNL     1     -13.298  -0.224  10.522  0.00  0.00    +0.000 A 
ATOM      3  C   UNL     1     -12.208  -0.996  10.185  0.00  0.00    +0.000 A 
ATOM      4  C   UNL     1     -12.351  -1.968  11.215  0.00  0.00    +0.000 A 
ATOM      5  C   UNL     1     -12.150  -3.354  11.206  0.00  0.00    +0.000 A 
ATOM      6  C   UNL     1     -12.006  -4.007  12.399  0.00  0.00    +0.000 A 
ATOM      7  C   UNL     1     -11.842  -3.223  13.539  0.00  0.00    +0.000 A 
ATOM      8  C   UNL     1     -11.172  -3.827  14.588  0.00  0.00    +0.000 A 
ATOM      9  N   UNL     1     -10.880  -5.127  14.901  0.00  0.00    +0.000 N 
ATOM     10  C   UNL     1     -10.492  -5.224  16.221  0.00  0.00    +0.000 A 
ATOM     11  C   UNL     1     -10.437  -6.368  17.033  0.00  0.00    +0.000 A 
ATOM     12  C   UNL     1     -10.079  -6.165  18.372  0.00  0.00    +0.000 A 
ATOM     13  C   UNL     1      -9.725  -4.910  18.849  0.00  0.00    +0.000 A 
ATOM     14  C   UNL     1      -9.773  -3.785  17.997  0.00  0.00    +0.000 A 
ATOM     15  C   UNL     1     -10.196  -3.937  16.699  0.00  0.00    +0.000 A 
ATOM     16  C   UNL     1     -10.569  -3.128  15.608  0.00  0.00    +0.000 A 
ATOM     17  C   UNL     1     -10.845  -1.740  15.742  0.00  0.00    +0.000 A 
ATOM     18  C   UNL     1     -11.945  -1.308  14.935  0.00  0.00    +0.000 A 
ATOM     19  C   UNL     1     -12.217  -1.846  13.656  0.00  0.00    +0.000 A 
ATOM     20  C   UNL     1     -12.592  -1.241  12.420  0.00  0.00    +0.000 A 
ATOM     21  C   UNL     1     -12.847  -0.833  15.975  0.00  0.00    +0.000 C 
ATOM     22  O   UNL     1     -14.050  -0.993  16.151  0.00  0.00    +0.000 OA
ATOM     23  N   UNL     1     -12.004  -0.436  16.996  0.00  0.00    +0.000 N 
ATOM     24  C   UNL     1     -10.736  -0.926  16.898  0.00  0.00    +0.000 C 
ATOM     25  O   UNL     1      -9.843  -0.691  17.697  0.00  0.00    +0.000 OA
ATOM     26  H   UNL     1     -14.328  -0.369  10.217  0.00  0.00    +0.000 HD
ATOM     27  H   UNL     1     -11.232  -0.515  10.071  0.00  0.00    +0.000 HD
ATOM     28  H   UNL     1     -12.044  -3.882  10.264  0.00  0.00    +0.000 HD
ATOM     29  H   UNL     1     -11.835  -5.073  12.385  0.00  0.00    +0.000 HD
ATOM     30  H   UNL     1     -11.171  -5.919  14.347  0.00  0.00    +0.000 HD
ATOM     31  H   UNL     1     -10.080  -6.990  19.078  0.00  0.00    +0.000 HD
ATOM     32  H   UNL     1      -9.476  -4.778  19.902  0.00  0.00    +0.000 HD
ATOM     33  H   UNL     1      -9.510  -2.832  18.438  0.00  0.00    +0.000 HD
ATOM     34  H   UNL     1     -12.353  -0.301  17.936  0.00  0.00    +0.000 HD
ENDROOT
BRANCH   1  35
ATOM     35  C   UNL     1     -13.703   1.105  12.525  0.00  0.00    +0.000 C 
ATOM     36  H   UNL     1     -13.764   1.908  11.793  0.00  0.00    +0.000 HD
ATOM     37  H   UNL     1     -13.154   1.370  13.426  0.00  0.00    +0.000 HD
ATOM     38  H   UNL     1     -14.731   0.828  12.810  0.00  0.00    +0.000 HD
ENDBRANCH   1  35
BRANCH  11  39
ATOM     39  C   UNL     1     -10.825  -7.708  16.437  0.00  0.00    +0.000 C 
ATOM     40  H   UNL     1     -11.660  -7.532  15.743  0.00  0.00    +0.000 HD
ATOM     41  H   UNL     1     -11.213  -8.321  17.261  0.00  0.00    +0.000 HD
BRANCH  39  42
ATOM     42  C   UNL     1      -9.731  -8.495  15.708  0.00  0.00    +0.000 C 
ATOM     43  H   UNL     1      -8.755  -8.042  15.927  0.00  0.00    +0.000 HD
ATOM     44  H   UNL     1      -9.910  -8.390  14.632  0.00  0.00    +0.000 HD
BRANCH  42  45
ATOM     45  N   UNL     1      -9.710  -9.940  16.021  0.00  0.00    +0.000 NA
ATOM     46  C   UNL     1      -8.888 -10.626  15.007  0.00  0.00    +0.000 C 
ATOM     47  C   UNL     1      -8.868 -12.137  15.219  0.00  0.00    +0.000 C 
ATOM     48  C   UNL     1      -8.389 -12.490  16.620  0.00  0.00    +0.000 C 
ATOM     49  C   UNL     1      -9.208 -11.737  17.659  0.00  0.00    +0.000 C 
ATOM     50  C   UNL     1      -9.220 -10.231  17.377  0.00  0.00    +0.000 C 
ATOM     51  H   UNL     1      -7.861 -10.240  15.023  0.00  0.00    +0.000 HD
ATOM     52  H   UNL     1      -9.295 -10.427  14.008  0.00  0.00    +0.000 HD
ATOM     53  H   UNL     1      -8.210 -12.602  14.475  0.00  0.00    +0.000 HD
ATOM     54  H   UNL     1      -9.874 -12.545  15.059  0.00  0.00    +0.000 HD
ATOM     55  H   UNL     1      -7.330 -12.226  16.725  0.00  0.00    +0.000 HD
ATOM     56  H   UNL     1      -8.471 -13.570  16.784  0.00  0.00    +0.000 HD
ATOM     57  H   UNL     1      -8.800 -11.923  18.658  0.00  0.00    +0.000 HD
ATOM     58  H   UNL     1     -10.237 -12.118  17.659  0.00  0.00    +0.000 HD
ATOM     59  H   UNL     1      -8.216  -9.818  17.527  0.00  0.00    +0.000 HD
ATOM     60  H   UNL     1      -9.878  -9.780  18.128  0.00  0.00    +0.000 HD
ENDBRANCH  42  45
ENDBRANCH  39  42
ENDBRANCH  11  39
TORSDOF 4
ENDMDL
MODEL 7
REMARK VINA RESULT:    -9.688      3.782      8.247
REMARK INTER + INTRA:         -12.084
REMARK INTER:                 -11.701
REMARK INTRA:                  -0.384
REMARK UNBOUND:                -0.414
REMARK  Name = 
REMARK  4 active torsions:
REMARK  status: ('A' for Active; 'I' for Inactive)
REMARK    1  A    between atoms: C_1  and  N_2
REMARK    2  A    between atoms: C_12  and  C_13
REMARK    3  A    between atoms: C_13  and  C_14
REMARK    4  A    between atoms: C_14  and  N_15
REMARK                            x       y       z     vdW  Elec       q    Type
REMARK                         _______ _______ _______ _____ _____    ______ ____
ROOT
ATOM      1  N   UNL     1      -8.881  -9.397  18.733  0.00  0.00    +0.000 N 
ATOM      2  C   UNL     1      -8.668 -10.698  18.241  0.00  0.00    +0.000 A 
ATOM      3  C   UNL     1      -9.594 -10.762  17.224  0.00  0.00    +0.000 A 
ATOM      4  C   UNL     1      -9.258  -9.528  16.598  0.00  0.00    +0.000 A 
ATOM      5  C   UNL     1      -9.193  -9.170  15.246  0.00  0.00    +0.000 A 
ATOM      6  C   UNL     1      -9.198  -7.843  14.914  0.00  0.00    +0.000 A 
ATOM      7  C   UNL     1      -9.497  -6.934  15.926  0.00  0.00    +0.000 A 
ATOM      8  C   UNL     1     -10.029  -5.727  15.508  0.00  0.00    +0.000 A 
ATOM      9  N   UNL     1     -10.065  -5.076  14.305  0.00  0.00    +0.000 N 
ATOM     10  C   UNL     1     -10.415  -3.754  14.489  0.00  0.00    +0.000 A 
ATOM     11  C   UNL     1     -10.243  -2.675  13.608  0.00  0.00    +0.000 A 
ATOM     12  C   UNL     1     -10.620  -1.413  14.087  0.00  0.00    +0.000 A 
ATOM     13  C   UNL     1     -11.202  -1.254  15.337  0.00  0.00    +0.000 A 
ATOM     14  C   UNL     1     -11.377  -2.366  16.189  0.00  0.00    +0.000 A 
ATOM     15  C   UNL     1     -10.945  -3.605  15.781  0.00  0.00    +0.000 A 
ATOM     16  C   UNL     1     -10.743  -4.887  16.329  0.00  0.00    +0.000 A 
ATOM     17  C   UNL     1     -10.736  -5.129  17.730  0.00  0.00    +0.000 A 
ATOM     18  C   UNL     1      -9.746  -6.082  18.126  0.00  0.00    +0.000 A 
ATOM     19  C   UNL     1      -9.389  -7.195  17.330  0.00  0.00    +0.000 A 
ATOM     20  C   UNL     1      -9.148  -8.565  17.647  0.00  0.00    +0.000 A 
ATOM     21  C   UNL     1      -8.940  -5.255  19.012  0.00  0.00    +0.000 C 
ATOM     22  O   UNL     1      -7.726  -5.115  19.125  0.00  0.00    +0.000 OA
ATOM     23  N   UNL     1      -9.833  -4.320  19.505  0.00  0.00    +0.000 N 
ATOM     24  C   UNL     1     -10.985  -4.215  18.785  0.00  0.00    +0.000 C 
ATOM     25  O   UNL     1     -11.899  -3.451  19.056  0.00  0.00    +0.000 OA
ATOM     26  H   UNL     1      -7.632 -11.017  18.209  0.00  0.00    +0.000 HD
ATOM     27  H   UNL     1     -10.644 -10.937  17.473  0.00  0.00    +0.000 HD
ATOM     28  H   UNL     1      -9.206  -9.937  14.479  0.00  0.00    +0.000 HD
ATOM     29  H   UNL     1      -9.164  -7.574  13.869  0.00  0.00    +0.000 HD
ATOM     30  H   UNL     1      -9.635  -5.425  13.461  0.00  0.00    +0.000 HD
ATOM     31  H   UNL     1     -10.456  -0.522  13.491  0.00  0.00    +0.000 HD
ATOM     32  H   UNL     1     -11.461  -0.256  15.694  0.00  0.00    +0.000 HD
ATOM     33  H   UNL     1     -11.811  -2.169  17.160  0.00  0.00    +0.000 HD
ATOM     34  H   UNL     1      -9.507  -3.469  19.942  0.00  0.00    +0.000 HD
ENDROOT
BRANCH   1  35
ATOM     35  C   UNL     1      -8.502  -9.129  20.100  0.00  0.00    +0.000 C 
ATOM     36  H   UNL     1      -7.430  -8.947  20.139  0.00  0.00    +0.000 HD
ATOM     37  H   UNL     1      -8.835  -9.942  20.741  0.00  0.00    +0.000 HD
ATOM     38  H   UNL     1      -9.015  -8.204  20.410  0.00  0.00    +0.000 HD
ENDBRANCH   1  35
BRANCH  11  39
ATOM     39  C   UNL     1      -9.614  -2.930  12.251  0.00  0.00    +0.000 C 
ATOM     40  H   UNL     1     -10.085  -3.832  11.833  0.00  0.00    +0.000 HD
ATOM     41  H   UNL     1      -8.558  -3.170  12.432  0.00  0.00    +0.000 HD
BRANCH  39  42
ATOM     42  C   UNL     1      -9.696  -1.803  11.218  0.00  0.00    +0.000 C 
ATOM     43  H   UNL     1      -8.785  -1.808  10.606  0.00  0.00    +0.000 HD
ATOM     44  H   UNL     1      -9.719  -0.853  11.766  0.00  0.00    +0.000 HD
BRANCH  42  45
ATOM     45  N   UNL     1     -10.896  -1.853  10.356  0.00  0.00    +0.000 NA
ATOM     46  C   UNL     1     -11.628  -0.581  10.499  0.00  0.00    +0.000 C 
ATOM     47  C   UNL     1     -12.922  -0.575   9.689  0.00  0.00    +0.000 C 
ATOM     48  C   UNL     1     -12.653  -0.873   8.221  0.00  0.00    +0.000 C 
ATOM     49  C   UNL     1     -11.851  -2.159   8.085  0.00  0.00    +0.000 C 
ATOM     50  C   UNL     1     -10.584  -2.122   8.944  0.00  0.00    +0.000 C 
ATOM     51  H   UNL     1     -10.996   0.261  10.186  0.00  0.00    +0.000 HD
ATOM     52  H   UNL     1     -11.886  -0.421  11.553  0.00  0.00    +0.000 HD
ATOM     53  H   UNL     1     -13.409   0.402   9.785  0.00  0.00    +0.000 HD
ATOM     54  H   UNL     1     -13.614  -1.323  10.096  0.00  0.00    +0.000 HD
ATOM     55  H   UNL     1     -12.094  -0.043   7.772  0.00  0.00    +0.000 HD
ATOM     56  H   UNL     1     -13.599  -0.958   7.675  0.00  0.00    +0.000 HD
ATOM     57  H   UNL     1     -11.583  -2.320   7.035  0.00  0.00    +0.000 HD
ATOM     58  H   UNL     1     -12.474  -3.011   8.388  0.00  0.00    +0.000 HD
ATOM     59  H   UNL     1      -9.889  -1.372   8.547  0.00  0.00    +0.000 HD
ATOM     60  H   UNL     1     -10.106  -3.102   8.836  0.00  0.00    +0.000 HD
ENDBRANCH  42  45
ENDBRANCH  39  42
ENDBRANCH  11  39
TORSDOF 4
ENDMDL
MODEL 8
REMARK VINA RESULT:    -9.683      3.295      6.795
REMARK INTER + INTRA:         -12.079
REMARK INTER:                 -11.625
REMARK INTRA:                  -0.454
REMARK UNBOUND:                -0.414
REMARK  Name = 
REMARK  4 active torsions:
REMARK  status: ('A' for Active; 'I' for Inactive)
REMARK    1  A    between atoms: C_1  and  N_2
REMARK    2  A    between atoms: C_12  and  C_13
REMARK    3  A    between atoms: C_13  and  C_14
REMARK    4  A    between atoms: C_14  and  N_15
REMARK                            x       y       z     vdW  Elec       q    Type
REMARK                         _______ _______ _______ _____ _____    ______ ____
ROOT
ATOM      1  N   UNL     1     -12.684  -1.236  14.351  0.00  0.00    +0.000 N 
ATOM      2  C   UNL     1     -13.258   0.042  14.497  0.00  0.00    +0.000 A 
ATOM      3  C   UNL     1     -13.614   0.032  15.827  0.00  0.00    +0.000 A 
ATOM      4  C   UNL     1     -12.369  -0.428  16.343  0.00  0.00    +0.000 A 
ATOM      5  C   UNL     1     -11.669  -0.078  17.504  0.00  0.00    +0.000 A 
ATOM      6  C   UNL     1     -10.683  -0.912  17.956  0.00  0.00    +0.000 A 
ATOM      7  C   UNL     1     -10.590  -2.168  17.362  0.00  0.00    +0.000 A 
ATOM      8  C   UNL     1     -10.015  -3.156  18.142  0.00  0.00    +0.000 A 
ATOM      9  N   UNL     1      -9.233  -3.140  19.266  0.00  0.00    +0.000 N 
ATOM     10  C   UNL     1      -8.643  -4.373  19.454  0.00  0.00    +0.000 A 
ATOM     11  C   UNL     1      -7.534  -4.696  20.251  0.00  0.00    +0.000 A 
ATOM     12  C   UNL     1      -7.093  -6.025  20.195  0.00  0.00    +0.000 A 
ATOM     13  C   UNL     1      -7.765  -6.984  19.449  0.00  0.00    +0.000 A 
ATOM     14  C   UNL     1      -8.890  -6.625  18.674  0.00  0.00    +0.000 A 
ATOM     15  C   UNL     1      -9.300  -5.314  18.645  0.00  0.00    +0.000 A 
ATOM     16  C   UNL     1     -10.189  -4.501  17.914  0.00  0.00    +0.000 A 
ATOM     17  C   UNL     1     -10.777  -4.918  16.689  0.00  0.00    +0.000 A 
ATOM     18  C   UNL     1     -10.866  -3.864  15.726  0.00  0.00    +0.000 A 
ATOM     19  C   UNL     1     -11.123  -2.519  16.081  0.00  0.00    +0.000 A 
ATOM     20  C   UNL     1     -11.974  -1.523  15.515  0.00  0.00    +0.000 A 
ATOM     21  C   UNL     1     -10.040  -4.422  14.665  0.00  0.00    +0.000 C 
ATOM     22  O   UNL     1      -9.160  -3.929  13.967  0.00  0.00    +0.000 OA
ATOM     23  N   UNL     1     -10.172  -5.790  14.820  0.00  0.00    +0.000 N 
ATOM     24  C   UNL     1     -10.659  -6.170  16.034  0.00  0.00    +0.000 C 
ATOM     25  O   UNL     1     -10.851  -7.330  16.367  0.00  0.00    +0.000 OA
ATOM     26  H   UNL     1     -12.760   0.838  13.954  0.00  0.00    +0.000 HD
ATOM     27  H   UNL     1     -14.519  -0.503  16.130  0.00  0.00    +0.000 HD
ATOM     28  H   UNL     1     -11.955   0.804  18.067  0.00  0.00    +0.000 HD
ATOM     29  H   UNL     1     -10.159  -0.645  18.861  0.00  0.00    +0.000 HD
ATOM     30  H   UNL     1      -8.915  -2.296  19.719  0.00  0.00    +0.000 HD
ATOM     31  H   UNL     1      -6.202  -6.337  20.730  0.00  0.00    +0.000 HD
ATOM     32  H   UNL     1      -7.383  -8.004  19.404  0.00  0.00    +0.000 HD
ATOM     33  H   UNL     1      -9.351  -7.414  18.095  0.00  0.00    +0.000 HD
ATOM     34  H   UNL     1      -9.516  -6.427  14.389  0.00  0.00    +0.000 HD
ENDROOT
BRANCH   1  35
ATOM     35  C   UNL     1     -12.669  -1.814  13.029  0.00  0.00    +0.000 C 
ATOM     36  H   UNL     1     -11.966  -1.261  12.410  0.00  0.00    +0.000 HD
ATOM     37  H   UNL     1     -13.680  -1.845  12.628  0.00  0.00    +0.000 HD
ATOM     38  H   UNL     1     -12.297  -2.847  13.125  0.00  0.00    +0.000 HD
ENDBRANCH   1  35
BRANCH  11  39
ATOM     39  C   UNL     1      -6.861  -3.597  21.051  0.00  0.00    +0.000 C 
ATOM     40  H   UNL     1      -7.234  -2.635  20.669  0.00  0.00    +0.000 HD
ATOM     41  H   UNL     1      -5.790  -3.644  20.815  0.00  0.00    +0.000 HD
BRANCH  39  42
ATOM     42  C   UNL     1      -7.034  -3.630  22.572  0.00  0.00    +0.000 C 
ATOM     43  H   UNL     1      -6.059  -3.470  23.050  0.00  0.00    +0.000 HD
ATOM     44  H   UNL     1      -7.374  -4.636  22.844  0.00  0.00    +0.000 HD
BRANCH  42  45
ATOM     45  N   UNL     1      -8.028  -2.665  23.092  0.00  0.00    +0.000 NA
ATOM     46  C   UNL     1      -8.431  -3.091  24.444  0.00  0.00    +0.000 C 
ATOM     47  C   UNL     1      -9.508  -2.183  25.030  0.00  0.00    +0.000 C 
ATOM     48  C   UNL     1      -9.054  -0.730  25.044  0.00  0.00    +0.000 C 
ATOM     49  C   UNL     1      -8.589  -0.314  23.655  0.00  0.00    +0.000 C 
ATOM     50  C   UNL     1      -7.535  -1.279  23.105  0.00  0.00    +0.000 C 
ATOM     51  H   UNL     1      -7.562  -3.109  25.115  0.00  0.00    +0.000 HD
ATOM     52  H   UNL     1      -8.831  -4.112  24.404  0.00  0.00    +0.000 HD
ATOM     53  H   UNL     1      -9.744  -2.506  26.051  0.00  0.00    +0.000 HD
ATOM     54  H   UNL     1     -10.428  -2.276  24.441  0.00  0.00    +0.000 HD
ATOM     55  H   UNL     1      -8.232  -0.606  25.758  0.00  0.00    +0.000 HD
ATOM     56  H   UNL     1      -9.873  -0.084  25.377  0.00  0.00    +0.000 HD
ATOM     57  H   UNL     1      -8.179   0.702  23.690  0.00  0.00    +0.000 HD
ATOM     58  H   UNL     1      -9.451  -0.285  22.975  0.00  0.00    +0.000 HD
ATOM     59  H   UNL     1      -6.614  -1.196  23.693  0.00  0.00    +0.000 HD
ATOM     60  H   UNL     1      -7.307  -0.943  22.087  0.00  0.00    +0.000 HD
ENDBRANCH  42  45
ENDBRANCH  39  42
ENDBRANCH  11  39
TORSDOF 4
ENDMDL
MODEL 9
REMARK VINA RESULT:    -9.580      2.908      4.867
REMARK INTER + INTRA:         -11.954
REMARK INTER:                 -11.164
REMARK INTRA:                  -0.791
REMARK UNBOUND:                -0.414
REMARK  Name = 
REMARK  4 active torsions:
REMARK  status: ('A' for Active; 'I' for Inactive)
REMARK    1  A    between atoms: C_1  and  N_2
REMARK    2  A    between atoms: C_12  and  C_13
REMARK    3  A    between atoms: C_13  and  C_14
REMARK    4  A    between atoms: C_14  and  N_15
REMARK                            x       y       z     vdW  Elec       q    Type
REMARK                         _______ _______ _______ _____ _____    ______ ____
ROOT
ATOM      1  N   UNL     1      -9.665   0.852  23.516  0.00  0.00    +0.000 N 
ATOM      2  C   UNL     1     -10.502   1.961  23.288  0.00  0.00    +0.000 A 
ATOM      3  C   UNL     1     -10.415   2.093  21.920  0.00  0.00    +0.000 A 
ATOM      4  C   UNL     1     -10.667   0.730  21.592  0.00  0.00    +0.000 A 
ATOM      5  C   UNL     1     -11.399   0.155  20.547  0.00  0.00    +0.000 A 
ATOM      6  C   UNL     1     -11.192  -1.163  20.244  0.00  0.00    +0.000 A 
ATOM      7  C   UNL     1     -10.104  -1.792  20.845  0.00  0.00    +0.000 A 
ATOM      8  C   UNL     1      -9.587  -2.876  20.157  0.00  0.00    +0.000 A 
ATOM      9  N   UNL     1     -10.067  -3.682  19.161  0.00  0.00    +0.000 N 
ATOM     10  C   UNL     1      -9.301  -4.825  19.062  0.00  0.00    +0.000 A 
ATOM     11  C   UNL     1      -9.624  -6.039  18.435  0.00  0.00    +0.000 A 
ATOM     12  C   UNL     1      -8.683  -7.071  18.556  0.00  0.00    +0.000 A 
ATOM     13  C   UNL     1      -7.466  -6.875  19.195  0.00  0.00    +0.000 A 
ATOM     14  C   UNL     1      -7.168  -5.632  19.796  0.00  0.00    +0.000 A 
ATOM     15  C   UNL     1      -8.102  -4.625  19.765  0.00  0.00    +0.000 A 
ATOM     16  C   UNL     1      -8.317  -3.365  20.357  0.00  0.00    +0.000 A 
ATOM     17  C   UNL     1      -7.577  -2.912  21.483  0.00  0.00    +0.000 A 
ATOM     18  C   UNL     1      -8.378  -2.188  22.422  0.00  0.00    +0.000 A 
ATOM     19  C   UNL     1      -9.444  -1.345  22.034  0.00  0.00    +0.000 A 
ATOM     20  C   UNL     1      -9.850  -0.048  22.469  0.00  0.00    +0.000 A 
ATOM     21  C   UNL     1      -8.222  -3.040  23.593  0.00  0.00    +0.000 C 
ATOM     22  O   UNL     1      -9.031  -3.461  24.413  0.00  0.00    +0.000 OA
ATOM     23  N   UNL     1      -6.981  -3.626  23.420  0.00  0.00    +0.000 N 
ATOM     24  C   UNL     1      -6.500  -3.551  22.147  0.00  0.00    +0.000 C 
ATOM     25  O   UNL     1      -5.424  -4.005  21.790  0.00  0.00    +0.000 OA
ATOM     26  H   UNL     1     -11.398   1.998  23.898  0.00  0.00    +0.000 HD
ATOM     27  H   UNL     1      -9.529   2.565  21.487  0.00  0.00    +0.000 HD
ATOM     28  H   UNL     1     -12.066   0.767  19.949  0.00  0.00    +0.000 HD
ATOM     29  H   UNL     1     -11.748  -1.596  19.426  0.00  0.00    +0.000 HD
ATOM     30  H   UNL     1     -10.989  -3.593  18.760  0.00  0.00    +0.000 HD
ATOM     31  H   UNL     1      -8.889  -8.059  18.157  0.00  0.00    +0.000 HD
ATOM     32  H   UNL     1      -6.765  -7.704  19.295  0.00  0.00    +0.000 HD
ATOM     33  H   UNL     1      -6.214  -5.555  20.301  0.00  0.00    +0.000 HD
ATOM     34  H   UNL     1      -6.718  -4.451  23.943  0.00  0.00    +0.000 HD
ENDROOT
BRANCH   1  35
ATOM     35  C   UNL     1      -9.074   0.721  24.826  0.00  0.00    +0.000 C 
ATOM     36  H   UNL     1      -8.027   0.443  24.714  0.00  0.00    +0.000 HD
ATOM     37  H   UNL     1      -9.654   0.023  25.425  0.00  0.00    +0.000 HD
ATOM     38  H   UNL     1      -9.112   1.713  25.306  0.00  0.00    +0.000 HD
ENDBRANCH   1  35
BRANCH  11  39
ATOM     39  C   UNL     1     -10.967  -6.173  17.744  0.00  0.00    +0.000 C 
ATOM     40  H   UNL     1     -11.701  -5.607  18.336  0.00  0.00    +0.000 HD
ATOM     41  H   UNL     1     -11.251  -7.231  17.804  0.00  0.00    +0.000 HD
BRANCH  39  42
ATOM     42  C   UNL     1     -11.052  -5.720  16.283  0.00  0.00    +0.000 C 
ATOM     43  H   UNL     1     -11.929  -6.184  15.813  0.00  0.00    +0.000 HD
ATOM     44  H   UNL     1     -10.162  -6.100  15.768  0.00  0.00    +0.000 HD
BRANCH  42  45
ATOM     45  N   UNL     1     -11.083  -4.253  16.101  0.00  0.00    +0.000 NA
ATOM     46  C   UNL     1     -11.080  -3.960  14.657  0.00  0.00    +0.000 C 
ATOM     47  C   UNL     1     -11.046  -2.460  14.380  0.00  0.00    +0.000 C 
ATOM     48  C   UNL     1     -12.204  -1.748  15.065  0.00  0.00    +0.000 C 
ATOM     49  C   UNL     1     -12.231  -2.098  16.546  0.00  0.00    +0.000 C 
ATOM     50  C   UNL     1     -12.231  -3.614  16.763  0.00  0.00    +0.000 C 
ATOM     51  H   UNL     1     -11.963  -4.402  14.175  0.00  0.00    +0.000 HD
ATOM     52  H   UNL     1     -10.196  -4.413  14.191  0.00  0.00    +0.000 HD
ATOM     53  H   UNL     1     -11.093  -2.286  13.299  0.00  0.00    +0.000 HD
ATOM     54  H   UNL     1     -10.095  -2.042  14.733  0.00  0.00    +0.000 HD
ATOM     55  H   UNL     1     -13.149  -2.048  14.600  0.00  0.00    +0.000 HD
ATOM     56  H   UNL     1     -12.108  -0.664  14.935  0.00  0.00    +0.000 HD
ATOM     57  H   UNL     1     -13.118  -1.657  17.015  0.00  0.00    +0.000 HD
ATOM     58  H   UNL     1     -11.357  -1.656  17.042  0.00  0.00    +0.000 HD
ATOM     59  H   UNL     1     -13.176  -4.039  16.406  0.00  0.00    +0.000 HD
ATOM     60  H   UNL     1     -12.187  -3.773  17.847  0.00  0.00    +0.000 HD
ENDBRANCH  42  45
ENDBRANCH  39  42
ENDBRANCH  11  39
TORSDOF 4
ENDMDL
