MODEL 1
REMARK VINA RESULT:    -9.159      0.000      0.000
REMARK INTER + INTRA:         -16.843
REMARK INTER:                 -15.049
REMARK INTRA:                  -1.795
REMARK UNBOUND:                -1.795
REMARK  Name = 
REMARK  13 active torsions:
REMARK  status: ('A' for Active; 'I' for Inactive)
REMARK    1  A    between atoms: C_1  and  O_2
REMARK    2  A    between atoms: O_2  and  C_3
REMARK    3  A    between atoms: C_3  and  C_5
REMARK    4  A    between atoms: C_5  and  O_6
REMARK    5  A    between atoms: O_6  and  C_7
REMARK    6  A    between atoms: C_11  and  N_12
REMARK    7  A    between atoms: C_13  and  C_15
REMARK    8  A    between atoms: C_15  and  C_16
REMARK    9  A    between atoms: C_16  and  N_17
REMARK   10  A    between atoms: N_17  and  C_18
REMARK   11  A    between atoms: N_17  and  C_19
REMARK   12  A    between atoms: N_22  and  C_23
REMARK   13  A    between atoms: C_30  and  C_31
REMARK                            x       y       z     vdW  Elec       q    Type
REMARK                         _______ _______ _______ _____ _____    ______ ____
ROOT
ATOM      1  C   UNL     1      -9.757  -5.923  16.370  0.00  0.00    +0.000 C 
ATOM      2  C   UNL     1     -10.820  -7.076  16.337  0.00  0.00    +0.000 C 
ATOM      3  C   UNL     1     -10.734  -8.044  17.522  0.00  0.00    +0.000 C 
ATOM      4  N   UNL     1      -9.362  -8.515  17.550  0.00  0.00    +0.000 N 
ATOM      5  C   UNL     1      -8.452  -7.480  18.014  0.00  0.00    +0.000 C 
ATOM      6  C   UNL     1      -8.393  -6.410  16.924  0.00  0.00    +0.000 C 
ATOM      7  H   UNL     1     -10.662  -7.640  15.414  0.00  0.00    +0.000 HD
ATOM      8  H   UNL     1     -11.838  -6.673  16.277  0.00  0.00    +0.000 HD
ATOM      9  H   UNL     1     -11.465  -8.845  17.448  0.00  0.00    +0.000 HD
ATOM     10  H   UNL     1     -10.981  -7.544  18.466  0.00  0.00    +0.000 HD
ATOM     11  H   UNL     1      -7.429  -7.835  18.179  0.00  0.00    +0.000 HD
ATOM     12  H   UNL     1      -8.798  -7.047  18.961  0.00  0.00    +0.000 HD
ATOM     13  H   UNL     1      -7.817  -6.847  16.093  0.00  0.00    +0.000 HD
ATOM     14  H   UNL     1      -7.823  -5.581  17.339  0.00  0.00    +0.000 HD
ENDROOT
BRANCH   4  15
ATOM     15  C   UNL     1      -9.040  -9.849  17.746  0.00  0.00    +0.000 A 
ATOM     16  N   UNL     1      -8.642 -10.208  19.006  0.00  0.00    +0.000 NA
ATOM     17  C   UNL     1      -8.235 -11.460  19.261  0.00  0.00    +0.000 A 
ATOM     18  N   UNL     1      -8.157 -12.481  18.407  0.00  0.00    +0.000 NA
ATOM     19  C   UNL     1      -8.533 -12.116  17.174  0.00  0.00    +0.000 A 
ATOM     20  N   UNL     1      -8.503 -12.973  16.116  0.00  0.00    +0.000 N 
ATOM     21  C   UNL     1      -8.877 -12.322  14.984  0.00  0.00    +0.000 A 
ATOM     22  C   UNL     1      -9.148 -11.003  15.307  0.00  0.00    +0.000 A 
ATOM     23  C   UNL     1      -8.967 -10.861  16.747  0.00  0.00    +0.000 A 
ATOM     24  H   UNL     1      -7.924 -11.664  20.282  0.00  0.00    +0.000 HD
ATOM     25  H   UNL     1      -8.203 -13.932  16.187  0.00  0.00    +0.000 HD
ATOM     26  H   UNL     1      -8.888 -12.831  14.027  0.00  0.00    +0.000 HD
BRANCH  22  27
ATOM     27  C   UNL     1      -9.498  -9.993  14.276  0.00  0.00    +0.000 C 
ATOM     28  H   UNL     1      -8.830 -10.061  13.414  0.00  0.00    +0.000 HD
ATOM     29  H   UNL     1      -9.379  -8.990  14.678  0.00  0.00    +0.000 HD
ATOM     30  H   UNL     1     -10.511 -10.142  13.891  0.00  0.00    +0.000 HD
ENDBRANCH  22  27
ENDBRANCH   4  15
BRANCH   1  32
ATOM     31  N   UNL     1      -9.404  -3.974  17.827  0.00  0.00    +0.000 N 
ATOM     32  C   UNL     1     -10.339  -4.829  17.288  0.00  0.00    +0.000 C 
ATOM     33  O   UNL     1     -11.539  -4.802  17.557  0.00  0.00    +0.000 OA
ATOM     34  H   UNL     1      -8.432  -4.147  17.560  0.00  0.00    +0.000 HD
BRANCH  31  39
ATOM     35  C   UNL     1      -9.708  -1.788  20.780  0.00  0.00    +0.000 A 
ATOM     36  C   UNL     1      -9.977  -0.549  20.199  0.00  0.00    +0.000 A 
ATOM     37  C   UNL     1     -10.086  -0.441  18.812  0.00  0.00    +0.000 A 
ATOM     38  C   UNL     1      -9.929  -1.568  18.004  0.00  0.00    +0.000 A 
ATOM     39  C   UNL     1      -9.632  -2.805  18.574  0.00  0.00    +0.000 A 
ATOM     40  C   UNL     1      -9.508  -2.903  19.964  0.00  0.00    +0.000 A 
ATOM     41  H   UNL     1     -10.083   0.353  20.787  0.00  0.00    +0.000 HD
ATOM     42  H   UNL     1     -10.279   0.524  18.354  0.00  0.00    +0.000 HD
ATOM     43  H   UNL     1     -10.007  -1.438  16.929  0.00  0.00    +0.000 HD
ATOM     44  H   UNL     1      -9.274  -3.858  20.429  0.00  0.00    +0.000 HD
BRANCH  35  45
ATOM     45  O   UNL     1      -9.574  -2.019  22.121  0.00  0.00    +0.000 OA
BRANCH  45  46
ATOM     46  C   UNL     1     -10.710  -1.713  22.922  0.00  0.00    +0.000 C 
ATOM     47  H   UNL     1     -10.696  -0.660  23.220  0.00  0.00    +0.000 HD
ATOM     48  H   UNL     1     -11.628  -1.963  22.375  0.00  0.00    +0.000 HD
BRANCH  46  49
ATOM     49  C   UNL     1     -10.692  -2.527  24.205  0.00  0.00    +0.000 C 
ATOM     50  O   UNL     1     -11.662  -3.019  24.766  0.00  0.00    +0.000 OA
BRANCH  49  51
ATOM     51  O   UNL     1      -9.399  -2.655  24.636  0.00  0.00    +0.000 OA
BRANCH  51  52
ATOM     52  C   UNL     1      -9.159  -2.082  25.922  0.00  0.00    +0.000 C 
ATOM     53  H   UNL     1      -9.040  -2.899  26.638  0.00  0.00    +0.000 HD
ATOM     54  H   UNL     1     -10.015  -1.473  26.230  0.00  0.00    +0.000 HD
ATOM     55  H   UNL     1      -8.240  -1.488  25.919  0.00  0.00    +0.000 HD
ENDBRANCH  51  52
ENDBRANCH  49  51
ENDBRANCH  46  49
ENDBRANCH  45  46
ENDBRANCH  35  45
ENDBRANCH  31  39
ENDBRANCH   1  32
BRANCH   1  56
ATOM     56  C   UNL     1      -9.604  -5.408  14.882  0.00  0.00    +0.000 C 
ATOM     57  H   UNL     1     -10.192  -6.110  14.270  0.00  0.00    +0.000 HD
ATOM     58  H   UNL     1      -8.560  -5.530  14.564  0.00  0.00    +0.000 HD
BRANCH  56  59
ATOM     59  N   UNL     1     -10.068  -4.041  14.510  0.00  0.00    +0.000 NA
BRANCH  59  60
ATOM     60  C   UNL     1      -9.229  -3.326  13.543  0.00  0.00    +0.000 C 
ATOM     61  H   UNL     1      -9.518  -2.287  13.416  0.00  0.00    +0.000 HD
ATOM     62  H   UNL     1      -9.371  -3.761  12.546  0.00  0.00    +0.000 HD
ATOM     63  H   UNL     1      -8.163  -3.369  13.791  0.00  0.00    +0.000 HD
ENDBRANCH  59  60
BRANCH  59  64
ATOM     64  C   UNL     1     -11.414  -4.137  13.906  0.00  0.00    +0.000 C 
ATOM     65  H   UNL     1     -12.154  -4.501  14.626  0.00  0.00    +0.000 HD
ATOM     66  H   UNL     1     -11.421  -4.805  13.036  0.00  0.00    +0.000 HD
ATOM     67  H   UNL     1     -11.753  -3.147  13.578  0.00  0.00    +0.000 HD
ENDBRANCH  59  64
ENDBRANCH  56  59
ENDBRANCH   1  56
TORSDOF 13
ENDMDL
MODEL 2
REMARK VINA RESULT:    -8.902      2.061      3.582
REMARK INTER + INTRA:         -16.421
REMARK INTER:                 -15.315
REMARK INTRA:                  -1.107
REMARK UNBOUND:                -1.795
REMARK  Name = 
REMARK  13 active torsions:
REMARK  status: ('A' for Active; 'I' for Inactive)
REMARK    1  A    between atoms: C_1  and  O_2
REMARK    2  A    between atoms: O_2  and  C_3
REMARK    3  A    between atoms: C_3  and  C_5
REMARK    4  A    between atoms: C_5  and  O_6
REMARK    5  A    between atoms: O_6  and  C_7
REMARK    6  A    between atoms: C_11  and  N_12
REMARK    7  A    between atoms: C_13  and  C_15
REMARK    8  A    between atoms: C_15  and  C_16
REMARK    9  A    between atoms: C_16  and  N_17
REMARK   10  A    between atoms: N_17  and  C_18
REMARK   11  A    between atoms: N_17  and  C_19
REMARK   12  A    between atoms: N_22  and  C_23
REMARK   13  A    between atoms: C_30  and  C_31
REMARK                            x       y       z     vdW  Elec       q    Type
REMARK                         _______ _______ _______ _____ _____    ______ ____
ROOT
ATOM      1  C   UNL     1      -8.212  -6.005  19.178  0.00  0.00    +0.000 C 
ATOM      2  C   UNL     1      -7.495  -6.228  17.801  0.00  0.00    +0.000 C 
ATOM      3  C   UNL     1      -8.380  -6.877  16.730  0.00  0.00    +0.000 C 
ATOM      4  N   UNL     1      -8.894  -8.096  17.326  0.00  0.00    +0.000 N 
ATOM      5  C   UNL     1      -9.902  -7.812  18.335  0.00  0.00    +0.000 C 
ATOM      6  C   UNL     1      -9.184  -7.165  19.519  0.00  0.00    +0.000 C 
ATOM      7  H   UNL     1      -6.635  -6.877  17.982  0.00  0.00    +0.000 HD
ATOM      8  H   UNL     1      -7.090  -5.287  17.410  0.00  0.00    +0.000 HD
ATOM      9  H   UNL     1      -7.840  -7.043  15.801  0.00  0.00    +0.000 HD
ATOM     10  H   UNL     1      -9.208  -6.218  16.443  0.00  0.00    +0.000 HD
ATOM     11  H   UNL     1     -10.411  -8.706  18.711  0.00  0.00    +0.000 HD
ATOM     12  H   UNL     1     -10.677  -7.143  17.941  0.00  0.00    +0.000 HD
ATOM     13  H   UNL     1      -8.608  -7.966  20.008  0.00  0.00    +0.000 HD
ATOM     14  H   UNL     1      -9.961  -6.832  20.205  0.00  0.00    +0.000 HD
ENDROOT
BRANCH   4  15
ATOM     15  C   UNL     1      -8.933  -9.298  16.637  0.00  0.00    +0.000 A 
ATOM     16  N   UNL     1      -9.332  -9.246  15.328  0.00  0.00    +0.000 NA
ATOM     17  C   UNL     1      -9.476 -10.371  14.615  0.00  0.00    +0.000 A 
ATOM     18  N   UNL     1      -9.270 -11.625  15.021  0.00  0.00    +0.000 NA
ATOM     19  C   UNL     1      -8.896 -11.667  16.306  0.00  0.00    +0.000 A 
ATOM     20  N   UNL     1      -8.666 -12.837  16.964  0.00  0.00    +0.000 N 
ATOM     21  C   UNL     1      -8.362 -12.584  18.263  0.00  0.00    +0.000 A 
ATOM     22  C   UNL     1      -8.405 -11.215  18.464  0.00  0.00    +0.000 A 
ATOM     23  C   UNL     1      -8.714 -10.596  17.181  0.00  0.00    +0.000 A 
ATOM     24  H   UNL     1      -9.806 -10.249  13.586  0.00  0.00    +0.000 HD
ATOM     25  H   UNL     1      -8.755 -13.743  16.532  0.00  0.00    +0.000 HD
ATOM     26  H   UNL     1      -8.173 -13.394  18.958  0.00  0.00    +0.000 HD
BRANCH  22  27
ATOM     27  C   UNL     1      -8.210 -10.607  19.805  0.00  0.00    +0.000 C 
ATOM     28  H   UNL     1      -9.139 -10.615  20.381  0.00  0.00    +0.000 HD
ATOM     29  H   UNL     1      -7.919  -9.563  19.705  0.00  0.00    +0.000 HD
ATOM     30  H   UNL     1      -7.477 -11.162  20.398  0.00  0.00    +0.000 HD
ENDBRANCH  22  27
ENDBRANCH   4  15
BRANCH   1  32
ATOM     31  N   UNL     1      -8.841  -3.814  20.101  0.00  0.00    +0.000 N 
ATOM     32  C   UNL     1      -8.996  -4.683  19.045  0.00  0.00    +0.000 C 
ATOM     33  O   UNL     1      -9.751  -4.490  18.093  0.00  0.00    +0.000 OA
ATOM     34  H   UNL     1      -8.223  -4.128  20.853  0.00  0.00    +0.000 HD
BRANCH  31  39
ATOM     35  C   UNL     1     -10.023  -0.700  21.682  0.00  0.00    +0.000 A 
ATOM     36  C   UNL     1     -10.153   0.152  20.586  0.00  0.00    +0.000 A 
ATOM     37  C   UNL     1      -9.871  -0.318  19.303  0.00  0.00    +0.000 A 
ATOM     38  C   UNL     1      -9.462  -1.639  19.111  0.00  0.00    +0.000 A 
ATOM     39  C   UNL     1      -9.303  -2.490  20.204  0.00  0.00    +0.000 A 
ATOM     40  C   UNL     1      -9.571  -2.007  21.489  0.00  0.00    +0.000 A 
ATOM     41  H   UNL     1     -10.445   1.189  20.693  0.00  0.00    +0.000 HD
ATOM     42  H   UNL     1      -9.955   0.346  18.448  0.00  0.00    +0.000 HD
ATOM     43  H   UNL     1      -9.239  -1.960  18.099  0.00  0.00    +0.000 HD
ATOM     44  H   UNL     1      -9.450  -2.653  22.356  0.00  0.00    +0.000 HD
BRANCH  35  45
ATOM     45  O   UNL     1     -10.265  -0.356  22.983  0.00  0.00    +0.000 OA
BRANCH  45  46
ATOM     46  C   UNL     1     -10.223  -1.421  23.926  0.00  0.00    +0.000 C 
ATOM     47  H   UNL     1     -11.201  -1.553  24.399  0.00  0.00    +0.000 HD
ATOM     48  H   UNL     1      -9.889  -2.342  23.432  0.00  0.00    +0.000 HD
BRANCH  46  49
ATOM     49  C   UNL     1      -9.240  -1.105  25.043  0.00  0.00    +0.000 C 
ATOM     50  O   UNL     1      -8.843   0.007  25.366  0.00  0.00    +0.000 OA
BRANCH  49  51
ATOM     51  O   UNL     1      -8.877  -2.270  25.663  0.00  0.00    +0.000 OA
BRANCH  51  52
ATOM     52  C   UNL     1      -8.562  -3.331  24.760  0.00  0.00    +0.000 C 
ATOM     53  H   UNL     1      -7.488  -3.522  24.826  0.00  0.00    +0.000 HD
ATOM     54  H   UNL     1      -8.800  -3.037  23.734  0.00  0.00    +0.000 HD
ATOM     55  H   UNL     1      -9.094  -4.247  25.037  0.00  0.00    +0.000 HD
ENDBRANCH  51  52
ENDBRANCH  49  51
ENDBRANCH  46  49
ENDBRANCH  45  46
ENDBRANCH  35  45
ENDBRANCH  31  39
ENDBRANCH   1  32
BRANCH   1  56
ATOM     56  C   UNL     1      -7.071  -5.893  20.267  0.00  0.00    +0.000 C 
ATOM     57  H   UNL     1      -6.624  -6.898  20.325  0.00  0.00    +0.000 HD
ATOM     58  H   UNL     1      -7.527  -5.708  21.250  0.00  0.00    +0.000 HD
BRANCH  56  59
ATOM     59  N   UNL     1      -5.938  -4.944  20.072  0.00  0.00    +0.000 NA
BRANCH  59  60
ATOM     60  C   UNL     1      -5.654  -4.052  21.202  0.00  0.00    +0.000 C 
ATOM     61  H   UNL     1      -4.932  -4.467  21.900  0.00  0.00    +0.000 HD
ATOM     62  H   UNL     1      -6.561  -3.930  21.806  0.00  0.00    +0.000 HD
ATOM     63  H   UNL     1      -5.311  -3.061  20.886  0.00  0.00    +0.000 HD
ENDBRANCH  59  60
BRANCH  59  64
ATOM     64  C   UNL     1      -4.700  -5.714  19.826  0.00  0.00    +0.000 C 
ATOM     65  H   UNL     1      -4.632  -6.046  18.785  0.00  0.00    +0.000 HD
ATOM     66  H   UNL     1      -4.638  -6.598  20.475  0.00  0.00    +0.000 HD
ATOM     67  H   UNL     1      -3.820  -5.089  20.018  0.00  0.00    +0.000 HD
ENDBRANCH  59  64
ENDBRANCH  56  59
ENDBRANCH   1  56
TORSDOF 13
ENDMDL
MODEL 3
REMARK VINA RESULT:    -8.816      1.938      2.415
REMARK INTER + INTRA:         -16.281
REMARK INTER:                 -15.840
REMARK INTRA:                  -0.441
REMARK UNBOUND:                -1.795
REMARK  Name = 
REMARK  13 active torsions:
REMARK  status: ('A' for Active; 'I' for Inactive)
REMARK    1  A    between atoms: C_1  and  O_2
REMARK    2  A    between atoms: O_2  and  C_3
REMARK    3  A    between atoms: C_3  and  C_5
REMARK    4  A    between atoms: C_5  and  O_6
REMARK    5  A    between atoms: O_6  and  C_7
REMARK    6  A    between atoms: C_11  and  N_12
REMARK    7  A    between atoms: C_13  and  C_15
REMARK    8  A    between atoms: C_15  and  C_16
REMARK    9  A    between atoms: C_16  and  N_17
REMARK   10  A    between atoms: N_17  and  C_18
REMARK   11  A    between atoms: N_17  and  C_19
REMARK   12  A    between atoms: N_22  and  C_23
REMARK   13  A    between atoms: C_30  and  C_31
REMARK                            x       y       z     vdW  Elec       q    Type
REMARK                         _______ _______ _______ _____ _____    ______ ____
ROOT
ATOM      1  C   UNL     1      -9.992  -5.931  17.818  0.00  0.00    +0.000 C 
ATOM      2  C   UNL     1     -10.609  -6.993  18.793  0.00  0.00    +0.000 C 
ATOM      3  C   UNL     1      -9.618  -8.066  19.260  0.00  0.00    +0.000 C 
ATOM      4  N   UNL     1      -9.056  -8.639  18.051  0.00  0.00    +0.000 N 
ATOM      5  C   UNL     1      -8.133  -7.721  17.406  0.00  0.00    +0.000 C 
ATOM      6  C   UNL     1      -8.963  -6.566  16.846  0.00  0.00    +0.000 C 
ATOM      7  H   UNL     1     -11.430  -7.483  18.265  0.00  0.00    +0.000 HD
ATOM      8  H   UNL     1     -11.055  -6.511  19.671  0.00  0.00    +0.000 HD
ATOM      9  H   UNL     1     -10.089  -8.800  19.909  0.00  0.00    +0.000 HD
ATOM     10  H   UNL     1      -8.823  -7.634  19.878  0.00  0.00    +0.000 HD
ATOM     11  H   UNL     1      -7.584  -8.164  16.567  0.00  0.00    +0.000 HD
ATOM     12  H   UNL     1      -7.384  -7.348  18.116  0.00  0.00    +0.000 HD
ATOM     13  H   UNL     1      -9.509  -6.969  15.979  0.00  0.00    +0.000 HD
ATOM     14  H   UNL     1      -8.253  -5.821  16.490  0.00  0.00    +0.000 HD
ENDROOT
BRANCH   4  15
ATOM     15  C   UNL     1      -8.892 -10.006  17.886  0.00  0.00    +0.000 A 
ATOM     16  N   UNL     1      -8.546 -10.724  19.000  0.00  0.00    +0.000 NA
ATOM     17  C   UNL     1      -8.288 -12.036  18.910  0.00  0.00    +0.000 A 
ATOM     18  N   UNL     1      -8.323 -12.801  17.817  0.00  0.00    +0.000 NA
ATOM     19  C   UNL     1      -8.646 -12.086  16.731  0.00  0.00    +0.000 A 
ATOM     20  N   UNL     1      -8.708 -12.634  15.486  0.00  0.00    +0.000 N 
ATOM     21  C   UNL     1      -8.997 -11.672  14.572  0.00  0.00    +0.000 A 
ATOM     22  C   UNL     1      -9.117 -10.462  15.234  0.00  0.00    +0.000 A 
ATOM     23  C   UNL     1      -8.930 -10.722  16.656  0.00  0.00    +0.000 A 
ATOM     24  H   UNL     1      -8.010 -12.534  19.835  0.00  0.00    +0.000 HD
ATOM     25  H   UNL     1      -8.521 -13.607  15.299  0.00  0.00    +0.000 HD
ATOM     26  H   UNL     1      -9.061 -11.909  13.517  0.00  0.00    +0.000 HD
BRANCH  22  27
ATOM     27  C   UNL     1      -9.340  -9.185  14.510  0.00  0.00    +0.000 C 
ATOM     28  H   UNL     1      -9.476  -9.356  13.439  0.00  0.00    +0.000 HD
ATOM     29  H   UNL     1      -8.470  -8.539  14.610  0.00  0.00    +0.000 HD
ATOM     30  H   UNL     1     -10.246  -8.677  14.856  0.00  0.00    +0.000 HD
ENDBRANCH  22  27
ENDBRANCH   4  15
BRANCH   1  32
ATOM     31  N   UNL     1      -8.380  -5.398  19.597  0.00  0.00    +0.000 N 
ATOM     32  C   UNL     1      -9.297  -4.881  18.709  0.00  0.00    +0.000 C 
ATOM     33  O   UNL     1      -9.619  -3.696  18.658  0.00  0.00    +0.000 OA
ATOM     34  H   UNL     1      -8.251  -6.412  19.568  0.00  0.00    +0.000 HD
BRANCH  31  39
ATOM     35  C   UNL     1      -7.242  -3.212  22.338  0.00  0.00    +0.000 A 
ATOM     36  C   UNL     1      -5.855  -3.295  22.221  0.00  0.00    +0.000 A 
ATOM     37  C   UNL     1      -5.288  -4.064  21.203  0.00  0.00    +0.000 A 
ATOM     38  C   UNL     1      -6.104  -4.748  20.300  0.00  0.00    +0.000 A 
ATOM     39  C   UNL     1      -7.492  -4.693  20.428  0.00  0.00    +0.000 A 
ATOM     40  C   UNL     1      -8.052  -3.934  21.461  0.00  0.00    +0.000 A 
ATOM     41  H   UNL     1      -5.186  -2.799  22.913  0.00  0.00    +0.000 HD
ATOM     42  H   UNL     1      -4.209  -4.145  21.117  0.00  0.00    +0.000 HD
ATOM     43  H   UNL     1      -5.624  -5.346  19.533  0.00  0.00    +0.000 HD
ATOM     44  H   UNL     1      -9.132  -3.880  21.580  0.00  0.00    +0.000 HD
BRANCH  35  45
ATOM     45  O   UNL     1      -7.912  -2.498  23.293  0.00  0.00    +0.000 OA
BRANCH  45  46
ATOM     46  C   UNL     1      -8.519  -3.263  24.329  0.00  0.00    +0.000 C 
ATOM     47  H   UNL     1      -8.918  -4.200  23.930  0.00  0.00    +0.000 HD
ATOM     48  H   UNL     1      -7.792  -3.445  25.131  0.00  0.00    +0.000 HD
BRANCH  46  49
ATOM     49  C   UNL     1      -9.696  -2.509  24.926  0.00  0.00    +0.000 C 
ATOM     50  O   UNL     1     -10.881  -2.771  24.766  0.00  0.00    +0.000 OA
BRANCH  49  51
ATOM     51  O   UNL     1      -9.225  -1.488  25.707  0.00  0.00    +0.000 OA
BRANCH  51  52
ATOM     52  C   UNL     1      -8.863  -1.891  27.028  0.00  0.00    +0.000 C 
ATOM     53  H   UNL     1      -9.682  -1.621  27.700  0.00  0.00    +0.000 HD
ATOM     54  H   UNL     1      -7.961  -1.363  27.351  0.00  0.00    +0.000 HD
ATOM     55  H   UNL     1      -8.719  -2.975  27.078  0.00  0.00    +0.000 HD
ENDBRANCH  51  52
ENDBRANCH  49  51
ENDBRANCH  46  49
ENDBRANCH  45  46
ENDBRANCH  35  45
ENDBRANCH  31  39
ENDBRANCH   1  32
BRANCH   1  56
ATOM     56  C   UNL     1     -11.201  -5.299  17.017  0.00  0.00    +0.000 C 
ATOM     57  H   UNL     1     -11.850  -4.843  17.781  0.00  0.00    +0.000 HD
ATOM     58  H   UNL     1     -11.792  -6.105  16.560  0.00  0.00    +0.000 HD
BRANCH  56  59
ATOM     59  N   UNL     1     -10.953  -4.241  15.996  0.00  0.00    +0.000 NA
BRANCH  59  60
ATOM     60  C   UNL     1     -11.178  -4.637  14.602  0.00  0.00    +0.000 C 
ATOM     61  H   UNL     1     -12.191  -4.987  14.418  0.00  0.00    +0.000 HD
ATOM     62  H   UNL     1     -10.554  -5.508  14.366  0.00  0.00    +0.000 HD
ATOM     63  H   UNL     1     -10.945  -3.839  13.889  0.00  0.00    +0.000 HD
ENDBRANCH  59  60
BRANCH  59  64
ATOM     64  C   UNL     1     -11.855  -3.099  16.257  0.00  0.00    +0.000 C 
ATOM     65  H   UNL     1     -11.572  -2.219  15.669  0.00  0.00    +0.000 HD
ATOM     66  H   UNL     1     -11.857  -2.819  17.318  0.00  0.00    +0.000 HD
ATOM     67  H   UNL     1     -12.882  -3.354  15.970  0.00  0.00    +0.000 HD
ENDBRANCH  59  64
ENDBRANCH  56  59
ENDBRANCH   1  56
TORSDOF 13
ENDMDL
MODEL 4
REMARK VINA RESULT:    -8.766      1.999      2.991
REMARK INTER + INTRA:         -16.198
REMARK INTER:                 -16.266
REMARK INTRA:                   0.068
REMARK UNBOUND:                -1.795
REMARK  Name = 
REMARK  13 active torsions:
REMARK  status: ('A' for Active; 'I' for Inactive)
REMARK    1  A    between atoms: C_1  and  O_2
REMARK    2  A    between atoms: O_2  and  C_3
REMARK    3  A    between atoms: C_3  and  C_5
REMARK    4  A    between atoms: C_5  and  O_6
REMARK    5  A    between atoms: O_6  and  C_7
REMARK    6  A    between atoms: C_11  and  N_12
REMARK    7  A    between atoms: C_13  and  C_15
REMARK    8  A    between atoms: C_15  and  C_16
REMARK    9  A    between atoms: C_16  and  N_17
REMARK   10  A    between atoms: N_17  and  C_18
REMARK   11  A    between atoms: N_17  and  C_19
REMARK   12  A    between atoms: N_22  and  C_23
REMARK   13  A    between atoms: C_30  and  C_31
REMARK                            x       y       z     vdW  Elec       q    Type
REMARK                         _______ _______ _______ _____ _____    ______ ____
ROOT
ATOM      1  C   UNL     1     -10.291  -5.297  17.502  0.00  0.00    +0.000 C 
ATOM      2  C   UNL     1     -10.851  -6.557  18.249  0.00  0.00    +0.000 C 
ATOM      3  C   UNL     1      -9.840  -7.699  18.399  0.00  0.00    +0.000 C 
ATOM      4  N   UNL     1      -9.359  -7.981  17.060  0.00  0.00    +0.000 N 
ATOM      5  C   UNL     1      -8.472  -6.932  16.581  0.00  0.00    +0.000 C 
ATOM      6  C   UNL     1      -9.329  -5.688  16.349  0.00  0.00    +0.000 C 
ATOM      7  H   UNL     1     -11.708  -6.923  17.677  0.00  0.00    +0.000 HD
ATOM      8  H   UNL     1     -11.239  -6.289  19.239  0.00  0.00    +0.000 HD
ATOM      9  H   UNL     1     -10.273  -8.565  18.894  0.00  0.00    +0.000 HD
ATOM     10  H   UNL     1      -9.005  -7.411  19.048  0.00  0.00    +0.000 HD
ATOM     11  H   UNL     1      -7.980  -7.171  15.632  0.00  0.00    +0.000 HD
ATOM     12  H   UNL     1      -7.678  -6.723  17.309  0.00  0.00    +0.000 HD
ATOM     13  H   UNL     1      -9.931  -5.890  15.450  0.00  0.00    +0.000 HD
ATOM     14  H   UNL     1      -8.639  -4.876  16.127  0.00  0.00    +0.000 HD
ENDROOT
BRANCH   4  15
ATOM     15  C   UNL     1      -9.213  -9.273  16.581  0.00  0.00    +0.000 A 
ATOM     16  N   UNL     1      -9.582  -9.494  15.281  0.00  0.00    +0.000 NA
ATOM     17  C   UNL     1      -9.549 -10.730  14.764  0.00  0.00    +0.000 A 
ATOM     18  N   UNL     1      -9.182 -11.859  15.374  0.00  0.00    +0.000 NA
ATOM     19  C   UNL     1      -8.838 -11.635  16.650  0.00  0.00    +0.000 A 
ATOM     20  N   UNL     1      -8.464 -12.636  17.493  0.00  0.00    +0.000 N 
ATOM     21  C   UNL     1      -8.231 -12.132  18.733  0.00  0.00    +0.000 A 
ATOM     22  C   UNL     1      -8.470 -10.769  18.703  0.00  0.00    +0.000 A 
ATOM     23  C   UNL     1      -8.829 -10.419  17.334  0.00  0.00    +0.000 A 
ATOM     24  H   UNL     1      -9.867 -10.827  13.730  0.00  0.00    +0.000 HD
ATOM     25  H   UNL     1      -8.416 -13.604  17.217  0.00  0.00    +0.000 HD
ATOM     26  H   UNL     1      -7.949 -12.782  19.553  0.00  0.00    +0.000 HD
BRANCH  22  27
ATOM     27  C   UNL     1      -8.396  -9.927  19.924  0.00  0.00    +0.000 C 
ATOM     28  H   UNL     1      -7.887  -8.982  19.722  0.00  0.00    +0.000 HD
ATOM     29  H   UNL     1      -7.814 -10.431  20.693  0.00  0.00    +0.000 HD
ATOM     30  H   UNL     1      -9.391  -9.666  20.295  0.00  0.00    +0.000 HD
ENDBRANCH  22  27
ENDBRANCH   4  15
BRANCH   1  32
ATOM     31  N   UNL     1      -8.596  -5.176  19.279  0.00  0.00    +0.000 N 
ATOM     32  C   UNL     1      -9.535  -4.470  18.562  0.00  0.00    +0.000 C 
ATOM     33  O   UNL     1      -9.830  -3.295  18.774  0.00  0.00    +0.000 OA
ATOM     34  H   UNL     1      -8.493  -6.163  19.033  0.00  0.00    +0.000 HD
BRANCH  31  39
ATOM     35  C   UNL     1      -7.292  -3.397  22.233  0.00  0.00    +0.000 A 
ATOM     36  C   UNL     1      -5.928  -3.676  22.163  0.00  0.00    +0.000 A 
ATOM     37  C   UNL     1      -5.429  -4.441  21.108  0.00  0.00    +0.000 A 
ATOM     38  C   UNL     1      -6.289  -4.926  20.122  0.00  0.00    +0.000 A 
ATOM     39  C   UNL     1      -7.658  -4.676  20.199  0.00  0.00    +0.000 A 
ATOM     40  C   UNL     1      -8.154  -3.922  21.269  0.00  0.00    +0.000 A 
ATOM     41  H   UNL     1      -5.230  -3.338  22.919  0.00  0.00    +0.000 HD
ATOM     42  H   UNL     1      -4.369  -4.675  21.058  0.00  0.00    +0.000 HD
ATOM     43  H   UNL     1      -5.862  -5.529  19.327  0.00  0.00    +0.000 HD
ATOM     44  H   UNL     1      -9.219  -3.718  21.350  0.00  0.00    +0.000 HD
BRANCH  35  45
ATOM     45  O   UNL     1      -7.899  -2.666  23.217  0.00  0.00    +0.000 OA
BRANCH  45  46
ATOM     46  C   UNL     1      -8.584  -3.414  24.215  0.00  0.00    +0.000 C 
ATOM     47  H   UNL     1      -9.027  -4.316  23.781  0.00  0.00    +0.000 HD
ATOM     48  H   UNL     1      -7.896  -3.660  25.034  0.00  0.00    +0.000 HD
BRANCH  46  49
ATOM     49  C   UNL     1      -9.732  -2.603  24.795  0.00  0.00    +0.000 C 
ATOM     50  O   UNL     1     -10.925  -2.843  24.671  0.00  0.00    +0.000 OA
BRANCH  49  51
ATOM     51  O   UNL     1      -9.221  -1.555  25.513  0.00  0.00    +0.000 OA
BRANCH  51  52
ATOM     52  C   UNL     1      -8.950  -1.870  26.880  0.00  0.00    +0.000 C 
ATOM     53  H   UNL     1      -9.903  -2.073  27.374  0.00  0.00    +0.000 HD
ATOM     54  H   UNL     1      -8.476  -1.019  27.377  0.00  0.00    +0.000 HD
ATOM     55  H   UNL     1      -8.324  -2.765  26.956  0.00  0.00    +0.000 HD
ENDBRANCH  51  52
ENDBRANCH  49  51
ENDBRANCH  46  49
ENDBRANCH  45  46
ENDBRANCH  35  45
ENDBRANCH  31  39
ENDBRANCH   1  32
BRANCH   1  56
ATOM     56  C   UNL     1     -11.545  -4.511  16.941  0.00  0.00    +0.000 C 
ATOM     57  H   UNL     1     -11.952  -3.961  17.803  0.00  0.00    +0.000 HD
ATOM     58  H   UNL     1     -12.320  -5.232  16.648  0.00  0.00    +0.000 HD
BRANCH  56  59
ATOM     59  N   UNL     1     -11.375  -3.510  15.850  0.00  0.00    +0.000 NA
BRANCH  59  60
ATOM     60  C   UNL     1     -11.753  -3.963  14.507  0.00  0.00    +0.000 C 
ATOM     61  H   UNL     1     -10.906  -4.315  13.924  0.00  0.00    +0.000 HD
ATOM     62  H   UNL     1     -12.132  -3.112  13.929  0.00  0.00    +0.000 HD
ATOM     63  H   UNL     1     -12.520  -4.744  14.522  0.00  0.00    +0.000 HD
ENDBRANCH  59  60
BRANCH  59  64
ATOM     64  C   UNL     1     -12.215  -2.329  16.145  0.00  0.00    +0.000 C 
ATOM     65  H   UNL     1     -12.486  -2.282  17.204  0.00  0.00    +0.000 HD
ATOM     66  H   UNL     1     -13.138  -2.331  15.551  0.00  0.00    +0.000 HD
ATOM     67  H   UNL     1     -11.666  -1.407  15.917  0.00  0.00    +0.000 HD
ENDBRANCH  59  64
ENDBRANCH  56  59
ENDBRANCH   1  56
TORSDOF 13
ENDMDL
MODEL 5
REMARK VINA RESULT:    -8.659      1.817      2.989
REMARK INTER + INTRA:         -16.022
REMARK INTER:                 -15.675
REMARK INTRA:                  -0.347
REMARK UNBOUND:                -1.795
REMARK  Name = 
REMARK  13 active torsions:
REMARK  status: ('A' for Active; 'I' for Inactive)
REMARK    1  A    between atoms: C_1  and  O_2
REMARK    2  A    between atoms: O_2  and  C_3
REMARK    3  A    between atoms: C_3  and  C_5
REMARK    4  A    between atoms: C_5  and  O_6
REMARK    5  A    between atoms: O_6  and  C_7
REMARK    6  A    between atoms: C_11  and  N_12
REMARK    7  A    between atoms: C_13  and  C_15
REMARK    8  A    between atoms: C_15  and  C_16
REMARK    9  A    between atoms: C_16  and  N_17
REMARK   10  A    between atoms: N_17  and  C_18
REMARK   11  A    between atoms: N_17  and  C_19
REMARK   12  A    between atoms: N_22  and  C_23
REMARK   13  A    between atoms: C_30  and  C_31
REMARK                            x       y       z     vdW  Elec       q    Type
REMARK                         _______ _______ _______ _____ _____    ______ ____
ROOT
ATOM      1  C   UNL     1      -8.283  -6.636  18.507  0.00  0.00    +0.000 C 
ATOM      2  C   UNL     1      -8.304  -7.299  17.086  0.00  0.00    +0.000 C 
ATOM      3  C   UNL     1      -9.259  -8.492  16.964  0.00  0.00    +0.000 C 
ATOM      4  N   UNL     1      -8.891  -9.405  18.030  0.00  0.00    +0.000 N 
ATOM      5  C   UNL     1      -9.300  -8.899  19.330  0.00  0.00    +0.000 C 
ATOM      6  C   UNL     1      -8.419  -7.688  19.639  0.00  0.00    +0.000 C 
ATOM      7  H   UNL     1      -7.289  -7.642  16.870  0.00  0.00    +0.000 HD
ATOM      8  H   UNL     1      -8.548  -6.564  16.310  0.00  0.00    +0.000 HD
ATOM      9  H   UNL     1      -9.224  -8.943  15.976  0.00  0.00    +0.000 HD
ATOM     10  H   UNL     1     -10.304  -8.180  17.077  0.00  0.00    +0.000 HD
ATOM     11  H   UNL     1      -9.163  -9.618  20.145  0.00  0.00    +0.000 HD
ATOM     12  H   UNL     1     -10.360  -8.614  19.328  0.00  0.00    +0.000 HD
ATOM     13  H   UNL     1      -7.417  -8.084  19.866  0.00  0.00    +0.000 HD
ATOM     14  H   UNL     1      -8.824  -7.237  20.543  0.00  0.00    +0.000 HD
ENDROOT
BRANCH   4  15
ATOM     15  C   UNL     1      -8.784 -10.773  17.830  0.00  0.00    +0.000 A 
ATOM     16  N   UNL     1      -8.594 -11.545  18.945  0.00  0.00    +0.000 NA
ATOM     17  C   UNL     1      -8.399 -12.866  18.832  0.00  0.00    +0.000 A 
ATOM     18  N   UNL     1      -8.361 -13.592  17.713  0.00  0.00    +0.000 NA
ATOM     19  C   UNL     1      -8.531 -12.825  16.627  0.00  0.00    +0.000 A 
ATOM     20  N   UNL     1      -8.492 -13.328  15.363  0.00  0.00    +0.000 N 
ATOM     21  C   UNL     1      -8.633 -12.322  14.461  0.00  0.00    +0.000 A 
ATOM     22  C   UNL     1      -8.756 -11.129  15.153  0.00  0.00    +0.000 A 
ATOM     23  C   UNL     1      -8.732 -11.446  16.576  0.00  0.00    +0.000 A 
ATOM     24  H   UNL     1      -8.245 -13.410  19.760  0.00  0.00    +0.000 HD
ATOM     25  H   UNL     1      -8.339 -14.303  15.158  0.00  0.00    +0.000 HD
ATOM     26  H   UNL     1      -8.599 -12.521  13.397  0.00  0.00    +0.000 HD
BRANCH  22  27
ATOM     27  C   UNL     1      -8.834  -9.819  14.459  0.00  0.00    +0.000 C 
ATOM     28  H   UNL     1      -8.078  -9.125  14.837  0.00  0.00    +0.000 HD
ATOM     29  H   UNL     1      -9.799  -9.352  14.647  0.00  0.00    +0.000 HD
ATOM     30  H   UNL     1      -8.650  -9.917  13.385  0.00  0.00    +0.000 HD
ENDBRANCH  22  27
ENDBRANCH   4  15
BRANCH   1  32
ATOM     31  N   UNL     1      -9.144  -4.334  18.417  0.00  0.00    +0.000 N 
ATOM     32  C   UNL     1      -9.480  -5.663  18.545  0.00  0.00    +0.000 C 
ATOM     33  O   UNL     1     -10.620  -6.073  18.753  0.00  0.00    +0.000 OA
ATOM     34  H   UNL     1      -8.148  -4.132  18.304  0.00  0.00    +0.000 HD
BRANCH  31  39
ATOM     35  C   UNL     1     -11.039  -1.306  19.329  0.00  0.00    +0.000 A 
ATOM     36  C   UNL     1     -11.641  -0.963  18.120  0.00  0.00    +0.000 A 
ATOM     37  C   UNL     1     -11.439  -1.761  16.992  0.00  0.00    +0.000 A 
ATOM     38  C   UNL     1     -10.639  -2.902  17.071  0.00  0.00    +0.000 A 
ATOM     39  C   UNL     1     -10.010  -3.236  18.270  0.00  0.00    +0.000 A 
ATOM     40  C   UNL     1     -10.204  -2.423  19.392  0.00  0.00    +0.000 A 
ATOM     41  H   UNL     1     -12.251  -0.076  18.009  0.00  0.00    +0.000 HD
ATOM     42  H   UNL     1     -11.893  -1.489  16.043  0.00  0.00    +0.000 HD
ATOM     43  H   UNL     1     -10.495  -3.486  16.168  0.00  0.00    +0.000 HD
ATOM     44  H   UNL     1      -9.720  -2.664  20.336  0.00  0.00    +0.000 HD
BRANCH  35  45
ATOM     45  O   UNL     1     -11.157  -0.604  20.497  0.00  0.00    +0.000 OA
BRANCH  45  46
ATOM     46  C   UNL     1     -11.980  -1.196  21.497  0.00  0.00    +0.000 C 
ATOM     47  H   UNL     1     -12.879  -0.593  21.659  0.00  0.00    +0.000 HD
ATOM     48  H   UNL     1     -12.232  -2.224  21.211  0.00  0.00    +0.000 HD
BRANCH  46  49
ATOM     49  C   UNL     1     -11.246  -1.246  22.828  0.00  0.00    +0.000 C 
ATOM     50  O   UNL     1     -10.453  -0.415  23.250  0.00  0.00    +0.000 OA
BRANCH  49  51
ATOM     51  O   UNL     1     -11.631  -2.368  23.510  0.00  0.00    +0.000 OA
BRANCH  51  52
ATOM     52  C   UNL     1     -10.837  -2.643  24.665  0.00  0.00    +0.000 C 
ATOM     53  H   UNL     1     -11.254  -2.079  25.503  0.00  0.00    +0.000 HD
ATOM     54  H   UNL     1      -9.807  -2.313  24.502  0.00  0.00    +0.000 HD
ATOM     55  H   UNL     1     -10.870  -3.709  24.914  0.00  0.00    +0.000 HD
ENDBRANCH  51  52
ENDBRANCH  49  51
ENDBRANCH  46  49
ENDBRANCH  45  46
ENDBRANCH  35  45
ENDBRANCH  31  39
ENDBRANCH   1  32
BRANCH   1  56
ATOM     56  C   UNL     1      -6.907  -5.864  18.624  0.00  0.00    +0.000 C 
ATOM     57  H   UNL     1      -7.138  -4.818  18.371  0.00  0.00    +0.000 HD
ATOM     58  H   UNL     1      -6.225  -6.222  17.840  0.00  0.00    +0.000 HD
BRANCH  56  59
ATOM     59  N   UNL     1      -6.176  -5.827  19.923  0.00  0.00    +0.000 NA
BRANCH  59  60
ATOM     60  C   UNL     1      -4.712  -5.826  19.829  0.00  0.00    +0.000 C 
ATOM     61  H   UNL     1      -4.323  -4.977  19.273  0.00  0.00    +0.000 HD
ATOM     62  H   UNL     1      -4.384  -6.694  19.244  0.00  0.00    +0.000 HD
ATOM     63  H   UNL     1      -4.223  -5.861  20.808  0.00  0.00    +0.000 HD
ENDBRANCH  59  60
BRANCH  59  64
ATOM     64  C   UNL     1      -6.550  -4.596  20.651  0.00  0.00    +0.000 C 
ATOM     65  H   UNL     1      -6.893  -4.817  21.667  0.00  0.00    +0.000 HD
ATOM     66  H   UNL     1      -7.343  -4.043  20.131  0.00  0.00    +0.000 HD
ATOM     67  H   UNL     1      -5.680  -3.935  20.748  0.00  0.00    +0.000 HD
ENDBRANCH  59  64
ENDBRANCH  56  59
ENDBRANCH   1  56
TORSDOF 13
ENDMDL
MODEL 6
REMARK VINA RESULT:    -8.452      2.834      6.622
REMARK INTER + INTRA:         -15.682
REMARK INTER:                 -15.061
REMARK INTRA:                  -0.621
REMARK UNBOUND:                -1.795
REMARK  Name = 
REMARK  13 active torsions:
REMARK  status: ('A' for Active; 'I' for Inactive)
REMARK    1  A    between atoms: C_1  and  O_2
REMARK    2  A    between atoms: O_2  and  C_3
REMARK    3  A    between atoms: C_3  and  C_5
REMARK    4  A    between atoms: C_5  and  O_6
REMARK    5  A    between atoms: O_6  and  C_7
REMARK    6  A    between atoms: C_11  and  N_12
REMARK    7  A    between atoms: C_13  and  C_15
REMARK    8  A    between atoms: C_15  and  C_16
REMARK    9  A    between atoms: C_16  and  N_17
REMARK   10  A    between atoms: N_17  and  C_18
REMARK   11  A    between atoms: N_17  and  C_19
REMARK   12  A    between atoms: N_22  and  C_23
REMARK   13  A    between atoms: C_30  and  C_31
REMARK                            x       y       z     vdW  Elec       q    Type
REMARK                         _______ _______ _______ _____ _____    ______ ____
ROOT
ATOM      1  C   UNL     1      -8.786  -5.909  18.808  0.00  0.00    +0.000 C 
ATOM      2  C   UNL     1      -7.801  -6.262  17.640  0.00  0.00    +0.000 C 
ATOM      3  C   UNL     1      -8.458  -6.994  16.464  0.00  0.00    +0.000 C 
ATOM      4  N   UNL     1      -9.122  -8.150  17.038  0.00  0.00    +0.000 N 
ATOM      5  C   UNL     1     -10.312  -7.766  17.781  0.00  0.00    +0.000 C 
ATOM      6  C   UNL     1      -9.842  -7.023  19.031  0.00  0.00    +0.000 C 
ATOM      7  H   UNL     1      -7.018  -6.901  18.054  0.00  0.00    +0.000 HD
ATOM      8  H   UNL     1      -7.295  -5.364  17.265  0.00  0.00    +0.000 HD
ATOM      9  H   UNL     1      -7.739  -7.248  15.689  0.00  0.00    +0.000 HD
ATOM     10  H   UNL     1      -9.187  -6.355  15.952  0.00  0.00    +0.000 HD
ATOM     11  H   UNL     1     -10.916  -8.617  18.114  0.00  0.00    +0.000 HD
ATOM     12  H   UNL     1     -10.966  -7.126  17.176  0.00  0.00    +0.000 HD
ATOM     13  H   UNL     1      -9.406  -7.784  19.698  0.00  0.00    +0.000 HD
ATOM     14  H   UNL     1     -10.737  -6.622  19.505  0.00  0.00    +0.000 HD
ENDROOT
BRANCH   4  15
ATOM     15  C   UNL     1      -9.050  -9.408  16.461  0.00  0.00    +0.000 A 
ATOM     16  N   UNL     1      -9.405  -9.503  15.142  0.00  0.00    +0.000 NA
ATOM     17  C   UNL     1      -9.441 -10.695  14.531  0.00  0.00    +0.000 A 
ATOM     18  N   UNL     1      -9.161 -11.889  15.056  0.00  0.00    +0.000 NA
ATOM     19  C   UNL     1      -8.831 -11.788  16.351  0.00  0.00    +0.000 A 
ATOM     20  N   UNL     1      -8.541 -12.874  17.120  0.00  0.00    +0.000 N 
ATOM     21  C   UNL     1      -8.303 -12.484  18.399  0.00  0.00    +0.000 A 
ATOM     22  C   UNL     1      -8.452 -11.110  18.472  0.00  0.00    +0.000 A 
ATOM     23  C   UNL     1      -8.758 -10.632  17.128  0.00  0.00    +0.000 A 
ATOM     24  H   UNL     1      -9.743 -10.690  13.487  0.00  0.00    +0.000 HD
ATOM     25  H   UNL     1      -8.550 -13.819  16.770  0.00  0.00    +0.000 HD
ATOM     26  H   UNL     1      -8.082 -13.212  19.170  0.00  0.00    +0.000 HD
BRANCH  22  27
ATOM     27  C   UNL     1      -8.350 -10.371  19.756  0.00  0.00    +0.000 C 
ATOM     28  H   UNL     1      -8.393 -11.053  20.609  0.00  0.00    +0.000 HD
ATOM     29  H   UNL     1      -9.190  -9.689  19.865  0.00  0.00    +0.000 HD
ATOM     30  H   UNL     1      -7.399  -9.836  19.840  0.00  0.00    +0.000 HD
ENDBRANCH  22  27
ENDBRANCH   4  15
BRANCH   1  32
ATOM     31  N   UNL     1      -9.987  -4.587  17.116  0.00  0.00    +0.000 N 
ATOM     32  C   UNL     1      -9.485  -4.595  18.398  0.00  0.00    +0.000 C 
ATOM     33  O   UNL     1      -9.503  -3.627  19.156  0.00  0.00    +0.000 OA
ATOM     34  H   UNL     1      -9.853  -5.446  16.577  0.00  0.00    +0.000 HD
BRANCH  31  39
ATOM     35  C   UNL     1     -11.306  -2.370  14.484  0.00  0.00    +0.000 A 
ATOM     36  C   UNL     1     -12.360  -1.734  15.139  0.00  0.00    +0.000 A 
ATOM     37  C   UNL     1     -12.621  -2.024  16.479  0.00  0.00    +0.000 A 
ATOM     38  C   UNL     1     -11.830  -2.945  17.167  0.00  0.00    +0.000 A 
ATOM     39  C   UNL     1     -10.792  -3.606  16.512  0.00  0.00    +0.000 A 
ATOM     40  C   UNL     1     -10.546  -3.323  15.164  0.00  0.00    +0.000 A 
ATOM     41  H   UNL     1     -13.012  -1.031  14.637  0.00  0.00    +0.000 HD
ATOM     42  H   UNL     1     -13.451  -1.544  16.989  0.00  0.00    +0.000 HD
ATOM     43  H   UNL     1     -12.076  -3.153  18.203  0.00  0.00    +0.000 HD
ATOM     44  H   UNL     1      -9.743  -3.829  14.633  0.00  0.00    +0.000 HD
BRANCH  35  45
ATOM     45  O   UNL     1     -10.956  -2.174  13.176  0.00  0.00    +0.000 OA
BRANCH  45  46
ATOM     46  C   UNL     1     -11.341  -3.201  12.269  0.00  0.00    +0.000 C 
ATOM     47  H   UNL     1     -10.500  -3.481  11.628  0.00  0.00    +0.000 HD
ATOM     48  H   UNL     1     -11.726  -4.065  12.827  0.00  0.00    +0.000 HD
BRANCH  46  49
ATOM     49  C   UNL     1     -12.445  -2.709  11.347  0.00  0.00    +0.000 C 
ATOM     50  O   UNL     1     -13.483  -2.157  11.687  0.00  0.00    +0.000 OA
BRANCH  49  51
ATOM     51  O   UNL     1     -12.087  -2.956  10.049  0.00  0.00    +0.000 OA
BRANCH  51  52
ATOM     52  C   UNL     1     -11.869  -4.338   9.763  0.00  0.00    +0.000 C 
ATOM     53  H   UNL     1     -11.488  -4.814  10.670  0.00  0.00    +0.000 HD
ATOM     54  H   UNL     1     -11.121  -4.447   8.973  0.00  0.00    +0.000 HD
ATOM     55  H   UNL     1     -12.807  -4.829   9.482  0.00  0.00    +0.000 HD
ENDBRANCH  51  52
ENDBRANCH  49  51
ENDBRANCH  46  49
ENDBRANCH  45  46
ENDBRANCH  35  45
ENDBRANCH  31  39
ENDBRANCH   1  32
BRANCH   1  56
ATOM     56  C   UNL     1      -7.899  -5.712  20.102  0.00  0.00    +0.000 C 
ATOM     57  H   UNL     1      -7.507  -6.713  20.341  0.00  0.00    +0.000 HD
ATOM     58  H   UNL     1      -8.546  -5.432  20.945  0.00  0.00    +0.000 HD
BRANCH  56  59
ATOM     59  N   UNL     1      -6.720  -4.799  20.072  0.00  0.00    +0.000 NA
BRANCH  59  60
ATOM     60  C   UNL     1      -6.551  -3.940  21.249  0.00  0.00    +0.000 C 
ATOM     61  H   UNL     1      -5.593  -3.427  21.266  0.00  0.00    +0.000 HD
ATOM     62  H   UNL     1      -6.531  -4.561  22.153  0.00  0.00    +0.000 HD
ATOM     63  H   UNL     1      -7.350  -3.200  21.353  0.00  0.00    +0.000 HD
ENDBRANCH  59  60
BRANCH  59  64
ATOM     64  C   UNL     1      -5.487  -5.608  19.963  0.00  0.00    +0.000 C 
ATOM     65  H   UNL     1      -4.589  -4.990  20.065  0.00  0.00    +0.000 HD
ATOM     66  H   UNL     1      -5.434  -6.139  19.004  0.00  0.00    +0.000 HD
ATOM     67  H   UNL     1      -5.451  -6.353  20.767  0.00  0.00    +0.000 HD
ENDBRANCH  59  64
ENDBRANCH  56  59
ENDBRANCH   1  56
TORSDOF 13
ENDMDL
MODEL 7
REMARK VINA RESULT:    -8.394      1.913      3.527
REMARK INTER + INTRA:         -15.586
REMARK INTER:                 -14.180
REMARK INTRA:                  -1.407
REMARK UNBOUND:                -1.795
REMARK  Name = 
REMARK  13 active torsions:
REMARK  status: ('A' for Active; 'I' for Inactive)
REMARK    1  A    between atoms: C_1  and  O_2
REMARK    2  A    between atoms: O_2  and  C_3
REMARK    3  A    between atoms: C_3  and  C_5
REMARK    4  A    between atoms: C_5  and  O_6
REMARK    5  A    between atoms: O_6  and  C_7
REMARK    6  A    between atoms: C_11  and  N_12
REMARK    7  A    between atoms: C_13  and  C_15
REMARK    8  A    between atoms: C_15  and  C_16
REMARK    9  A    between atoms: C_16  and  N_17
REMARK   10  A    between atoms: N_17  and  C_18
REMARK   11  A    between atoms: N_17  and  C_19
REMARK   12  A    between atoms: N_22  and  C_23
REMARK   13  A    between atoms: C_30  and  C_31
REMARK                            x       y       z     vdW  Elec       q    Type
REMARK                         _______ _______ _______ _____ _____    ______ ____
ROOT
ATOM      1  C   UNL     1      -9.013  -6.061  18.835  0.00  0.00    +0.000 C 
ATOM      2  C   UNL     1      -8.077  -6.302  17.600  0.00  0.00    +0.000 C 
ATOM      3  C   UNL     1      -8.735  -7.082  16.456  0.00  0.00    +0.000 C 
ATOM      4  N   UNL     1      -9.244  -8.303  17.050  0.00  0.00    +0.000 N 
ATOM      5  C   UNL     1     -10.414  -8.048  17.874  0.00  0.00    +0.000 C 
ATOM      6  C   UNL     1      -9.938  -7.276  19.106  0.00  0.00    +0.000 C 
ATOM      7  H   UNL     1      -7.210  -6.866  17.952  0.00  0.00    +0.000 HD
ATOM      8  H   UNL     1      -7.686  -5.355  17.209  0.00  0.00    +0.000 HD
ATOM      9  H   UNL     1      -8.047  -7.255  15.632  0.00  0.00    +0.000 HD
ATOM     10  H   UNL     1      -9.554  -6.512  16.003  0.00  0.00    +0.000 HD
ATOM     11  H   UNL     1     -10.909  -8.957  18.231  0.00  0.00    +0.000 HD
ATOM     12  H   UNL     1     -11.166  -7.468  17.324  0.00  0.00    +0.000 HD
ATOM     13  H   UNL     1      -9.387  -7.998  19.729  0.00  0.00    +0.000 HD
ATOM     14  H   UNL     1     -10.834  -6.971  19.643  0.00  0.00    +0.000 HD
ENDROOT
BRANCH   4  15
ATOM     15  C   UNL     1      -9.088  -9.542  16.448  0.00  0.00    +0.000 A 
ATOM     16  N   UNL     1      -9.403  -9.625  15.118  0.00  0.00    +0.000 NA
ATOM     17  C   UNL     1      -9.358 -10.802  14.479  0.00  0.00    +0.000 A 
ATOM     18  N   UNL     1      -9.026 -11.992  14.985  0.00  0.00    +0.000 NA
ATOM     19  C   UNL     1      -8.735 -11.903  16.290  0.00  0.00    +0.000 A 
ATOM     20  N   UNL     1      -8.405 -12.989  17.042  0.00  0.00    +0.000 N 
ATOM     21  C   UNL     1      -8.221 -12.617  18.335  0.00  0.00    +0.000 A 
ATOM     22  C   UNL     1      -8.448 -11.256  18.435  0.00  0.00    +0.000 A 
ATOM     23  C   UNL     1      -8.746 -10.764  17.095  0.00  0.00    +0.000 A 
ATOM     24  H   UNL     1      -9.633 -10.789  13.428  0.00  0.00    +0.000 HD
ATOM     25  H   UNL     1      -8.353 -13.925  16.671  0.00  0.00    +0.000 HD
ATOM     26  H   UNL     1      -7.980 -13.351  19.095  0.00  0.00    +0.000 HD
BRANCH  22  27
ATOM     27  C   UNL     1      -8.419 -10.543  19.737  0.00  0.00    +0.000 C 
ATOM     28  H   UNL     1      -9.357 -10.012  19.918  0.00  0.00    +0.000 HD
ATOM     29  H   UNL     1      -7.634  -9.790  19.736  0.00  0.00    +0.000 HD
ATOM     30  H   UNL     1      -8.294 -11.237  20.575  0.00  0.00    +0.000 HD
ENDBRANCH  22  27
ENDBRANCH   4  15
BRANCH   1  32
ATOM     31  N   UNL     1      -9.243  -3.614  18.745  0.00  0.00    +0.000 N 
ATOM     32  C   UNL     1      -9.861  -4.818  18.494  0.00  0.00    +0.000 C 
ATOM     33  O   UNL     1     -11.023  -4.934  18.107  0.00  0.00    +0.000 OA
ATOM     34  H   UNL     1      -8.293  -3.668  19.119  0.00  0.00    +0.000 HD
BRANCH  31  39
ATOM     35  C   UNL     1     -10.260  -0.101  19.205  0.00  0.00    +0.000 A 
ATOM     36  C   UNL     1     -10.506   0.306  17.894  0.00  0.00    +0.000 A 
ATOM     37  C   UNL     1     -10.359  -0.604  16.845  0.00  0.00    +0.000 A 
ATOM     38  C   UNL     1      -9.970  -1.919  17.103  0.00  0.00    +0.000 A 
ATOM     39  C   UNL     1      -9.695  -2.326  18.408  0.00  0.00    +0.000 A 
ATOM     40  C   UNL     1      -9.828  -1.405  19.453  0.00  0.00    +0.000 A 
ATOM     41  H   UNL     1     -10.789   1.321  17.648  0.00  0.00    +0.000 HD
ATOM     42  H   UNL     1     -10.535  -0.288  15.821  0.00  0.00    +0.000 HD
ATOM     43  H   UNL     1      -9.853  -2.589  16.259  0.00  0.00    +0.000 HD
ATOM     44  H   UNL     1      -9.615  -1.701  20.478  0.00  0.00    +0.000 HD
BRANCH  35  45
ATOM     45  O   UNL     1     -10.365   0.696  20.311  0.00  0.00    +0.000 OA
BRANCH  45  46
ATOM     46  C   UNL     1     -11.504   0.472  21.134  0.00  0.00    +0.000 C 
ATOM     47  H   UNL     1     -11.993   1.420  21.378  0.00  0.00    +0.000 HD
ATOM     48  H   UNL     1     -12.195  -0.218  20.632  0.00  0.00    +0.000 HD
BRANCH  46  49
ATOM     49  C   UNL     1     -11.091  -0.156  22.455  0.00  0.00    +0.000 C 
ATOM     50  O   UNL     1     -10.376   0.353  23.308  0.00  0.00    +0.000 OA
BRANCH  49  51
ATOM     51  O   UNL     1     -11.671  -1.391  22.565  0.00  0.00    +0.000 OA
BRANCH  51  52
ATOM     52  C   UNL     1     -11.138  -2.187  23.624  0.00  0.00    +0.000 C 
ATOM     53  H   UNL     1     -11.741  -2.008  24.518  0.00  0.00    +0.000 HD
ATOM     54  H   UNL     1     -10.106  -1.892  23.837  0.00  0.00    +0.000 HD
ATOM     55  H   UNL     1     -11.195  -3.252  23.377  0.00  0.00    +0.000 HD
ENDBRANCH  51  52
ENDBRANCH  49  51
ENDBRANCH  46  49
ENDBRANCH  45  46
ENDBRANCH  35  45
ENDBRANCH  31  39
ENDBRANCH   1  32
BRANCH   1  56
ATOM     56  C   UNL     1      -8.065  -5.793  20.073  0.00  0.00    +0.000 C 
ATOM     57  H   UNL     1      -7.646  -6.776  20.337  0.00  0.00    +0.000 HD
ATOM     58  H   UNL     1      -8.675  -5.483  20.933  0.00  0.00    +0.000 HD
BRANCH  56  59
ATOM     59  N   UNL     1      -6.904  -4.867  19.942  0.00  0.00    +0.000 NA
BRANCH  59  60
ATOM     60  C   UNL     1      -6.664  -3.982  21.087  0.00  0.00    +0.000 C 
ATOM     61  H   UNL     1      -5.970  -4.402  21.810  0.00  0.00    +0.000 HD
ATOM     62  H   UNL     1      -7.594  -3.864  21.657  0.00  0.00    +0.000 HD
ATOM     63  H   UNL     1      -6.310  -2.990  20.791  0.00  0.00    +0.000 HD
ENDBRANCH  59  60
BRANCH  59  64
ATOM     64  C   UNL     1      -5.671  -5.663  19.762  0.00  0.00    +0.000 C 
ATOM     65  H   UNL     1      -5.456  -5.839  18.703  0.00  0.00    +0.000 HD
ATOM     66  H   UNL     1      -5.739  -6.635  20.267  0.00  0.00    +0.000 HD
ATOM     67  H   UNL     1      -4.809  -5.124  20.175  0.00  0.00    +0.000 HD
ENDBRANCH  59  64
ENDBRANCH  56  59
ENDBRANCH   1  56
TORSDOF 13
ENDMDL
MODEL 8
REMARK VINA RESULT:    -8.340      3.183      6.996
REMARK INTER + INTRA:         -15.499
REMARK INTER:                 -13.587
REMARK INTRA:                  -1.911
REMARK UNBOUND:                -1.795
REMARK  Name = 
REMARK  13 active torsions:
REMARK  status: ('A' for Active; 'I' for Inactive)
REMARK    1  A    between atoms: C_1  and  O_2
REMARK    2  A    between atoms: O_2  and  C_3
REMARK    3  A    between atoms: C_3  and  C_5
REMARK    4  A    between atoms: C_5  and  O_6
REMARK    5  A    between atoms: O_6  and  C_7
REMARK    6  A    between atoms: C_11  and  N_12
REMARK    7  A    between atoms: C_13  and  C_15
REMARK    8  A    between atoms: C_15  and  C_16
REMARK    9  A    between atoms: C_16  and  N_17
REMARK   10  A    between atoms: N_17  and  C_18
REMARK   11  A    between atoms: N_17  and  C_19
REMARK   12  A    between atoms: N_22  and  C_23
REMARK   13  A    between atoms: C_30  and  C_31
REMARK                            x       y       z     vdW  Elec       q    Type
REMARK                         _______ _______ _______ _____ _____    ______ ____
ROOT
ATOM      1  C   UNL     1     -10.108  -6.156  17.527  0.00  0.00    +0.000 C 
ATOM      2  C   UNL     1      -8.794  -6.528  16.757  0.00  0.00    +0.000 C 
ATOM      3  C   UNL     1      -8.988  -7.570  15.650  0.00  0.00    +0.000 C 
ATOM      4  N   UNL     1      -9.635  -8.704  16.282  0.00  0.00    +0.000 N 
ATOM      5  C   UNL     1     -11.027  -8.418  16.594  0.00  0.00    +0.000 C 
ATOM      6  C   UNL     1     -11.033  -7.386  17.722  0.00  0.00    +0.000 C 
ATOM      7  H   UNL     1      -8.087  -6.926  17.490  0.00  0.00    +0.000 HD
ATOM      8  H   UNL     1      -8.320  -5.635  16.331  0.00  0.00    +0.000 HD
ATOM      9  H   UNL     1      -8.051  -7.824  15.160  0.00  0.00    +0.000 HD
ATOM     10  H   UNL     1      -9.615  -7.180  14.840  0.00  0.00    +0.000 HD
ATOM     11  H   UNL     1     -11.587  -9.290  16.946  0.00  0.00    +0.000 HD
ATOM     12  H   UNL     1     -11.557  -8.030  15.714  0.00  0.00    +0.000 HD
ATOM     13  H   UNL     1     -10.713  -7.919  18.630  0.00  0.00    +0.000 HD
ATOM     14  H   UNL     1     -12.069  -7.078  17.850  0.00  0.00    +0.000 HD
ENDROOT
BRANCH   4  15
ATOM     15  C   UNL     1      -9.242 -10.011  16.042  0.00  0.00    +0.000 A 
ATOM     16  N   UNL     1      -9.406 -10.479  14.765  0.00  0.00    +0.000 NA
ATOM     17  C   UNL     1      -9.126 -11.756  14.467  0.00  0.00    +0.000 A 
ATOM     18  N   UNL     1      -8.679 -12.706  15.290  0.00  0.00    +0.000 NA
ATOM     19  C   UNL     1      -8.538 -12.242  16.539  0.00  0.00    +0.000 A 
ATOM     20  N   UNL     1      -8.133 -13.033  17.571  0.00  0.00    +0.000 N 
ATOM     21  C   UNL     1      -8.137 -12.321  18.728  0.00  0.00    +0.000 A 
ATOM     22  C   UNL     1      -8.567 -11.035  18.448  0.00  0.00    +0.000 A 
ATOM     23  C   UNL     1      -8.795 -10.955  17.010  0.00  0.00    +0.000 A 
ATOM     24  H   UNL     1      -9.292 -12.055  13.435  0.00  0.00    +0.000 HD
ATOM     25  H   UNL     1      -7.909 -14.010  17.467  0.00  0.00    +0.000 HD
ATOM     26  H   UNL     1      -7.870 -12.787  19.669  0.00  0.00    +0.000 HD
BRANCH  22  27
ATOM     27  C   UNL     1      -8.773 -10.022  19.513  0.00  0.00    +0.000 C 
ATOM     28  H   UNL     1      -8.013 -10.107  20.293  0.00  0.00    +0.000 HD
ATOM     29  H   UNL     1      -9.733 -10.180  20.001  0.00  0.00    +0.000 HD
ATOM     30  H   UNL     1      -8.697  -9.002  19.122  0.00  0.00    +0.000 HD
ENDBRANCH  22  27
ENDBRANCH   4  15
BRANCH   1  32
ATOM     31  N   UNL     1     -10.008  -4.074  16.222  0.00  0.00    +0.000 N 
ATOM     32  C   UNL     1     -10.822  -5.090  16.669  0.00  0.00    +0.000 C 
ATOM     33  O   UNL     1     -12.037  -5.137  16.487  0.00  0.00    +0.000 OA
ATOM     34  H   UNL     1      -9.025  -4.133  16.495  0.00  0.00    +0.000 HD
BRANCH  31  39
ATOM     35  C   UNL     1     -10.718  -2.444  12.992  0.00  0.00    +0.000 A 
ATOM     36  C   UNL     1     -11.032  -1.144  13.384  0.00  0.00    +0.000 A 
ATOM     37  C   UNL     1     -10.983  -0.794  14.734  0.00  0.00    +0.000 A 
ATOM     38  C   UNL     1     -10.617  -1.740  15.694  0.00  0.00    +0.000 A 
ATOM     39  C   UNL     1     -10.328  -3.050  15.313  0.00  0.00    +0.000 A 
ATOM     40  C   UNL     1     -10.397  -3.398  13.960  0.00  0.00    +0.000 A 
ATOM     41  H   UNL     1     -11.342  -0.386  12.676  0.00  0.00    +0.000 HD
ATOM     42  H   UNL     1     -11.242   0.213  15.047  0.00  0.00    +0.000 HD
ATOM     43  H   UNL     1     -10.605  -1.431  16.733  0.00  0.00    +0.000 HD
ATOM     44  H   UNL     1     -10.178  -4.415  13.642  0.00  0.00    +0.000 HD
BRANCH  35  45
ATOM     45  O   UNL     1     -10.736  -2.907  11.705  0.00  0.00    +0.000 OA
BRANCH  45  46
ATOM     46  C   UNL     1     -11.960  -3.487  11.270  0.00  0.00    +0.000 C 
ATOM     47  H   UNL     1     -12.232  -4.333  11.910  0.00  0.00    +0.000 HD
ATOM     48  H   UNL     1     -12.749  -2.725  11.256  0.00  0.00    +0.000 HD
BRANCH  46  49
ATOM     49  C   UNL     1     -11.816  -4.039   9.860  0.00  0.00    +0.000 C 
ATOM     50  O   UNL     1     -12.238  -5.114   9.456  0.00  0.00    +0.000 OA
BRANCH  49  51
ATOM     51  O   UNL     1     -11.152  -3.125   9.087  0.00  0.00    +0.000 OA
BRANCH  51  52
ATOM     52  C   UNL     1     -12.007  -2.160   8.472  0.00  0.00    +0.000 C 
ATOM     53  H   UNL     1     -12.048  -2.379   7.402  0.00  0.00    +0.000 HD
ATOM     54  H   UNL     1     -11.598  -1.154   8.605  0.00  0.00    +0.000 HD
ATOM     55  H   UNL     1     -13.022  -2.225   8.878  0.00  0.00    +0.000 HD
ENDBRANCH  51  52
ENDBRANCH  49  51
ENDBRANCH  46  49
ENDBRANCH  45  46
ENDBRANCH  35  45
ENDBRANCH  31  39
ENDBRANCH   1  32
BRANCH   1  56
ATOM     56  C   UNL     1      -9.660  -5.567  18.925  0.00  0.00    +0.000 C 
ATOM     57  H   UNL     1      -9.208  -6.413  19.466  0.00  0.00    +0.000 HD
ATOM     58  H   UNL     1     -10.553  -5.283  19.500  0.00  0.00    +0.000 HD
BRANCH  56  59
ATOM     59  N   UNL     1      -8.669  -4.455  18.988  0.00  0.00    +0.000 NA
BRANCH  59  60
ATOM     60  C   UNL     1      -9.163  -3.194  19.553  0.00  0.00    +0.000 C 
ATOM     61  H   UNL     1      -9.682  -3.327  20.498  0.00  0.00    +0.000 HD
ATOM     62  H   UNL     1      -9.929  -2.774  18.890  0.00  0.00    +0.000 HD
ATOM     63  H   UNL     1      -8.372  -2.449  19.686  0.00  0.00    +0.000 HD
ENDBRANCH  59  60
BRANCH  59  64
ATOM     64  C   UNL     1      -7.529  -4.873  19.832  0.00  0.00    +0.000 C 
ATOM     65  H   UNL     1      -6.587  -4.853  19.274  0.00  0.00    +0.000 HD
ATOM     66  H   UNL     1      -7.671  -5.884  20.233  0.00  0.00    +0.000 HD
ATOM     67  H   UNL     1      -7.411  -4.184  20.677  0.00  0.00    +0.000 HD
ENDBRANCH  59  64
ENDBRANCH  56  59
ENDBRANCH   1  56
TORSDOF 13
ENDMDL
MODEL 9
REMARK VINA RESULT:    -8.336      1.294      2.189
REMARK INTER + INTRA:         -15.492
REMARK INTER:                 -14.097
REMARK INTRA:                  -1.395
REMARK UNBOUND:                -1.795
REMARK  Name = 
REMARK  13 active torsions:
REMARK  status: ('A' for Active; 'I' for Inactive)
REMARK    1  A    between atoms: C_1  and  O_2
REMARK    2  A    between atoms: O_2  and  C_3
REMARK    3  A    between atoms: C_3  and  C_5
REMARK    4  A    between atoms: C_5  and  O_6
REMARK    5  A    between atoms: O_6  and  C_7
REMARK    6  A    between atoms: C_11  and  N_12
REMARK    7  A    between atoms: C_13  and  C_15
REMARK    8  A    between atoms: C_15  and  C_16
REMARK    9  A    between atoms: C_16  and  N_17
REMARK   10  A    between atoms: N_17  and  C_18
REMARK   11  A    between atoms: N_17  and  C_19
REMARK   12  A    between atoms: N_22  and  C_23
REMARK   13  A    between atoms: C_30  and  C_31
REMARK                            x       y       z     vdW  Elec       q    Type
REMARK                         _______ _______ _______ _____ _____    ______ ____
ROOT
ATOM      1  C   UNL     1      -9.964  -5.703  16.401  0.00  0.00    +0.000 C 
ATOM      2  C   UNL     1     -11.054  -6.807  16.174  0.00  0.00    +0.000 C 
ATOM      3  C   UNL     1     -10.797  -8.110  16.940  0.00  0.00    +0.000 C 
ATOM      4  N   UNL     1      -9.457  -8.528  16.572  0.00  0.00    +0.000 N 
ATOM      5  C   UNL     1      -8.448  -7.682  17.187  0.00  0.00    +0.000 C 
ATOM      6  C   UNL     1      -8.541  -6.310  16.519  0.00  0.00    +0.000 C 
ATOM      7  H   UNL     1     -11.076  -7.030  15.105  0.00  0.00    +0.000 HD
ATOM      8  H   UNL     1     -12.054  -6.433  16.428  0.00  0.00    +0.000 HD
ATOM      9  H   UNL     1     -11.556  -8.860  16.734  0.00  0.00    +0.000 HD
ATOM     10  H   UNL     1     -10.861  -7.957  18.023  0.00  0.00    +0.000 HD
ATOM     11  H   UNL     1      -7.424  -8.044  17.046  0.00  0.00    +0.000 HD
ATOM     12  H   UNL     1      -8.610  -7.595  18.269  0.00  0.00    +0.000 HD
ATOM     13  H   UNL     1      -8.132  -6.432  15.504  0.00  0.00    +0.000 HD
ATOM     14  H   UNL     1      -7.881  -5.650  17.079  0.00  0.00    +0.000 HD
ENDROOT
BRANCH   4  15
ATOM     15  C   UNL     1      -9.151  -9.843  16.259  0.00  0.00    +0.000 A 
ATOM     16  N   UNL     1      -9.358 -10.232  14.962  0.00  0.00    +0.000 NA
ATOM     17  C   UNL     1      -9.164 -11.506  14.595  0.00  0.00    +0.000 A 
ATOM     18  N   UNL     1      -8.769 -12.525  15.361  0.00  0.00    +0.000 NA
ATOM     19  C   UNL     1      -8.584 -12.137  16.630  0.00  0.00    +0.000 A 
ATOM     20  N   UNL     1      -8.218 -13.005  17.613  0.00  0.00    +0.000 N 
ATOM     21  C   UNL     1      -8.164 -12.355  18.805  0.00  0.00    +0.000 A 
ATOM     22  C   UNL     1      -8.514 -11.032  18.598  0.00  0.00    +0.000 A 
ATOM     23  C   UNL     1      -8.753 -10.863  17.170  0.00  0.00    +0.000 A 
ATOM     24  H   UNL     1      -9.361 -11.739  13.551  0.00  0.00    +0.000 HD
ATOM     25  H   UNL     1      -8.058 -13.987  17.455  0.00  0.00    +0.000 HD
ATOM     26  H   UNL     1      -7.917 -12.886  19.717  0.00  0.00    +0.000 HD
BRANCH  22  27
ATOM     27  C   UNL     1      -8.644 -10.065  19.718  0.00  0.00    +0.000 C 
ATOM     28  H   UNL     1      -9.693  -9.879  19.959  0.00  0.00    +0.000 HD
ATOM     29  H   UNL     1      -8.217  -9.105  19.436  0.00  0.00    +0.000 HD
ATOM     30  H   UNL     1      -8.181 -10.444  20.634  0.00  0.00    +0.000 HD
ENDBRANCH  22  27
ENDBRANCH   4  15
BRANCH   1  32
ATOM     31  N   UNL     1      -9.588  -3.873  18.001  0.00  0.00    +0.000 N 
ATOM     32  C   UNL     1     -10.342  -4.989  17.716  0.00  0.00    +0.000 C 
ATOM     33  O   UNL     1     -11.202  -5.455  18.462  0.00  0.00    +0.000 OA
ATOM     34  H   UNL     1      -8.869  -3.632  17.316  0.00  0.00    +0.000 HD
BRANCH  31  39
ATOM     35  C   UNL     1      -9.012  -2.094  21.178  0.00  0.00    +0.000 A 
ATOM     36  C   UNL     1      -9.990  -1.101  21.137  0.00  0.00    +0.000 A 
ATOM     37  C   UNL     1     -10.870  -1.035  20.056  0.00  0.00    +0.000 A 
ATOM     38  C   UNL     1     -10.777  -1.962  19.016  0.00  0.00    +0.000 A 
ATOM     39  C   UNL     1      -9.784  -2.941  19.035  0.00  0.00    +0.000 A 
ATOM     40  C   UNL     1      -8.895  -2.990  20.114  0.00  0.00    +0.000 A 
ATOM     41  H   UNL     1     -10.082  -0.349  21.911  0.00  0.00    +0.000 HD
ATOM     42  H   UNL     1     -11.623  -0.254  20.012  0.00  0.00    +0.000 HD
ATOM     43  H   UNL     1     -11.471  -1.867  18.187  0.00  0.00    +0.000 HD
ATOM     44  H   UNL     1      -8.112  -3.744  20.147  0.00  0.00    +0.000 HD
BRANCH  35  45
ATOM     45  O   UNL     1      -8.093  -2.256  22.177  0.00  0.00    +0.000 OA
BRANCH  45  46
ATOM     46  C   UNL     1      -8.053  -3.545  22.781  0.00  0.00    +0.000 C 
ATOM     47  H   UNL     1      -8.890  -4.157  22.433  0.00  0.00    +0.000 HD
ATOM     48  H   UNL     1      -7.089  -4.025  22.568  0.00  0.00    +0.000 HD
BRANCH  46  49
ATOM     49  C   UNL     1      -8.197  -3.430  24.290  0.00  0.00    +0.000 C 
ATOM     50  O   UNL     1      -7.942  -4.300  25.111  0.00  0.00    +0.000 OA
BRANCH  49  51
ATOM     51  O   UNL     1      -8.638  -2.172  24.603  0.00  0.00    +0.000 OA
BRANCH  51  52
ATOM     52  C   UNL     1      -9.787  -2.158  25.452  0.00  0.00    +0.000 C 
ATOM     53  H   UNL     1      -9.479  -1.778  26.430  0.00  0.00    +0.000 HD
ATOM     54  H   UNL     1     -10.175  -3.173  25.580  0.00  0.00    +0.000 HD
ATOM     55  H   UNL     1     -10.559  -1.493  25.050  0.00  0.00    +0.000 HD
ENDBRANCH  51  52
ENDBRANCH  49  51
ENDBRANCH  46  49
ENDBRANCH  45  46
ENDBRANCH  35  45
ENDBRANCH  31  39
ENDBRANCH   1  32
BRANCH   1  56
ATOM     56  C   UNL     1     -10.052  -4.721  15.164  0.00  0.00    +0.000 C 
ATOM     57  H   UNL     1     -10.069  -5.373  14.277  0.00  0.00    +0.000 HD
ATOM     58  H   UNL     1      -9.121  -4.141  15.097  0.00  0.00    +0.000 HD
BRANCH  56  59
ATOM     59  N   UNL     1     -11.212  -3.795  15.023  0.00  0.00    +0.000 NA
BRANCH  59  60
ATOM     60  C   UNL     1     -10.901  -2.366  15.138  0.00  0.00    +0.000 C 
ATOM     61  H   UNL     1     -11.783  -1.733  15.081  0.00  0.00    +0.000 HD
ATOM     62  H   UNL     1     -10.300  -2.054  14.275  0.00  0.00    +0.000 HD
ATOM     63  H   UNL     1     -10.350  -2.122  16.052  0.00  0.00    +0.000 HD
ENDBRANCH  59  60
BRANCH  59  64
ATOM     64  C   UNL     1     -11.821  -3.985  13.690  0.00  0.00    +0.000 C 
ATOM     65  H   UNL     1     -12.914  -4.002  13.744  0.00  0.00    +0.000 HD
ATOM     66  H   UNL     1     -11.484  -4.918  13.220  0.00  0.00    +0.000 HD
ATOM     67  H   UNL     1     -11.551  -3.153  13.028  0.00  0.00    +0.000 HD
ENDBRANCH  59  64
ENDBRANCH  56  59
ENDBRANCH   1  56
TORSDOF 13
ENDMDL
