REMARK  Name = 
REMARK  13 active torsions:
REMARK  status: ('A' for Active; 'I' for Inactive)
REMARK    1  A    between atoms: C_2  and  C_34
REMARK    2  A    between atoms: N_3  and  C_4
REMARK    3  A    between atoms: C_10  and  O_11
REMARK    4  A    between atoms: O_11  and  C_12
REMARK    5  A    between atoms: C_12  and  C_14
REMARK    6  A    between atoms: C_16  and  O_17
REMARK    7  A    between atoms: C_18  and  C_19
REMARK    8  A    between atoms: C_19  and  C_21
REMARK    9  A    between atoms: C_22  and  O_23
REMARK   10  A    between atoms: C_27  and  C_28
REMARK   11  A    between atoms: C_28  and  O_30
REMARK   12  A    between atoms: C_31  and  O_32
REMARK   13  A    between atoms: C_37  and  O_38
REMARK                            x       y       z     vdW  Elec       q    Type
REMARK                         _______ _______ _______ _____ _____    ______ ____
ROOT
ATOM      1  C   UNL     1       1.562  -1.898   0.939  0.00  0.00    +0.000 C 
ATOM      2  C   UNL     1       0.158  -2.032   1.596  0.00  0.00    +0.000 C 
ATOM      3  N   UNL     1       0.250  -2.264   3.039  0.00  0.00    +0.000 NA
ATOM      4  C   UNL     1       0.382  -1.077   3.871  0.00  0.00    +0.000 C 
ATOM      5  C   UNL     1       0.899   0.216   3.237  0.00  0.00    +0.000 C 
ATOM      6  C   UNL     1       2.222   0.076   2.478  0.00  0.00    +0.000 C 
ATOM      7  C   UNL     1       2.094  -0.448   1.039  0.00  0.00    +0.000 C 
ATOM      8  H   UNL     1       1.418  -2.111  -0.129  0.00  0.00    +0.000 HD
ATOM      9  H   UNL     1      -0.353  -2.901   1.164  0.00  0.00    +0.000 HD
ATOM     10  H   UNL     1      -0.493  -1.180   1.359  0.00  0.00    +0.000 HD
ATOM     11  H   UNL     1       1.045  -2.887   3.190  0.00  0.00    +0.000 HD
ATOM     12  H   UNL     1       1.029  -1.334   4.719  0.00  0.00    +0.000 HD
ATOM     13  H   UNL     1      -0.601  -0.868   4.311  0.00  0.00    +0.000 HD
ATOM     14  H   UNL     1       1.051   0.936   4.051  0.00  0.00    +0.000 HD
ATOM     15  H   UNL     1       0.124   0.658   2.599  0.00  0.00    +0.000 HD
ATOM     16  H   UNL     1       2.928  -0.539   3.046  0.00  0.00    +0.000 HD
ATOM     17  H   UNL     1       2.656   1.081   2.426  0.00  0.00    +0.000 HD
ATOM     18  H   UNL     1       3.076  -0.420   0.550  0.00  0.00    +0.000 HD
ENDROOT
BRANCH   1  21
ATOM     19  O   UNL     1       1.722  -4.486  -0.015  0.00  0.00    +0.000 OA
ATOM     20  C   UNL     1       2.446  -4.221   0.945  0.00  0.00    +0.000 C 
ATOM     21  N   UNL     1       2.511  -2.929   1.447  0.00  0.00    +0.000 N 
ATOM     22  H   UNL     1       3.288  -2.657   2.033  0.00  0.00    +0.000 HD
BRANCH  20  23
ATOM     23  C   UNL     1       3.264  -5.321   1.549  0.00  0.00    +0.000 A 
ATOM     24  C   UNL     1       3.200  -6.574   0.906  0.00  0.00    +0.000 A 
ATOM     25  C   UNL     1       3.886  -7.681   1.396  0.00  0.00    +0.000 A 
ATOM     26  C   UNL     1       4.675  -7.546   2.534  0.00  0.00    +0.000 A 
ATOM     27  C   UNL     1       4.735  -6.317   3.204  0.00  0.00    +0.000 A 
ATOM     28  C   UNL     1       4.029  -5.208   2.717  0.00  0.00    +0.000 A 
ATOM     29  H   UNL     1       2.583  -6.701   0.017  0.00  0.00    +0.000 HD
ATOM     30  H   UNL     1       3.813  -8.633   0.873  0.00  0.00    +0.000 HD
ATOM     31  H   UNL     1       5.331  -6.244   4.111  0.00  0.00    +0.000 HD
ATOM     32  H   UNL     1       4.087  -4.279   3.275  0.00  0.00    +0.000 HD
BRANCH  26  33
ATOM     33  O   UNL     1       5.387  -8.600   3.025  0.00  0.00    +0.000 OA
ATOM     34  H   UNL     1       5.289  -9.355   2.422  0.00  0.00    +0.000 HD
ENDBRANCH  26  33
ENDBRANCH  20  23
ENDBRANCH   1  21
BRANCH   7  35
ATOM     35  O   UNL     1       1.193   0.416   0.294  0.00  0.00    +0.000 OA
BRANCH  35  36
ATOM     36  C   UNL     1       1.668   1.605  -0.148  0.00  0.00    +0.000 C 
ATOM     37  O   UNL     1       2.815   2.017  -0.009  0.00  0.00    +0.000 OA
BRANCH  36  38
ATOM     38  C   UNL     1       0.608   2.372  -0.850  0.00  0.00    +0.000 A 
ATOM     39  C   UNL     1       0.890   3.614  -1.434  0.00  0.00    +0.000 A 
ATOM     40  C   UNL     1      -0.110   4.297  -2.141  0.00  0.00    +0.000 A 
ATOM     41  C   UNL     1      -1.400   3.755  -2.293  0.00  0.00    +0.000 A 
ATOM     42  C   UNL     1      -1.649   2.498  -1.722  0.00  0.00    +0.000 A 
ATOM     43  C   UNL     1      -0.673   1.846  -0.972  0.00  0.00    +0.000 A 
ATOM     44  H   UNL     1       1.888   4.042  -1.326  0.00  0.00    +0.000 HD
ATOM     45  H   UNL     1      -0.941   0.898  -0.504  0.00  0.00    +0.000 HD
BRANCH  40  46
ATOM     46  O   UNL     1       0.199   5.529  -2.660  0.00  0.00    +0.000 OA
ATOM     47  H   UNL     1       1.167   5.629  -2.756  0.00  0.00    +0.000 HD
ENDBRANCH  40  46
BRANCH  41  48
ATOM     48  C   UNL     1      -2.443   4.500  -3.078  0.00  0.00    +0.000 C 
ATOM     49  O   UNL     1      -2.087   5.137  -4.064  0.00  0.00    +0.000 OA
BRANCH  48  50
ATOM     50  C   UNL     1      -3.903   4.374  -2.837  0.00  0.00    +0.000 A 
ATOM     51  C   UNL     1      -4.409   4.182  -1.530  0.00  0.00    +0.000 A 
ATOM     52  C   UNL     1      -5.733   3.802  -1.311  0.00  0.00    +0.000 A 
ATOM     53  C   UNL     1      -6.612   3.695  -2.377  0.00  0.00    +0.000 A 
ATOM     54  C   UNL     1      -6.160   3.972  -3.663  0.00  0.00    +0.000 A 
ATOM     55  C   UNL     1      -4.808   4.304  -3.923  0.00  0.00    +0.000 A 
ATOM     56  H   UNL     1      -6.068   3.567  -0.302  0.00  0.00    +0.000 HD
ATOM     57  H   UNL     1      -7.646   3.397  -2.204  0.00  0.00    +0.000 HD
ATOM     58  H   UNL     1      -6.874   3.899  -4.489  0.00  0.00    +0.000 HD
BRANCH  51  59
ATOM     59  O   UNL     1      -3.666   4.231  -0.381  0.00  0.00    +0.000 OA
ATOM     60  H   UNL     1      -2.775   4.587  -0.528  0.00  0.00    +0.000 HD
ENDBRANCH  51  59
BRANCH  55  61
ATOM     61  C   UNL     1      -4.519   4.520  -5.378  0.00  0.00    +0.000 C 
ATOM     62  O   UNL     1      -5.385   4.957  -6.123  0.00  0.00    +0.000 OA
BRANCH  61  63
ATOM     63  O   UNL     1      -3.374   4.001  -5.858  0.00  0.00    +0.000 OA
ATOM     64  H   UNL     1      -2.599   4.151  -5.272  0.00  0.00    +0.000 HD
ENDBRANCH  61  63
ENDBRANCH  55  61
ENDBRANCH  48  50
ENDBRANCH  41  48
BRANCH  42  65
ATOM     65  O   UNL     1      -2.790   1.755  -1.810  0.00  0.00    +0.000 OA
ATOM     66  H   UNL     1      -3.507   2.199  -2.272  0.00  0.00    +0.000 HD
ENDBRANCH  42  65
ENDBRANCH  36  38
ENDBRANCH  35  36
ENDBRANCH   7  35
TORSDOF 13
