MODEL 1
REMARK VINA RESULT:   -12.228      0.000      0.000
REMARK INTER + INTRA:         -17.690
REMARK INTER:                 -16.874
REMARK INTRA:                  -0.816
REMARK UNBOUND:                -0.816
REMARK  Name = 
REMARK  7 active torsions:
REMARK  status: ('A' for Active; 'I' for Inactive)
REMARK    1  A    between atoms: N_1  and  C_2
REMARK    2  A    between atoms: C_2  and  C_3
REMARK    3  A    between atoms: C_2  and  C_21
REMARK    4  A    between atoms: C_3  and  O_4
REMARK    5  A    between atoms: O_4  and  C_5
REMARK    6  A    between atoms: C_9  and  C_10
REMARK    7  A    between atoms: C_21  and  C_22
REMARK                            x       y       z     vdW  Elec       q    Type
REMARK                         _______ _______ _______ _____ _____    ______ ____
ROOT
ATOM      1  C   UNL     1      -8.793  -5.858  18.227  0.00  0.00    +0.000 C 
ATOM      2  H   UNL     1      -8.898  -5.564  17.174  0.00  0.00    +0.000 HD
ATOM      3  H   UNL     1      -9.064  -5.013  18.870  0.00  0.00    +0.000 HD
ENDROOT
BRANCH   1   4
ATOM      4  C   UNL     1      -9.754  -7.024  18.529  0.00  0.00    +0.000 C 
ATOM      5  H   UNL     1      -9.423  -7.493  19.466  0.00  0.00    +0.000 HD
BRANCH   4   6
ATOM      6  N   UNL     1     -11.115  -6.508  18.767  0.00  0.00    +0.000 NA
ATOM      7  H   UNL     1     -11.251  -5.666  18.199  0.00  0.00    +0.000 HD
ATOM      8  H   UNL     1     -11.175  -6.188  19.734  0.00  0.00    +0.000 HD
ENDBRANCH   4   6
BRANCH   4   9
ATOM      9  C   UNL     1      -9.692  -8.074  17.396  0.00  0.00    +0.000 C 
ATOM     10  H   UNL     1      -9.028  -7.711  16.600  0.00  0.00    +0.000 HD
ATOM     11  H   UNL     1     -10.682  -8.188  16.939  0.00  0.00    +0.000 HD
BRANCH   9  12
ATOM     12  C   UNL     1      -9.197  -9.414  17.851  0.00  0.00    +0.000 A 
ATOM     13  C   UNL     1      -8.858  -9.773  19.141  0.00  0.00    +0.000 A 
ATOM     14  N   UNL     1      -8.510 -11.097  19.140  0.00  0.00    +0.000 N 
ATOM     15  C   UNL     1      -8.597 -11.610  17.868  0.00  0.00    +0.000 A 
ATOM     16  C   UNL     1      -8.343 -12.904  17.399  0.00  0.00    +0.000 A 
ATOM     17  C   UNL     1      -8.513 -13.143  16.031  0.00  0.00    +0.000 A 
ATOM     18  C   UNL     1      -8.920 -12.127  15.170  0.00  0.00    +0.000 A 
ATOM     19  C   UNL     1      -9.175 -10.841  15.658  0.00  0.00    +0.000 A 
ATOM     20  C   UNL     1      -9.012 -10.573  17.034  0.00  0.00    +0.000 A 
ATOM     21  H   UNL     1      -8.857  -9.205  20.063  0.00  0.00    +0.000 HD
ATOM     22  H   UNL     1      -8.237 -11.627  19.955  0.00  0.00    +0.000 HD
ATOM     23  H   UNL     1      -8.027 -13.699  18.066  0.00  0.00    +0.000 HD
ATOM     24  H   UNL     1      -8.322 -14.137  15.635  0.00  0.00    +0.000 HD
ATOM     25  H   UNL     1      -9.042 -12.332  14.110  0.00  0.00    +0.000 HD
ATOM     26  H   UNL     1      -9.494 -10.058  14.976  0.00  0.00    +0.000 HD
ENDBRANCH   9  12
ENDBRANCH   4   9
ENDBRANCH   1   4
BRANCH   1  27
ATOM     27  O   UNL     1      -7.439  -6.253  18.492  0.00  0.00    +0.000 OA
BRANCH  27  28
ATOM     28  C   UNL     1      -6.765  -5.523  19.428  0.00  0.00    +0.000 A 
ATOM     29  C   UNL     1      -5.386  -5.458  19.302  0.00  0.00    +0.000 A 
ATOM     30  N   UNL     1      -4.577  -4.777  20.145  0.00  0.00    +0.000 NA
ATOM     31  C   UNL     1      -5.182  -4.116  21.163  0.00  0.00    +0.000 A 
ATOM     32  C   UNL     1      -6.558  -4.100  21.403  0.00  0.00    +0.000 A 
ATOM     33  C   UNL     1      -7.339  -4.843  20.501  0.00  0.00    +0.000 A 
ATOM     34  H   UNL     1      -4.877  -5.972  18.490  0.00  0.00    +0.000 HD
ATOM     35  H   UNL     1      -4.489  -3.572  21.799  0.00  0.00    +0.000 HD
ATOM     36  H   UNL     1      -8.410  -4.892  20.661  0.00  0.00    +0.000 HD
BRANCH  32  37
ATOM     37  C   UNL     1      -7.177  -3.373  22.533  0.00  0.00    +0.000 A 
ATOM     38  C   UNL     1      -7.797  -4.047  23.598  0.00  0.00    +0.000 A 
ATOM     39  C   UNL     1      -8.441  -3.348  24.627  0.00  0.00    +0.000 A 
ATOM     40  C   UNL     1      -8.499  -1.946  24.609  0.00  0.00    +0.000 A 
ATOM     41  C   UNL     1      -9.166  -1.194  25.579  0.00  0.00    +0.000 A 
ATOM     42  N   UNL     1      -9.252   0.157  25.578  0.00  0.00    +0.000 NA
ATOM     43  C   UNL     1      -8.637   0.799  24.565  0.00  0.00    +0.000 A 
ATOM     44  C   UNL     1      -7.940   0.156  23.555  0.00  0.00    +0.000 A 
ATOM     45  C   UNL     1      -7.871  -1.242  23.568  0.00  0.00    +0.000 A 
ATOM     46  C   UNL     1      -7.205  -1.963  22.561  0.00  0.00    +0.000 A 
ATOM     47  H   UNL     1      -7.816  -5.135  23.633  0.00  0.00    +0.000 HD
ATOM     48  H   UNL     1      -8.915  -3.908  25.430  0.00  0.00    +0.000 HD
ATOM     49  H   UNL     1      -9.676  -1.675  26.409  0.00  0.00    +0.000 HD
ATOM     50  H   UNL     1      -8.724   1.883  24.581  0.00  0.00    +0.000 HD
ATOM     51  H   UNL     1      -7.473   0.740  22.769  0.00  0.00    +0.000 HD
ATOM     52  H   UNL     1      -6.704  -1.399  21.775  0.00  0.00    +0.000 HD
ENDBRANCH  32  37
ENDBRANCH  27  28
ENDBRANCH   1  27
TORSDOF 7
ENDMDL
MODEL 2
REMARK VINA RESULT:   -12.089      0.757      1.460
REMARK INTER + INTRA:         -17.499
REMARK INTER:                 -16.742
REMARK INTRA:                  -0.757
REMARK UNBOUND:                -0.816
REMARK  Name = 
REMARK  7 active torsions:
REMARK  status: ('A' for Active; 'I' for Inactive)
REMARK    1  A    between atoms: N_1  and  C_2
REMARK    2  A    between atoms: C_2  and  C_3
REMARK    3  A    between atoms: C_2  and  C_21
REMARK    4  A    between atoms: C_3  and  O_4
REMARK    5  A    between atoms: O_4  and  C_5
REMARK    6  A    between atoms: C_9  and  C_10
REMARK    7  A    between atoms: C_21  and  C_22
REMARK                            x       y       z     vdW  Elec       q    Type
REMARK                         _______ _______ _______ _____ _____    ______ ____
ROOT
ATOM      1  C   UNL     1      -9.455  -6.118  18.275  0.00  0.00    +0.000 C 
ATOM      2  H   UNL     1      -9.615  -5.387  17.471  0.00  0.00    +0.000 HD
ATOM      3  H   UNL     1      -9.809  -5.698  19.224  0.00  0.00    +0.000 HD
ENDROOT
BRANCH   1   4
ATOM      4  C   UNL     1     -10.269  -7.391  17.975  0.00  0.00    +0.000 C 
ATOM      5  H   UNL     1     -10.388  -7.939  18.920  0.00  0.00    +0.000 HD
BRANCH   4   6
ATOM      6  N   UNL     1     -11.625  -7.029  17.519  0.00  0.00    +0.000 NA
ATOM      7  H   UNL     1     -11.729  -7.315  16.540  0.00  0.00    +0.000 HD
ATOM      8  H   UNL     1     -11.700  -6.012  17.507  0.00  0.00    +0.000 HD
ENDBRANCH   4   6
BRANCH   4   9
ATOM      9  C   UNL     1      -9.509  -8.287  16.970  0.00  0.00    +0.000 C 
ATOM     10  H   UNL     1      -8.603  -7.766  16.634  0.00  0.00    +0.000 HD
ATOM     11  H   UNL     1     -10.120  -8.443  16.074  0.00  0.00    +0.000 HD
BRANCH   9  12
ATOM     12  C   UNL     1      -9.109  -9.615  17.539  0.00  0.00    +0.000 A 
ATOM     13  C   UNL     1      -8.877  -9.906  18.869  0.00  0.00    +0.000 A 
ATOM     14  N   UNL     1      -8.592 -11.240  18.972  0.00  0.00    +0.000 N 
ATOM     15  C   UNL     1      -8.614 -11.829  17.730  0.00  0.00    +0.000 A 
ATOM     16  C   UNL     1      -8.390 -13.159  17.358  0.00  0.00    +0.000 A 
ATOM     17  C   UNL     1      -8.475 -13.476  15.999  0.00  0.00    +0.000 A 
ATOM     18  C   UNL     1      -8.774 -12.500  15.052  0.00  0.00    +0.000 A 
ATOM     19  C   UNL     1      -9.003 -11.177  15.443  0.00  0.00    +0.000 A 
ATOM     20  C   UNL     1      -8.922 -10.830  16.807  0.00  0.00    +0.000 A 
ATOM     21  H   UNL     1      -8.913  -9.282  19.753  0.00  0.00    +0.000 HD
ATOM     22  H   UNL     1      -8.400 -11.730  19.835  0.00  0.00    +0.000 HD
ATOM     23  H   UNL     1      -8.158 -13.923  18.093  0.00  0.00    +0.000 HD
ATOM     24  H   UNL     1      -8.304 -14.501  15.678  0.00  0.00    +0.000 HD
ATOM     25  H   UNL     1      -8.833 -12.766  13.999  0.00  0.00    +0.000 HD
ATOM     26  H   UNL     1      -9.237 -10.425  14.693  0.00  0.00    +0.000 HD
ENDBRANCH   9  12
ENDBRANCH   4   9
ENDBRANCH   1   4
BRANCH   1  27
ATOM     27  O   UNL     1      -8.060  -6.436  18.376  0.00  0.00    +0.000 OA
BRANCH  27  28
ATOM     28  C   UNL     1      -7.335  -5.707  19.274  0.00  0.00    +0.000 A 
ATOM     29  C   UNL     1      -5.958  -5.869  19.248  0.00  0.00    +0.000 A 
ATOM     30  N   UNL     1      -5.101  -5.220  20.070  0.00  0.00    +0.000 NA
ATOM     31  C   UNL     1      -5.651  -4.354  20.958  0.00  0.00    +0.000 A 
ATOM     32  C   UNL     1      -7.018  -4.101  21.087  0.00  0.00    +0.000 A 
ATOM     33  C   UNL     1      -7.854  -4.821  20.216  0.00  0.00    +0.000 A 
ATOM     34  H   UNL     1      -5.491  -6.550  18.542  0.00  0.00    +0.000 HD
ATOM     35  H   UNL     1      -4.919  -3.848  21.580  0.00  0.00    +0.000 HD
ATOM     36  H   UNL     1      -8.927  -4.687  20.298  0.00  0.00    +0.000 HD
BRANCH  32  37
ATOM     37  C   UNL     1      -7.579  -3.154  22.077  0.00  0.00    +0.000 A 
ATOM     38  C   UNL     1      -7.819  -1.807  21.762  0.00  0.00    +0.000 A 
ATOM     39  C   UNL     1      -8.285  -0.906  22.728  0.00  0.00    +0.000 A 
ATOM     40  C   UNL     1      -8.508  -1.325  24.048  0.00  0.00    +0.000 A 
ATOM     41  C   UNL     1      -8.926  -0.465  25.066  0.00  0.00    +0.000 A 
ATOM     42  N   UNL     1      -9.132  -0.838  26.351  0.00  0.00    +0.000 NA
ATOM     43  C   UNL     1      -8.921  -2.138  26.642  0.00  0.00    +0.000 A 
ATOM     44  C   UNL     1      -8.514  -3.079  25.711  0.00  0.00    +0.000 A 
ATOM     45  C   UNL     1      -8.296  -2.671  24.389  0.00  0.00    +0.000 A 
ATOM     46  C   UNL     1      -7.857  -3.566  23.398  0.00  0.00    +0.000 A 
ATOM     47  H   UNL     1      -7.620  -1.424  20.763  0.00  0.00    +0.000 HD
ATOM     48  H   UNL     1      -8.452   0.132  22.445  0.00  0.00    +0.000 HD
ATOM     49  H   UNL     1      -9.104   0.589  24.872  0.00  0.00    +0.000 HD
ATOM     50  H   UNL     1      -9.087  -2.414  27.680  0.00  0.00    +0.000 HD
ATOM     51  H   UNL     1      -8.360  -4.108  26.019  0.00  0.00    +0.000 HD
ATOM     52  H   UNL     1      -7.721  -4.611  23.675  0.00  0.00    +0.000 HD
ENDBRANCH  32  37
ENDBRANCH  27  28
ENDBRANCH   1  27
TORSDOF 7
ENDMDL
MODEL 3
REMARK VINA RESULT:   -12.032      1.381     10.325
REMARK INTER + INTRA:         -17.420
REMARK INTER:                 -16.639
REMARK INTRA:                  -0.781
REMARK UNBOUND:                -0.816
REMARK  Name = 
REMARK  7 active torsions:
REMARK  status: ('A' for Active; 'I' for Inactive)
REMARK    1  A    between atoms: N_1  and  C_2
REMARK    2  A    between atoms: C_2  and  C_3
REMARK    3  A    between atoms: C_2  and  C_21
REMARK    4  A    between atoms: C_3  and  O_4
REMARK    5  A    between atoms: O_4  and  C_5
REMARK    6  A    between atoms: C_9  and  C_10
REMARK    7  A    between atoms: C_21  and  C_22
REMARK                            x       y       z     vdW  Elec       q    Type
REMARK                         _______ _______ _______ _____ _____    ______ ____
ROOT
ATOM      1  C   UNL     1      -6.592  -4.927  20.288  0.00  0.00    +0.000 C 
ATOM      2  H   UNL     1      -5.893  -4.999  19.444  0.00  0.00    +0.000 HD
ATOM      3  H   UNL     1      -6.757  -5.926  20.710  0.00  0.00    +0.000 HD
ENDROOT
BRANCH   1   4
ATOM      4  C   UNL     1      -5.978  -4.035  21.384  0.00  0.00    +0.000 C 
ATOM      5  H   UNL     1      -5.919  -4.632  22.304  0.00  0.00    +0.000 HD
BRANCH   4   6
ATOM      6  N   UNL     1      -4.595  -3.669  21.022  0.00  0.00    +0.000 NA
ATOM      7  H   UNL     1      -4.108  -4.509  20.697  0.00  0.00    +0.000 HD
ATOM      8  H   UNL     1      -4.104  -3.388  21.870  0.00  0.00    +0.000 HD
ENDBRANCH   4   6
BRANCH   4   9
ATOM      9  C   UNL     1      -6.884  -2.808  21.642  0.00  0.00    +0.000 C 
ATOM     10  H   UNL     1      -7.611  -2.716  20.825  0.00  0.00    +0.000 HD
ATOM     11  H   UNL     1      -6.284  -1.891  21.620  0.00  0.00    +0.000 HD
BRANCH   9  12
ATOM     12  C   UNL     1      -7.633  -2.882  22.938  0.00  0.00    +0.000 A 
ATOM     13  C   UNL     1      -8.023  -4.030  23.601  0.00  0.00    +0.000 A 
ATOM     14  N   UNL     1      -8.630  -3.664  24.771  0.00  0.00    +0.000 N 
ATOM     15  C   UNL     1      -8.661  -2.294  24.882  0.00  0.00    +0.000 A 
ATOM     16  C   UNL     1      -9.174  -1.484  25.902  0.00  0.00    +0.000 A 
ATOM     17  C   UNL     1      -9.069  -0.098  25.743  0.00  0.00    +0.000 A 
ATOM     18  C   UNL     1      -8.476   0.452  24.610  0.00  0.00    +0.000 A 
ATOM     19  C   UNL     1      -7.963  -0.374  23.605  0.00  0.00    +0.000 A 
ATOM     20  C   UNL     1      -8.055  -1.775  23.740  0.00  0.00    +0.000 A 
ATOM     21  H   UNL     1      -7.901  -5.076  23.348  0.00  0.00    +0.000 HD
ATOM     22  H   UNL     1      -8.995  -4.303  25.462  0.00  0.00    +0.000 HD
ATOM     23  H   UNL     1      -9.636  -1.908  26.787  0.00  0.00    +0.000 HD
ATOM     24  H   UNL     1      -9.460   0.558  26.517  0.00  0.00    +0.000 HD
ATOM     25  H   UNL     1      -8.408   1.532  24.504  0.00  0.00    +0.000 HD
ATOM     26  H   UNL     1      -7.501   0.068  22.726  0.00  0.00    +0.000 HD
ENDBRANCH   9  12
ENDBRANCH   4   9
ENDBRANCH   1   4
BRANCH   1  27
ATOM     27  O   UNL     1      -7.841  -4.377  19.845  0.00  0.00    +0.000 OA
BRANCH  27  28
ATOM     28  C   UNL     1      -8.640  -5.201  19.107  0.00  0.00    +0.000 A 
ATOM     29  C   UNL     1      -9.721  -4.619  18.463  0.00  0.00    +0.000 A 
ATOM     30  N   UNL     1     -10.605  -5.297  17.696  0.00  0.00    +0.000 NA
ATOM     31  C   UNL     1     -10.388  -6.629  17.556  0.00  0.00    +0.000 A 
ATOM     32  C   UNL     1      -9.342  -7.337  18.149  0.00  0.00    +0.000 A 
ATOM     33  C   UNL     1      -8.470  -6.576  18.948  0.00  0.00    +0.000 A 
ATOM     34  H   UNL     1      -9.912  -3.552  18.552  0.00  0.00    +0.000 HD
ATOM     35  H   UNL     1     -11.116  -7.121  16.916  0.00  0.00    +0.000 HD
ATOM     36  H   UNL     1      -7.661  -7.083  19.460  0.00  0.00    +0.000 HD
BRANCH  32  37
ATOM     37  C   UNL     1      -9.147  -8.794  17.979  0.00  0.00    +0.000 A 
ATOM     38  C   UNL     1      -8.786  -9.624  19.053  0.00  0.00    +0.000 A 
ATOM     39  C   UNL     1      -8.537 -10.990  18.865  0.00  0.00    +0.000 A 
ATOM     40  C   UNL     1      -8.625 -11.563  17.588  0.00  0.00    +0.000 A 
ATOM     41  C   UNL     1      -8.343 -12.906  17.328  0.00  0.00    +0.000 A 
ATOM     42  N   UNL     1      -8.403 -13.481  16.104  0.00  0.00    +0.000 NA
ATOM     43  C   UNL     1      -8.771 -12.684  15.082  0.00  0.00    +0.000 A 
ATOM     44  C   UNL     1      -9.081 -11.341  15.225  0.00  0.00    +0.000 A 
ATOM     45  C   UNL     1      -9.003 -10.763  16.497  0.00  0.00    +0.000 A 
ATOM     46  C   UNL     1      -9.277  -9.401  16.712  0.00  0.00    +0.000 A 
ATOM     47  H   UNL     1      -8.663  -9.217  20.055  0.00  0.00    +0.000 HD
ATOM     48  H   UNL     1      -8.253 -11.597  19.722  0.00  0.00    +0.000 HD
ATOM     49  H   UNL     1      -8.041 -13.580  18.126  0.00  0.00    +0.000 HD
ATOM     50  H   UNL     1      -8.807 -13.165  14.108  0.00  0.00    +0.000 HD
ATOM     51  H   UNL     1      -9.366 -10.760  14.354  0.00  0.00    +0.000 HD
ATOM     52  H   UNL     1      -9.593  -8.801  15.859  0.00  0.00    +0.000 HD
ENDBRANCH  32  37
ENDBRANCH  27  28
ENDBRANCH   1  27
TORSDOF 7
ENDMDL
MODEL 4
REMARK VINA RESULT:   -11.744      1.846     10.278
REMARK INTER + INTRA:         -17.022
REMARK INTER:                 -16.234
REMARK INTRA:                  -0.788
REMARK UNBOUND:                -0.816
REMARK  Name = 
REMARK  7 active torsions:
REMARK  status: ('A' for Active; 'I' for Inactive)
REMARK    1  A    between atoms: N_1  and  C_2
REMARK    2  A    between atoms: C_2  and  C_3
REMARK    3  A    between atoms: C_2  and  C_21
REMARK    4  A    between atoms: C_3  and  O_4
REMARK    5  A    between atoms: O_4  and  C_5
REMARK    6  A    between atoms: C_9  and  C_10
REMARK    7  A    between atoms: C_21  and  C_22
REMARK                            x       y       z     vdW  Elec       q    Type
REMARK                         _______ _______ _______ _____ _____    ______ ____
ROOT
ATOM      1  C   UNL     1      -7.437  -4.759  20.025  0.00  0.00    +0.000 C 
ATOM      2  H   UNL     1      -8.131  -3.920  20.169  0.00  0.00    +0.000 HD
ATOM      3  H   UNL     1      -7.062  -4.748  18.995  0.00  0.00    +0.000 HD
ENDROOT
BRANCH   1   4
ATOM      4  C   UNL     1      -6.239  -4.598  20.980  0.00  0.00    +0.000 C 
ATOM      5  H   UNL     1      -6.247  -5.453  21.670  0.00  0.00    +0.000 HD
BRANCH   4   6
ATOM      6  N   UNL     1      -4.975  -4.674  20.221  0.00  0.00    +0.000 NA
ATOM      7  H   UNL     1      -4.201  -4.779  20.884  0.00  0.00    +0.000 HD
ATOM      8  H   UNL     1      -4.817  -3.774  19.769  0.00  0.00    +0.000 HD
ENDBRANCH   4   6
BRANCH   4   9
ATOM      9  C   UNL     1      -6.379  -3.294  21.798  0.00  0.00    +0.000 C 
ATOM     10  H   UNL     1      -6.595  -2.460  21.117  0.00  0.00    +0.000 HD
ATOM     11  H   UNL     1      -5.425  -3.052  22.281  0.00  0.00    +0.000 HD
BRANCH   9  12
ATOM     12  C   UNL     1      -7.462  -3.353  22.833  0.00  0.00    +0.000 A 
ATOM     13  C   UNL     1      -7.401  -3.995  24.054  0.00  0.00    +0.000 A 
ATOM     14  N   UNL     1      -8.572  -3.760  24.721  0.00  0.00    +0.000 N 
ATOM     15  C   UNL     1      -9.411  -2.990  23.951  0.00  0.00    +0.000 A 
ATOM     16  C   UNL     1     -10.696  -2.506  24.225  0.00  0.00    +0.000 A 
ATOM     17  C   UNL     1     -11.323  -1.738  23.239  0.00  0.00    +0.000 A 
ATOM     18  C   UNL     1     -10.689  -1.466  22.030  0.00  0.00    +0.000 A 
ATOM     19  C   UNL     1      -9.403  -1.952  21.776  0.00  0.00    +0.000 A 
ATOM     20  C   UNL     1      -8.747  -2.730  22.754  0.00  0.00    +0.000 A 
ATOM     21  H   UNL     1      -6.614  -4.579  24.514  0.00  0.00    +0.000 HD
ATOM     22  H   UNL     1      -8.792  -4.095  25.648  0.00  0.00    +0.000 HD
ATOM     23  H   UNL     1     -11.193  -2.714  25.167  0.00  0.00    +0.000 HD
ATOM     24  H   UNL     1     -12.322  -1.349  23.421  0.00  0.00    +0.000 HD
ATOM     25  H   UNL     1     -11.196  -0.870  21.275  0.00  0.00    +0.000 HD
ATOM     26  H   UNL     1      -8.919  -1.732  20.828  0.00  0.00    +0.000 HD
ENDBRANCH   9  12
ENDBRANCH   4   9
ENDBRANCH   1   4
BRANCH   1  27
ATOM     27  O   UNL     1      -8.111  -6.000  20.282  0.00  0.00    +0.000 OA
BRANCH  27  28
ATOM     28  C   UNL     1      -8.812  -6.537  19.242  0.00  0.00    +0.000 A 
ATOM     29  C   UNL     1      -9.831  -5.765  18.705  0.00  0.00    +0.000 A 
ATOM     30  N   UNL     1     -10.616  -6.152  17.673  0.00  0.00    +0.000 NA
ATOM     31  C   UNL     1     -10.360  -7.374  17.143  0.00  0.00    +0.000 A 
ATOM     32  C   UNL     1      -9.368  -8.249  17.589  0.00  0.00    +0.000 A 
ATOM     33  C   UNL     1      -8.600  -7.793  18.675  0.00  0.00    +0.000 A 
ATOM     34  H   UNL     1     -10.051  -4.779  19.106  0.00  0.00    +0.000 HD
ATOM     35  H   UNL     1     -11.007  -7.628  16.308  0.00  0.00    +0.000 HD
ATOM     36  H   UNL     1      -7.838  -8.448  19.083  0.00  0.00    +0.000 HD
BRANCH  32  37
ATOM     37  C   UNL     1      -9.128  -9.580  16.989  0.00  0.00    +0.000 A 
ATOM     38  C   UNL     1      -9.058  -9.765  15.599  0.00  0.00    +0.000 A 
ATOM     39  C   UNL     1      -8.900 -11.040  15.041  0.00  0.00    +0.000 A 
ATOM     40  C   UNL     1      -8.826 -12.175  15.862  0.00  0.00    +0.000 A 
ATOM     41  C   UNL     1      -8.716 -13.476  15.366  0.00  0.00    +0.000 A 
ATOM     42  N   UNL     1      -8.660 -14.589  16.134  0.00  0.00    +0.000 NA
ATOM     43  C   UNL     1      -8.706 -14.403  17.468  0.00  0.00    +0.000 A 
ATOM     44  C   UNL     1      -8.806 -13.159  18.069  0.00  0.00    +0.000 A 
ATOM     45  C   UNL     1      -8.873 -12.021  17.258  0.00  0.00    +0.000 A 
ATOM     46  C   UNL     1      -9.002 -10.730  17.798  0.00  0.00    +0.000 A 
ATOM     47  H   UNL     1      -9.153  -8.920  14.919  0.00  0.00    +0.000 HD
ATOM     48  H   UNL     1      -8.856 -11.141  13.958  0.00  0.00    +0.000 HD
ATOM     49  H   UNL     1      -8.678 -13.667  14.296  0.00  0.00    +0.000 HD
ATOM     50  H   UNL     1      -8.665 -15.311  18.065  0.00  0.00    +0.000 HD
ATOM     51  H   UNL     1      -8.842 -13.087  19.152  0.00  0.00    +0.000 HD
ATOM     52  H   UNL     1      -9.013 -10.627  18.883  0.00  0.00    +0.000 HD
ENDBRANCH  32  37
ENDBRANCH  27  28
ENDBRANCH   1  27
TORSDOF 7
ENDMDL
MODEL 5
REMARK VINA RESULT:   -11.577      1.763     10.720
REMARK INTER + INTRA:         -16.792
REMARK INTER:                 -16.195
REMARK INTRA:                  -0.597
REMARK UNBOUND:                -0.816
REMARK  Name = 
REMARK  7 active torsions:
REMARK  status: ('A' for Active; 'I' for Inactive)
REMARK    1  A    between atoms: N_1  and  C_2
REMARK    2  A    between atoms: C_2  and  C_3
REMARK    3  A    between atoms: C_2  and  C_21
REMARK    4  A    between atoms: C_3  and  O_4
REMARK    5  A    between atoms: O_4  and  C_5
REMARK    6  A    between atoms: C_9  and  C_10
REMARK    7  A    between atoms: C_21  and  C_22
REMARK                            x       y       z     vdW  Elec       q    Type
REMARK                         _______ _______ _______ _____ _____    ______ ____
ROOT
ATOM      1  C   UNL     1      -7.096  -4.960  20.072  0.00  0.00    +0.000 C 
ATOM      2  H   UNL     1      -6.928  -4.757  19.006  0.00  0.00    +0.000 HD
ATOM      3  H   UNL     1      -6.185  -5.385  20.509  0.00  0.00    +0.000 HD
ENDROOT
BRANCH   1   4
ATOM      4  C   UNL     1      -7.410  -3.638  20.799  0.00  0.00    +0.000 C 
ATOM      5  H   UNL     1      -7.107  -2.815  20.138  0.00  0.00    +0.000 HD
BRANCH   4   6
ATOM      6  N   UNL     1      -8.866  -3.508  21.004  0.00  0.00    +0.000 NA
ATOM      7  H   UNL     1      -9.062  -3.561  22.008  0.00  0.00    +0.000 HD
ATOM      8  H   UNL     1      -9.323  -4.325  20.601  0.00  0.00    +0.000 HD
ENDBRANCH   4   6
BRANCH   4   9
ATOM      9  C   UNL     1      -6.602  -3.547  22.114  0.00  0.00    +0.000 C 
ATOM     10  H   UNL     1      -5.859  -2.743  22.029  0.00  0.00    +0.000 HD
ATOM     11  H   UNL     1      -6.033  -4.472  22.267  0.00  0.00    +0.000 HD
BRANCH   9  12
ATOM     12  C   UNL     1      -7.452  -3.280  23.319  0.00  0.00    +0.000 A 
ATOM     13  C   UNL     1      -7.919  -4.215  24.223  0.00  0.00    +0.000 A 
ATOM     14  N   UNL     1      -8.608  -3.556  25.205  0.00  0.00    +0.000 N 
ATOM     15  C   UNL     1      -8.618  -2.205  24.953  0.00  0.00    +0.000 A 
ATOM     16  C   UNL     1      -9.191  -1.156  25.681  0.00  0.00    +0.000 A 
ATOM     17  C   UNL     1      -9.044   0.140  25.177  0.00  0.00    +0.000 A 
ATOM     18  C   UNL     1      -8.351   0.375  23.993  0.00  0.00    +0.000 A 
ATOM     19  C   UNL     1      -7.779  -0.685  23.282  0.00  0.00    +0.000 A 
ATOM     20  C   UNL     1      -7.912  -2.002  23.768  0.00  0.00    +0.000 A 
ATOM     21  H   UNL     1      -7.800  -5.291  24.262  0.00  0.00    +0.000 HD
ATOM     22  H   UNL     1      -9.041  -3.993  26.006  0.00  0.00    +0.000 HD
ATOM     23  H   UNL     1      -9.731  -1.334  26.605  0.00  0.00    +0.000 HD
ATOM     24  H   UNL     1      -9.480   0.976  25.719  0.00  0.00    +0.000 HD
ATOM     25  H   UNL     1      -8.251   1.390  23.616  0.00  0.00    +0.000 HD
ATOM     26  H   UNL     1      -7.239  -0.487  22.359  0.00  0.00    +0.000 HD
ENDBRANCH   9  12
ENDBRANCH   4   9
ENDBRANCH   1   4
BRANCH   1  27
ATOM     27  O   UNL     1      -8.184  -5.881  20.230  0.00  0.00    +0.000 OA
BRANCH  27  28
ATOM     28  C   UNL     1      -8.548  -6.587  19.120  0.00  0.00    +0.000 A 
ATOM     29  C   UNL     1      -8.992  -5.856  18.028  0.00  0.00    +0.000 A 
ATOM     30  N   UNL     1      -9.388  -6.404  16.856  0.00  0.00    +0.000 NA
ATOM     31  C   UNL     1      -9.325  -7.757  16.769  0.00  0.00    +0.000 A 
ATOM     32  C   UNL     1      -8.899  -8.607  17.791  0.00  0.00    +0.000 A 
ATOM     33  C   UNL     1      -8.519  -7.974  18.988  0.00  0.00    +0.000 A 
ATOM     34  H   UNL     1      -9.045  -4.771  18.069  0.00  0.00    +0.000 HD
ATOM     35  H   UNL     1      -9.636  -8.143  15.802  0.00  0.00    +0.000 HD
ATOM     36  H   UNL     1      -8.213  -8.590  19.825  0.00  0.00    +0.000 HD
BRANCH  32  37
ATOM     37  C   UNL     1      -8.855 -10.080  17.658  0.00  0.00    +0.000 A 
ATOM     38  C   UNL     1      -8.641 -10.919  18.764  0.00  0.00    +0.000 A 
ATOM     39  C   UNL     1      -8.532 -12.307  18.614  0.00  0.00    +0.000 A 
ATOM     40  C   UNL     1      -8.617 -12.898  17.344  0.00  0.00    +0.000 A 
ATOM     41  C   UNL     1      -8.469 -14.269  17.124  0.00  0.00    +0.000 A 
ATOM     42  N   UNL     1      -8.529 -14.863  15.910  0.00  0.00    +0.000 NA
ATOM     43  C   UNL     1      -8.756 -14.055  14.855  0.00  0.00    +0.000 A 
ATOM     44  C   UNL     1      -8.926 -12.684  14.957  0.00  0.00    +0.000 A 
ATOM     45  C   UNL     1      -8.850 -12.087  16.221  0.00  0.00    +0.000 A 
ATOM     46  C   UNL     1      -8.986 -10.699  16.397  0.00  0.00    +0.000 A 
ATOM     47  H   UNL     1      -8.526 -10.504  19.764  0.00  0.00    +0.000 HD
ATOM     48  H   UNL     1      -8.360 -12.922  19.496  0.00  0.00    +0.000 HD
ATOM     49  H   UNL     1      -8.283 -14.952  17.949  0.00  0.00    +0.000 HD
ATOM     50  H   UNL     1      -8.794 -14.552  13.889  0.00  0.00    +0.000 HD
ATOM     51  H   UNL     1      -9.101 -12.096  14.061  0.00  0.00    +0.000 HD
ATOM     52  H   UNL     1      -9.190 -10.089  15.517  0.00  0.00    +0.000 HD
ENDBRANCH  32  37
ENDBRANCH  27  28
ENDBRANCH   1  27
TORSDOF 7
ENDMDL
MODEL 6
REMARK VINA RESULT:   -11.367      1.518      1.842
REMARK INTER + INTRA:         -16.502
REMARK INTER:                 -15.683
REMARK INTRA:                  -0.818
REMARK UNBOUND:                -0.816
REMARK  Name = 
REMARK  7 active torsions:
REMARK  status: ('A' for Active; 'I' for Inactive)
REMARK    1  A    between atoms: N_1  and  C_2
REMARK    2  A    between atoms: C_2  and  C_3
REMARK    3  A    between atoms: C_2  and  C_21
REMARK    4  A    between atoms: C_3  and  O_4
REMARK    5  A    between atoms: O_4  and  C_5
REMARK    6  A    between atoms: C_9  and  C_10
REMARK    7  A    between atoms: C_21  and  C_22
REMARK                            x       y       z     vdW  Elec       q    Type
REMARK                         _______ _______ _______ _____ _____    ______ ____
ROOT
ATOM      1  C   UNL     1     -10.279  -6.436  18.217  0.00  0.00    +0.000 C 
ATOM      2  H   UNL     1     -11.102  -5.709  18.215  0.00  0.00    +0.000 HD
ATOM      3  H   UNL     1     -10.178  -6.869  19.219  0.00  0.00    +0.000 HD
ENDROOT
BRANCH   1   4
ATOM      4  C   UNL     1     -10.600  -7.573  17.229  0.00  0.00    +0.000 C 
ATOM      5  H   UNL     1     -11.202  -8.320  17.765  0.00  0.00    +0.000 HD
BRANCH   4   6
ATOM      6  N   UNL     1     -11.437  -7.063  16.125  0.00  0.00    +0.000 NA
ATOM      7  H   UNL     1     -11.780  -6.131  16.377  0.00  0.00    +0.000 HD
ATOM      8  H   UNL     1     -12.272  -7.644  16.059  0.00  0.00    +0.000 HD
ENDBRANCH   4   6
BRANCH   4   9
ATOM      9  C   UNL     1      -9.294  -8.242  16.741  0.00  0.00    +0.000 C 
ATOM     10  H   UNL     1      -8.447  -7.572  16.942  0.00  0.00    +0.000 HD
ATOM     11  H   UNL     1      -9.326  -8.374  15.654  0.00  0.00    +0.000 HD
BRANCH   9  12
ATOM     12  C   UNL     1      -9.020  -9.562  17.396  0.00  0.00    +0.000 A 
ATOM     13  C   UNL     1      -8.894  -9.800  18.751  0.00  0.00    +0.000 A 
ATOM     14  N   UNL     1      -8.704 -11.143  18.934  0.00  0.00    +0.000 N 
ATOM     15  C   UNL     1      -8.684 -11.790  17.722  0.00  0.00    +0.000 A 
ATOM     16  C   UNL     1      -8.524 -13.149  17.428  0.00  0.00    +0.000 A 
ATOM     17  C   UNL     1      -8.542 -13.528  16.081  0.00  0.00    +0.000 A 
ATOM     18  C   UNL     1      -8.714 -12.584  15.073  0.00  0.00    +0.000 A 
ATOM     19  C   UNL     1      -8.880 -11.231  15.386  0.00  0.00    +0.000 A 
ATOM     20  C   UNL     1      -8.866 -10.822  16.736  0.00  0.00    +0.000 A 
ATOM     21  H   UNL     1      -8.946  -9.131  19.601  0.00  0.00    +0.000 HD
ATOM     22  H   UNL     1      -8.601 -11.600  19.829  0.00  0.00    +0.000 HD
ATOM     23  H   UNL     1      -8.390 -13.888  18.210  0.00  0.00    +0.000 HD
ATOM     24  H   UNL     1      -8.417 -14.576  15.820  0.00  0.00    +0.000 HD
ATOM     25  H   UNL     1      -8.722 -12.898  14.032  0.00  0.00    +0.000 HD
ATOM     26  H   UNL     1      -9.015 -10.505  14.589  0.00  0.00    +0.000 HD
ENDBRANCH   9  12
ENDBRANCH   4   9
ENDBRANCH   1   4
BRANCH   1  27
ATOM     27  O   UNL     1      -9.054  -5.789  17.844  0.00  0.00    +0.000 OA
BRANCH  27  28
ATOM     28  C   UNL     1      -8.296  -5.289  18.863  0.00  0.00    +0.000 A 
ATOM     29  C   UNL     1      -7.119  -5.959  19.159  0.00  0.00    +0.000 A 
ATOM     30  N   UNL     1      -6.259  -5.591  20.137  0.00  0.00    +0.000 NA
ATOM     31  C   UNL     1      -6.591  -4.485  20.849  0.00  0.00    +0.000 A 
ATOM     32  C   UNL     1      -7.743  -3.722  20.654  0.00  0.00    +0.000 A 
ATOM     33  C   UNL     1      -8.602  -4.169  19.635  0.00  0.00    +0.000 A 
ATOM     34  H   UNL     1      -6.827  -6.843  18.598  0.00  0.00    +0.000 HD
ATOM     35  H   UNL     1      -5.859  -4.224  21.609  0.00  0.00    +0.000 HD
ATOM     36  H   UNL     1      -9.528  -3.633  19.465  0.00  0.00    +0.000 HD
BRANCH  32  37
ATOM     37  C   UNL     1      -8.073  -2.526  21.462  0.00  0.00    +0.000 A 
ATOM     38  C   UNL     1      -7.308  -2.153  22.579  0.00  0.00    +0.000 A 
ATOM     39  C   UNL     1      -7.671  -1.059  23.376  0.00  0.00    +0.000 A 
ATOM     40  C   UNL     1      -8.825  -0.316  23.087  0.00  0.00    +0.000 A 
ATOM     41  C   UNL     1      -9.265   0.754  23.870  0.00  0.00    +0.000 A 
ATOM     42  N   UNL     1     -10.383   1.477  23.625  0.00  0.00    +0.000 NA
ATOM     43  C   UNL     1     -11.100   1.126  22.539  0.00  0.00    +0.000 A 
ATOM     44  C   UNL     1     -10.754   0.089  21.688  0.00  0.00    +0.000 A 
ATOM     45  C   UNL     1      -9.600  -0.653  21.965  0.00  0.00    +0.000 A 
ATOM     46  C   UNL     1      -9.202  -1.736  21.161  0.00  0.00    +0.000 A 
ATOM     47  H   UNL     1      -6.428  -2.724  22.868  0.00  0.00    +0.000 HD
ATOM     48  H   UNL     1      -7.055  -0.806  24.237  0.00  0.00    +0.000 HD
ATOM     49  H   UNL     1      -8.715   1.064  24.755  0.00  0.00    +0.000 HD
ATOM     50  H   UNL     1     -11.996   1.716  22.364  0.00  0.00    +0.000 HD
ATOM     51  H   UNL     1     -11.383  -0.138  20.834  0.00  0.00    +0.000 HD
ATOM     52  H   UNL     1      -9.801  -1.967  20.281  0.00  0.00    +0.000 HD
ENDBRANCH  32  37
ENDBRANCH  27  28
ENDBRANCH   1  27
TORSDOF 7
ENDMDL
MODEL 7
REMARK VINA RESULT:   -11.220      1.620     10.798
REMARK INTER + INTRA:         -16.299
REMARK INTER:                 -15.689
REMARK INTRA:                  -0.609
REMARK UNBOUND:                -0.816
REMARK  Name = 
REMARK  7 active torsions:
REMARK  status: ('A' for Active; 'I' for Inactive)
REMARK    1  A    between atoms: N_1  and  C_2
REMARK    2  A    between atoms: C_2  and  C_3
REMARK    3  A    between atoms: C_2  and  C_21
REMARK    4  A    between atoms: C_3  and  O_4
REMARK    5  A    between atoms: O_4  and  C_5
REMARK    6  A    between atoms: C_9  and  C_10
REMARK    7  A    between atoms: C_21  and  C_22
REMARK                            x       y       z     vdW  Elec       q    Type
REMARK                         _______ _______ _______ _____ _____    ______ ____
ROOT
ATOM      1  C   UNL     1      -7.178  -4.807  20.335  0.00  0.00    +0.000 C 
ATOM      2  H   UNL     1      -7.373  -4.158  19.471  0.00  0.00    +0.000 HD
ATOM      3  H   UNL     1      -6.168  -5.227  20.254  0.00  0.00    +0.000 HD
ENDROOT
BRANCH   1   4
ATOM      4  C   UNL     1      -7.254  -3.972  21.627  0.00  0.00    +0.000 C 
ATOM      5  H   UNL     1      -7.065  -4.649  22.472  0.00  0.00    +0.000 HD
BRANCH   4   6
ATOM      6  N   UNL     1      -6.178  -2.963  21.641  0.00  0.00    +0.000 NA
ATOM      7  H   UNL     1      -5.275  -3.445  21.671  0.00  0.00    +0.000 HD
ATOM      8  H   UNL     1      -6.232  -2.446  22.518  0.00  0.00    +0.000 HD
ENDBRANCH   4   6
BRANCH   4   9
ATOM      9  C   UNL     1      -8.665  -3.359  21.784  0.00  0.00    +0.000 C 
ATOM     10  H   UNL     1      -9.316  -4.075  22.301  0.00  0.00    +0.000 HD
ATOM     11  H   UNL     1      -9.113  -3.197  20.797  0.00  0.00    +0.000 HD
BRANCH   9  12
ATOM     12  C   UNL     1      -8.672  -2.072  22.552  0.00  0.00    +0.000 A 
ATOM     13  C   UNL     1      -8.641  -0.796  22.024  0.00  0.00    +0.000 A 
ATOM     14  N   UNL     1      -8.720   0.098  23.057  0.00  0.00    +0.000 N 
ATOM     15  C   UNL     1      -8.784  -0.568  24.258  0.00  0.00    +0.000 A 
ATOM     16  C   UNL     1      -8.878  -0.068  25.562  0.00  0.00    +0.000 A 
ATOM     17  C   UNL     1      -8.922  -0.994  26.609  0.00  0.00    +0.000 A 
ATOM     18  C   UNL     1      -8.875  -2.363  26.360  0.00  0.00    +0.000 A 
ATOM     19  C   UNL     1      -8.788  -2.844  25.050  0.00  0.00    +0.000 A 
ATOM     20  C   UNL     1      -8.742  -1.932  23.975  0.00  0.00    +0.000 A 
ATOM     21  H   UNL     1      -8.593  -0.449  21.000  0.00  0.00    +0.000 HD
ATOM     22  H   UNL     1      -8.738   1.103  22.958  0.00  0.00    +0.000 HD
ATOM     23  H   UNL     1      -8.916   0.998  25.761  0.00  0.00    +0.000 HD
ATOM     24  H   UNL     1      -8.994  -0.637  27.634  0.00  0.00    +0.000 HD
ATOM     25  H   UNL     1      -8.907  -3.066  27.188  0.00  0.00    +0.000 HD
ATOM     26  H   UNL     1      -8.753  -3.915  24.869  0.00  0.00    +0.000 HD
ENDBRANCH   9  12
ENDBRANCH   4   9
ENDBRANCH   1   4
BRANCH   1  27
ATOM     27  O   UNL     1      -8.141  -5.870  20.376  0.00  0.00    +0.000 OA
BRANCH  27  28
ATOM     28  C   UNL     1      -8.626  -6.298  19.174  0.00  0.00    +0.000 A 
ATOM     29  C   UNL     1      -9.304  -5.367  18.402  0.00  0.00    +0.000 A 
ATOM     30  N   UNL     1      -9.843  -5.632  17.189  0.00  0.00    +0.000 NA
ATOM     31  C   UNL     1      -9.683  -6.895  16.719  0.00  0.00    +0.000 A 
ATOM     32  C   UNL     1      -9.024  -7.924  17.394  0.00  0.00    +0.000 A 
ATOM     33  C   UNL     1      -8.504  -7.586  18.656  0.00  0.00    +0.000 A 
ATOM     34  H   UNL     1      -9.438  -4.347  18.752  0.00  0.00    +0.000 HD
ATOM     35  H   UNL     1     -10.118  -7.048  15.735  0.00  0.00    +0.000 HD
ATOM     36  H   UNL     1      -8.013  -8.358  19.237  0.00  0.00    +0.000 HD
BRANCH  32  37
ATOM     37  C   UNL     1      -8.881  -9.292  16.849  0.00  0.00    +0.000 A 
ATOM     38  C   UNL     1      -8.862  -9.542  15.467  0.00  0.00    +0.000 A 
ATOM     39  C   UNL     1      -8.797 -10.847  14.964  0.00  0.00    +0.000 A 
ATOM     40  C   UNL     1      -8.766 -11.947  15.835  0.00  0.00    +0.000 A 
ATOM     41  C   UNL     1      -8.748 -13.273  15.395  0.00  0.00    +0.000 A 
ATOM     42  N   UNL     1      -8.736 -14.353  16.212  0.00  0.00    +0.000 NA
ATOM     43  C   UNL     1      -8.732 -14.106  17.537  0.00  0.00    +0.000 A 
ATOM     44  C   UNL     1      -8.740 -12.833  18.083  0.00  0.00    +0.000 A 
ATOM     45  C   UNL     1      -8.764 -11.729  17.222  0.00  0.00    +0.000 A 
ATOM     46  C   UNL     1      -8.800 -10.410  17.706  0.00  0.00    +0.000 A 
ATOM     47  H   UNL     1      -8.927  -8.724  14.752  0.00  0.00    +0.000 HD
ATOM     48  H   UNL     1      -8.791 -10.999  13.887  0.00  0.00    +0.000 HD
ATOM     49  H   UNL     1      -8.753 -13.513  14.335  0.00  0.00    +0.000 HD
ATOM     50  H   UNL     1      -8.727 -14.987  18.173  0.00  0.00    +0.000 HD
ATOM     51  H   UNL     1      -8.740 -12.711  19.162  0.00  0.00    +0.000 HD
ATOM     52  H   UNL     1      -8.773 -10.259  18.785  0.00  0.00    +0.000 HD
ENDBRANCH  32  37
ENDBRANCH  27  28
ENDBRANCH   1  27
TORSDOF 7
ENDMDL
MODEL 8
REMARK VINA RESULT:   -11.122      2.541      9.938
REMARK INTER + INTRA:         -16.164
REMARK INTER:                 -15.496
REMARK INTRA:                  -0.668
REMARK UNBOUND:                -0.816
REMARK  Name = 
REMARK  7 active torsions:
REMARK  status: ('A' for Active; 'I' for Inactive)
REMARK    1  A    between atoms: N_1  and  C_2
REMARK    2  A    between atoms: C_2  and  C_3
REMARK    3  A    between atoms: C_2  and  C_21
REMARK    4  A    between atoms: C_3  and  O_4
REMARK    5  A    between atoms: O_4  and  C_5
REMARK    6  A    between atoms: C_9  and  C_10
REMARK    7  A    between atoms: C_21  and  C_22
REMARK                            x       y       z     vdW  Elec       q    Type
REMARK                         _______ _______ _______ _____ _____    ______ ____
ROOT
ATOM      1  C   UNL     1     -11.499  -3.711  18.409  0.00  0.00    +0.000 C 
ATOM      2  H   UNL     1     -11.662  -4.284  19.331  0.00  0.00    +0.000 HD
ATOM      3  H   UNL     1     -12.442  -3.640  17.853  0.00  0.00    +0.000 HD
ENDROOT
BRANCH   1   4
ATOM      4  C   UNL     1     -11.042  -2.285  18.770  0.00  0.00    +0.000 C 
ATOM      5  H   UNL     1      -9.945  -2.262  18.706  0.00  0.00    +0.000 HD
BRANCH   4   6
ATOM      6  N   UNL     1     -11.548  -1.324  17.771  0.00  0.00    +0.000 NA
ATOM      7  H   UNL     1     -11.652  -0.408  18.220  0.00  0.00    +0.000 HD
ATOM      8  H   UNL     1     -12.494  -1.600  17.508  0.00  0.00    +0.000 HD
ENDBRANCH   4   6
BRANCH   4   9
ATOM      9  C   UNL     1     -11.467  -1.938  20.216  0.00  0.00    +0.000 C 
ATOM     10  H   UNL     1     -12.036  -2.777  20.637  0.00  0.00    +0.000 HD
ATOM     11  H   UNL     1     -12.148  -1.080  20.208  0.00  0.00    +0.000 HD
BRANCH   9  12
ATOM     12  C   UNL     1     -10.309  -1.647  21.123  0.00  0.00    +0.000 A 
ATOM     13  C   UNL     1      -9.096  -1.096  20.761  0.00  0.00    +0.000 A 
ATOM     14  N   UNL     1      -8.340  -0.943  21.892  0.00  0.00    +0.000 N 
ATOM     15  C   UNL     1      -9.028  -1.403  22.989  0.00  0.00    +0.000 A 
ATOM     16  C   UNL     1      -8.654  -1.440  24.338  0.00  0.00    +0.000 A 
ATOM     17  C   UNL     1      -9.569  -1.975  25.250  0.00  0.00    +0.000 A 
ATOM     18  C   UNL     1     -10.808  -2.450  24.828  0.00  0.00    +0.000 A 
ATOM     19  C   UNL     1     -11.168  -2.398  23.478  0.00  0.00    +0.000 A 
ATOM     20  C   UNL     1     -10.263  -1.864  22.537  0.00  0.00    +0.000 A 
ATOM     21  H   UNL     1      -8.716  -0.778  19.799  0.00  0.00    +0.000 HD
ATOM     22  H   UNL     1      -7.413  -0.544  21.923  0.00  0.00    +0.000 HD
ATOM     23  H   UNL     1      -7.690  -1.070  24.671  0.00  0.00    +0.000 HD
ATOM     24  H   UNL     1      -9.308  -2.020  26.304  0.00  0.00    +0.000 HD
ATOM     25  H   UNL     1     -11.504  -2.865  25.553  0.00  0.00    +0.000 HD
ATOM     26  H   UNL     1     -12.138  -2.772  23.163  0.00  0.00    +0.000 HD
ENDBRANCH   9  12
ENDBRANCH   4   9
ENDBRANCH   1   4
BRANCH   1  27
ATOM     27  O   UNL     1     -10.508  -4.358  17.598  0.00  0.00    +0.000 OA
BRANCH  27  28
ATOM     28  C   UNL     1      -9.718  -5.278  18.224  0.00  0.00    +0.000 A 
ATOM     29  C   UNL     1      -8.892  -4.814  19.236  0.00  0.00    +0.000 A 
ATOM     30  N   UNL     1      -8.052  -5.597  19.952  0.00  0.00    +0.000 NA
ATOM     31  C   UNL     1      -8.047  -6.919  19.645  0.00  0.00    +0.000 A 
ATOM     32  C   UNL     1      -8.827  -7.513  18.651  0.00  0.00    +0.000 A 
ATOM     33  C   UNL     1      -9.663  -6.640  17.933  0.00  0.00    +0.000 A 
ATOM     34  H   UNL     1      -8.883  -3.761  19.508  0.00  0.00    +0.000 HD
ATOM     35  H   UNL     1      -7.369  -7.504  20.260  0.00  0.00    +0.000 HD
ATOM     36  H   UNL     1     -10.264  -7.045  17.126  0.00  0.00    +0.000 HD
BRANCH  32  37
ATOM     37  C   UNL     1      -8.783  -8.959  18.340  0.00  0.00    +0.000 A 
ATOM     38  C   UNL     1      -8.528  -9.923  19.329  0.00  0.00    +0.000 A 
ATOM     39  C   UNL     1      -8.420 -11.283  19.010  0.00  0.00    +0.000 A 
ATOM     40  C   UNL     1      -8.548 -11.717  17.682  0.00  0.00    +0.000 A 
ATOM     41  C   UNL     1      -8.405 -13.051  17.294  0.00  0.00    +0.000 A 
ATOM     42  N   UNL     1      -8.506 -13.496  16.020  0.00  0.00    +0.000 NA
ATOM     43  C   UNL     1      -8.773 -12.569  15.078  0.00  0.00    +0.000 A 
ATOM     44  C   UNL     1      -8.943 -11.221  15.350  0.00  0.00    +0.000 A 
ATOM     45  C   UNL     1      -8.824 -10.780  16.673  0.00  0.00    +0.000 A 
ATOM     46  C   UNL     1      -8.957  -9.424  17.019  0.00  0.00    +0.000 A 
ATOM     47  H   UNL     1      -8.378  -9.630  20.367  0.00  0.00    +0.000 HD
ATOM     48  H   UNL     1      -8.215 -11.997  19.805  0.00  0.00    +0.000 HD
ATOM     49  H   UNL     1      -8.187 -13.827  18.024  0.00  0.00    +0.000 HD
ATOM     50  H   UNL     1      -8.845 -12.947  14.062  0.00  0.00    +0.000 HD
ATOM     51  H   UNL     1      -9.152 -10.532  14.539  0.00  0.00    +0.000 HD
ATOM     52  H   UNL     1      -9.195  -8.714  16.227  0.00  0.00    +0.000 HD
ENDBRANCH  32  37
ENDBRANCH  27  28
ENDBRANCH   1  27
TORSDOF 7
ENDMDL
MODEL 9
REMARK VINA RESULT:   -11.082      2.280      8.775
REMARK INTER + INTRA:         -16.108
REMARK INTER:                 -14.641
REMARK INTRA:                  -1.468
REMARK UNBOUND:                -0.816
REMARK  Name = 
REMARK  7 active torsions:
REMARK  status: ('A' for Active; 'I' for Inactive)
REMARK    1  A    between atoms: N_1  and  C_2
REMARK    2  A    between atoms: C_2  and  C_3
REMARK    3  A    between atoms: C_2  and  C_21
REMARK    4  A    between atoms: C_3  and  O_4
REMARK    5  A    between atoms: O_4  and  C_5
REMARK    6  A    between atoms: C_9  and  C_10
REMARK    7  A    between atoms: C_21  and  C_22
REMARK                            x       y       z     vdW  Elec       q    Type
REMARK                         _______ _______ _______ _____ _____    ______ ____
ROOT
ATOM      1  C   UNL     1     -10.580  -2.726  19.525  0.00  0.00    +0.000 C 
ATOM      2  H   UNL     1     -10.829  -3.689  19.992  0.00  0.00    +0.000 HD
ATOM      3  H   UNL     1     -11.491  -2.126  19.422  0.00  0.00    +0.000 HD
ENDROOT
BRANCH   1   4
ATOM      4  C   UNL     1      -9.595  -1.961  20.430  0.00  0.00    +0.000 C 
ATOM      5  H   UNL     1      -8.748  -1.644  19.806  0.00  0.00    +0.000 HD
BRANCH   4   6
ATOM      6  N   UNL     1     -10.231  -0.733  20.944  0.00  0.00    +0.000 NA
ATOM      7  H   UNL     1     -10.471  -0.875  21.930  0.00  0.00    +0.000 HD
ATOM      8  H   UNL     1     -11.125  -0.609  20.468  0.00  0.00    +0.000 HD
ENDBRANCH   4   6
BRANCH   4   9
ATOM      9  C   UNL     1      -9.070  -2.888  21.551  0.00  0.00    +0.000 C 
ATOM     10  H   UNL     1      -9.568  -3.864  21.478  0.00  0.00    +0.000 HD
ATOM     11  H   UNL     1      -9.344  -2.480  22.531  0.00  0.00    +0.000 HD
BRANCH   9  12
ATOM     12  C   UNL     1      -7.588  -3.106  21.499  0.00  0.00    +0.000 A 
ATOM     13  C   UNL     1      -6.624  -2.381  22.172  0.00  0.00    +0.000 A 
ATOM     14  N   UNL     1      -5.403  -2.935  21.899  0.00  0.00    +0.000 N 
ATOM     15  C   UNL     1      -5.545  -4.001  21.043  0.00  0.00    +0.000 A 
ATOM     16  C   UNL     1      -4.580  -4.860  20.503  0.00  0.00    +0.000 A 
ATOM     17  C   UNL     1      -5.020  -5.871  19.644  0.00  0.00    +0.000 A 
ATOM     18  C   UNL     1      -6.371  -6.016  19.338  0.00  0.00    +0.000 A 
ATOM     19  C   UNL     1      -7.322  -5.154  19.892  0.00  0.00    +0.000 A 
ATOM     20  C   UNL     1      -6.905  -4.125  20.763  0.00  0.00    +0.000 A 
ATOM     21  H   UNL     1      -6.705  -1.533  22.839  0.00  0.00    +0.000 HD
ATOM     22  H   UNL     1      -4.521  -2.617  22.275  0.00  0.00    +0.000 HD
ATOM     23  H   UNL     1      -3.527  -4.751  20.739  0.00  0.00    +0.000 HD
ATOM     24  H   UNL     1      -4.295  -6.553  19.207  0.00  0.00    +0.000 HD
ATOM     25  H   UNL     1      -6.692  -6.807  18.665  0.00  0.00    +0.000 HD
ATOM     26  H   UNL     1      -8.373  -5.279  19.647  0.00  0.00    +0.000 HD
ENDBRANCH   9  12
ENDBRANCH   4   9
ENDBRANCH   1   4
BRANCH   1  27
ATOM     27  O   UNL     1      -9.996  -2.945  18.233  0.00  0.00    +0.000 OA
BRANCH  27  28
ATOM     28  C   UNL     1     -10.320  -4.115  17.610  0.00  0.00    +0.000 A 
ATOM     29  C   UNL     1     -11.146  -4.028  16.500  0.00  0.00    +0.000 A 
ATOM     30  N   UNL     1     -11.558  -5.092  15.773  0.00  0.00    +0.000 NA
ATOM     31  C   UNL     1     -11.109  -6.308  16.172  0.00  0.00    +0.000 A 
ATOM     32  C   UNL     1     -10.276  -6.534  17.270  0.00  0.00    +0.000 A 
ATOM     33  C   UNL     1      -9.900  -5.388  17.992  0.00  0.00    +0.000 A 
ATOM     34  H   UNL     1     -11.513  -3.065  16.154  0.00  0.00    +0.000 HD
ATOM     35  H   UNL     1     -11.455  -7.125  15.545  0.00  0.00    +0.000 HD
ATOM     36  H   UNL     1      -9.282  -5.511  18.874  0.00  0.00    +0.000 HD
BRANCH  32  37
ATOM     37  C   UNL     1      -9.817  -7.880  17.678  0.00  0.00    +0.000 A 
ATOM     38  C   UNL     1      -9.363  -8.145  18.981  0.00  0.00    +0.000 A 
ATOM     39  C   UNL     1      -8.866  -9.406  19.336  0.00  0.00    +0.000 A 
ATOM     40  C   UNL     1      -8.791 -10.437  18.388  0.00  0.00    +0.000 A 
ATOM     41  C   UNL     1      -8.263 -11.700  18.667  0.00  0.00    +0.000 A 
ATOM     42  N   UNL     1      -8.162 -12.707  17.768  0.00  0.00    +0.000 NA
ATOM     43  C   UNL     1      -8.619 -12.452  16.526  0.00  0.00    +0.000 A 
ATOM     44  C   UNL     1      -9.171 -11.241  16.141  0.00  0.00    +0.000 A 
ATOM     45  C   UNL     1      -9.256 -10.209  17.082  0.00  0.00    +0.000 A 
ATOM     46  C   UNL     1      -9.778  -8.946  16.754  0.00  0.00    +0.000 A 
ATOM     47  H   UNL     1      -9.361  -7.365  19.740  0.00  0.00    +0.000 HD
ATOM     48  H   UNL     1      -8.518  -9.569  20.354  0.00  0.00    +0.000 HD
ATOM     49  H   UNL     1      -7.882 -11.942  19.656  0.00  0.00    +0.000 HD
ATOM     50  H   UNL     1      -8.524 -13.273  15.819  0.00  0.00    +0.000 HD
ATOM     51  H   UNL     1      -9.514 -11.108  15.120  0.00  0.00    +0.000 HD
ATOM     52  H   UNL     1     -10.156  -8.794  15.743  0.00  0.00    +0.000 HD
ENDBRANCH  32  37
ENDBRANCH  27  28
ENDBRANCH   1  27
TORSDOF 7
ENDMDL
