MODEL 1
REMARK VINA RESULT:   -10.187      0.000      0.000
REMARK INTER + INTRA:         -11.326
REMARK INTER:                 -11.081
REMARK INTRA:                  -0.245
REMARK UNBOUND:                -0.245
REMARK  Name = 
REMARK  2 active torsions:
REMARK  status: ('A' for Active; 'I' for Inactive)
REMARK    1  A    between atoms: C_6  and  C_7
REMARK    2  A    between atoms: C_15  and  O_16
REMARK                            x       y       z     vdW  Elec       q    Type
REMARK                         _______ _______ _______ _____ _____    ______ ____
ROOT
ATOM      1  C   UNL     1      -9.369  -9.429  16.314  0.00  0.00    +0.000 A 
ATOM      2  C   UNL     1      -9.574  -9.748  14.982  0.00  0.00    +0.000 A 
ATOM      3  N   UNL     1      -9.331 -11.082  14.812  0.00  0.00    +0.000 N 
ATOM      4  C   UNL     1      -8.977 -11.660  16.011  0.00  0.00    +0.000 A 
ATOM      5  C   UNL     1      -8.639 -12.987  16.310  0.00  0.00    +0.000 A 
ATOM      6 BR   UNL     1      -8.591 -14.317  14.969  0.00  0.00    +0.000 Br
ATOM      7  C   UNL     1      -8.329 -13.319  17.630  0.00  0.00    +0.000 A 
ATOM      8  C   UNL     1      -8.382 -12.355  18.632  0.00  0.00    +0.000 A 
ATOM      9  C   UNL     1      -8.734 -11.036  18.324  0.00  0.00    +0.000 A 
ATOM     10  C   UNL     1      -9.018 -10.654  16.987  0.00  0.00    +0.000 A 
ATOM     11  H   UNL     1      -9.867  -9.130  14.143  0.00  0.00    +0.000 HD
ATOM     12  H   UNL     1      -9.398 -11.582  13.936  0.00  0.00    +0.000 HD
ATOM     13  H   UNL     1      -8.056 -14.339  17.889  0.00  0.00    +0.000 HD
ATOM     14  H   UNL     1      -8.147 -12.645  19.651  0.00  0.00    +0.000 HD
ENDROOT
BRANCH   1  20
ATOM     15  N   UNL     1     -12.085  -5.627  16.990  0.00  0.00    +0.000 N 
ATOM     16  C   UNL     1     -10.859  -6.246  17.140  0.00  0.00    +0.000 A 
ATOM     17  N   UNL     1      -9.915  -5.560  17.786  0.00  0.00    +0.000 NA
ATOM     18  C   UNL     1      -8.716  -6.155  17.891  0.00  0.00    +0.000 A 
ATOM     19  C   UNL     1      -8.448  -7.402  17.388  0.00  0.00    +0.000 A 
ATOM     20  C   UNL     1      -9.510  -8.062  16.814  0.00  0.00    +0.000 A 
ATOM     21  N   UNL     1     -10.724  -7.487  16.666  0.00  0.00    +0.000 NA
ATOM     22  H   UNL     1     -12.195  -4.933  17.716  0.00  0.00    +0.000 HD
ATOM     23  H   UNL     1     -12.807  -6.326  16.897  0.00  0.00    +0.000 HD
ATOM     24  H   UNL     1      -7.951  -5.584  18.408  0.00  0.00    +0.000 HD
ATOM     25  H   UNL     1      -7.459  -7.828  17.457  0.00  0.00    +0.000 HD
ENDBRANCH   1  20
BRANCH   9  26
ATOM     26  O   UNL     1      -8.809 -10.122  19.349  0.00  0.00    +0.000 OA
ATOM     27  H   UNL     1      -9.674  -9.686  19.322  0.00  0.00    +0.000 HD
ENDBRANCH   9  26
TORSDOF 2
ENDMDL
MODEL 2
REMARK VINA RESULT:   -10.155      2.015      2.572
REMARK INTER + INTRA:         -11.291
REMARK INTER:                 -10.870
REMARK INTRA:                  -0.421
REMARK UNBOUND:                -0.245
REMARK  Name = 
REMARK  2 active torsions:
REMARK  status: ('A' for Active; 'I' for Inactive)
REMARK    1  A    between atoms: C_6  and  C_7
REMARK    2  A    between atoms: C_15  and  O_16
REMARK                            x       y       z     vdW  Elec       q    Type
REMARK                         _______ _______ _______ _____ _____    ______ ____
ROOT
ATOM      1  C   UNL     1      -9.291  -8.720  17.979  0.00  0.00    +0.000 A 
ATOM      2  C   UNL     1      -9.078  -9.167  19.272  0.00  0.00    +0.000 A 
ATOM      3  N   UNL     1      -8.830 -10.509  19.233  0.00  0.00    +0.000 N 
ATOM      4  C   UNL     1      -8.863 -10.964  17.934  0.00  0.00    +0.000 A 
ATOM      5  C   UNL     1      -8.672 -12.255  17.423  0.00  0.00    +0.000 A 
ATOM      6 BR   UNL     1      -8.326 -13.724  18.561  0.00  0.00    +0.000 Br
ATOM      7  C   UNL     1      -8.744 -12.448  16.043  0.00  0.00    +0.000 A 
ATOM      8  C   UNL     1      -8.976 -11.373  15.191  0.00  0.00    +0.000 A 
ATOM      9  C   UNL     1      -9.152 -10.085  15.711  0.00  0.00    +0.000 A 
ATOM     10  C   UNL     1      -9.123  -9.859  17.111  0.00  0.00    +0.000 A 
ATOM     11  H   UNL     1      -9.091  -8.635  20.215  0.00  0.00    +0.000 HD
ATOM     12  H   UNL     1      -8.647 -11.094  20.037  0.00  0.00    +0.000 HD
ATOM     13  H   UNL     1      -8.608 -13.440  15.620  0.00  0.00    +0.000 HD
ATOM     14  H   UNL     1      -9.017 -11.551  14.120  0.00  0.00    +0.000 HD
ENDROOT
BRANCH   1  20
ATOM     15  N   UNL     1     -11.741  -5.595  15.425  0.00  0.00    +0.000 N 
ATOM     16  C   UNL     1     -10.838  -5.844  16.440  0.00  0.00    +0.000 A 
ATOM     17  N   UNL     1     -10.382  -4.785  17.111  0.00  0.00    +0.000 NA
ATOM     18  C   UNL     1      -9.475  -5.034  18.068  0.00  0.00    +0.000 A 
ATOM     19  C   UNL     1      -9.031  -6.294  18.375  0.00  0.00    +0.000 A 
ATOM     20  C   UNL     1      -9.623  -7.327  17.684  0.00  0.00    +0.000 A 
ATOM     21  N   UNL     1     -10.520  -7.115  16.696  0.00  0.00    +0.000 NA
ATOM     22  H   UNL     1     -12.204  -4.715  15.604  0.00  0.00    +0.000 HD
ATOM     23  H   UNL     1     -12.321  -6.409  15.283  0.00  0.00    +0.000 HD
ATOM     24  H   UNL     1      -9.101  -4.165  18.601  0.00  0.00    +0.000 HD
ATOM     25  H   UNL     1      -8.269  -6.449  19.124  0.00  0.00    +0.000 HD
ENDBRANCH   1  20
BRANCH   9  26
ATOM     26  O   UNL     1      -9.344  -9.045  14.832  0.00  0.00    +0.000 OA
ATOM     27  H   UNL     1      -8.902  -8.254  15.178  0.00  0.00    +0.000 HD
ENDBRANCH   9  26
TORSDOF 2
ENDMDL
MODEL 3
REMARK VINA RESULT:   -10.042      0.870      1.579
REMARK INTER + INTRA:         -11.168
REMARK INTER:                 -10.718
REMARK INTRA:                  -0.450
REMARK UNBOUND:                -0.245
REMARK  Name = 
REMARK  2 active torsions:
REMARK  status: ('A' for Active; 'I' for Inactive)
REMARK    1  A    between atoms: C_6  and  C_7
REMARK    2  A    between atoms: C_15  and  O_16
REMARK                            x       y       z     vdW  Elec       q    Type
REMARK                         _______ _______ _______ _____ _____    ______ ____
ROOT
ATOM      1  C   UNL     1      -9.404  -9.465  16.279  0.00  0.00    +0.000 A 
ATOM      2  C   UNL     1      -9.622  -9.796  14.952  0.00  0.00    +0.000 A 
ATOM      3  N   UNL     1      -9.371 -11.128  14.789  0.00  0.00    +0.000 N 
ATOM      4  C   UNL     1      -9.000 -11.696  15.987  0.00  0.00    +0.000 A 
ATOM      5  C   UNL     1      -8.649 -13.018  16.292  0.00  0.00    +0.000 A 
ATOM      6 BR   UNL     1      -8.607 -14.357  14.960  0.00  0.00    +0.000 Br
ATOM      7  C   UNL     1      -8.323 -13.339  17.611  0.00  0.00    +0.000 A 
ATOM      8  C   UNL     1      -8.372 -12.368  18.606  0.00  0.00    +0.000 A 
ATOM      9  C   UNL     1      -8.736 -11.054  18.293  0.00  0.00    +0.000 A 
ATOM     10  C   UNL     1      -9.037 -10.683  16.957  0.00  0.00    +0.000 A 
ATOM     11  H   UNL     1      -9.928  -9.185  14.112  0.00  0.00    +0.000 HD
ATOM     12  H   UNL     1      -9.444 -11.635  13.917  0.00  0.00    +0.000 HD
ATOM     13  H   UNL     1      -8.041 -14.355  17.874  0.00  0.00    +0.000 HD
ATOM     14  H   UNL     1      -8.124 -12.649  19.625  0.00  0.00    +0.000 HD
ENDROOT
BRANCH   1  20
ATOM     15  N   UNL     1      -7.517  -5.723  18.452  0.00  0.00    +0.000 N 
ATOM     16  C   UNL     1      -8.598  -6.298  17.812  0.00  0.00    +0.000 A 
ATOM     17  N   UNL     1      -9.676  -5.530  17.645  0.00  0.00    +0.000 NA
ATOM     18  C   UNL     1     -10.734  -6.111  17.058  0.00  0.00    +0.000 A 
ATOM     19  C   UNL     1     -10.736  -7.413  16.630  0.00  0.00    +0.000 A 
ATOM     20  C   UNL     1      -9.550  -8.097  16.771  0.00  0.00    +0.000 A 
ATOM     21  N   UNL     1      -8.471  -7.555  17.380  0.00  0.00    +0.000 NA
ATOM     22  H   UNL     1      -7.565  -4.719  18.342  0.00  0.00    +0.000 HD
ATOM     23  H   UNL     1      -6.668  -6.185  18.162  0.00  0.00    +0.000 HD
ATOM     24  H   UNL     1     -11.609  -5.481  16.937  0.00  0.00    +0.000 HD
ATOM     25  H   UNL     1     -11.621  -7.856  16.200  0.00  0.00    +0.000 HD
ENDBRANCH   1  20
BRANCH   9  26
ATOM     26  O   UNL     1      -8.807 -10.133  19.313  0.00  0.00    +0.000 OA
ATOM     27  H   UNL     1      -9.132 -10.572  20.114  0.00  0.00    +0.000 HD
ENDBRANCH   9  26
TORSDOF 2
ENDMDL
MODEL 4
REMARK VINA RESULT:    -9.525      3.014      5.730
REMARK INTER + INTRA:         -10.605
REMARK INTER:                 -10.301
REMARK INTRA:                  -0.304
REMARK UNBOUND:                -0.245
REMARK  Name = 
REMARK  2 active torsions:
REMARK  status: ('A' for Active; 'I' for Inactive)
REMARK    1  A    between atoms: C_6  and  C_7
REMARK    2  A    between atoms: C_15  and  O_16
REMARK                            x       y       z     vdW  Elec       q    Type
REMARK                         _______ _______ _______ _____ _____    ______ ____
ROOT
ATOM      1  C   UNL     1      -9.463 -10.416  16.506  0.00  0.00    +0.000 A 
ATOM      2  C   UNL     1     -10.004  -9.750  15.419  0.00  0.00    +0.000 A 
ATOM      3  N   UNL     1     -10.293  -8.468  15.793  0.00  0.00    +0.000 N 
ATOM      4  C   UNL     1      -9.943  -8.264  17.109  0.00  0.00    +0.000 A 
ATOM      5  C   UNL     1     -10.059  -7.119  17.908  0.00  0.00    +0.000 A 
ATOM      6 BR   UNL     1     -10.813  -5.522  17.237  0.00  0.00    +0.000 Br
ATOM      7  C   UNL     1      -9.608  -7.173  19.228  0.00  0.00    +0.000 A 
ATOM      8  C   UNL     1      -9.031  -8.335  19.730  0.00  0.00    +0.000 A 
ATOM      9  C   UNL     1      -8.907  -9.469  18.919  0.00  0.00    +0.000 A 
ATOM     10  C   UNL     1      -9.389  -9.462  17.584  0.00  0.00    +0.000 A 
ATOM     11  H   UNL     1     -10.212 -10.091  14.412  0.00  0.00    +0.000 HD
ATOM     12  H   UNL     1     -10.704  -7.763  15.197  0.00  0.00    +0.000 HD
ATOM     13  H   UNL     1      -9.693  -6.302  19.872  0.00  0.00    +0.000 HD
ATOM     14  H   UNL     1      -8.679  -8.345  20.757  0.00  0.00    +0.000 HD
ENDROOT
BRANCH   1  20
ATOM     15  N   UNL     1      -8.735 -14.518  18.726  0.00  0.00    +0.000 N 
ATOM     16  C   UNL     1      -8.756 -13.800  17.546  0.00  0.00    +0.000 A 
ATOM     17  N   UNL     1      -8.481 -14.473  16.428  0.00  0.00    +0.000 NA
ATOM     18  C   UNL     1      -8.466 -13.756  15.293  0.00  0.00    +0.000 A 
ATOM     19  C   UNL     1      -8.728 -12.412  15.247  0.00  0.00    +0.000 A 
ATOM     20  C   UNL     1      -9.083 -11.826  16.441  0.00  0.00    +0.000 A 
ATOM     21  N   UNL     1      -9.085 -12.507  17.608  0.00  0.00    +0.000 NA
ATOM     22  H   UNL     1      -8.900 -15.494  18.520  0.00  0.00    +0.000 HD
ATOM     23  H   UNL     1      -9.338 -14.074  19.402  0.00  0.00    +0.000 HD
ATOM     24  H   UNL     1      -8.229 -14.311  14.390  0.00  0.00    +0.000 HD
ATOM     25  H   UNL     1      -8.664 -11.864  14.320  0.00  0.00    +0.000 HD
ENDBRANCH   1  20
BRANCH   9  26
ATOM     26  O   UNL     1      -8.299 -10.586  19.442  0.00  0.00    +0.000 OA
ATOM     27  H   UNL     1      -7.985 -11.146  18.715  0.00  0.00    +0.000 HD
ENDBRANCH   9  26
TORSDOF 2
ENDMDL
MODEL 5
REMARK VINA RESULT:    -9.359      2.116      2.963
REMARK INTER + INTRA:         -10.425
REMARK INTER:                 -10.266
REMARK INTRA:                  -0.159
REMARK UNBOUND:                -0.245
REMARK  Name = 
REMARK  2 active torsions:
REMARK  status: ('A' for Active; 'I' for Inactive)
REMARK    1  A    between atoms: C_6  and  C_7
REMARK    2  A    between atoms: C_15  and  O_16
REMARK                            x       y       z     vdW  Elec       q    Type
REMARK                         _______ _______ _______ _____ _____    ______ ____
ROOT
ATOM      1  C   UNL     1      -9.465  -8.614  18.071  0.00  0.00    +0.000 A 
ATOM      2  C   UNL     1      -9.207  -9.102  19.341  0.00  0.00    +0.000 A 
ATOM      3  N   UNL     1      -8.860 -10.419  19.238  0.00  0.00    +0.000 N 
ATOM      4  C   UNL     1      -8.872 -10.815  17.919  0.00  0.00    +0.000 A 
ATOM      5  C   UNL     1      -8.591 -12.064  17.347  0.00  0.00    +0.000 A 
ATOM      6 BR   UNL     1      -8.126 -13.553  18.413  0.00  0.00    +0.000 Br
ATOM      7  C   UNL     1      -8.662 -12.198  15.960  0.00  0.00    +0.000 A 
ATOM      8  C   UNL     1      -8.982 -11.105  15.160  0.00  0.00    +0.000 A 
ATOM      9  C   UNL     1      -9.248  -9.859  15.741  0.00  0.00    +0.000 A 
ATOM     10  C   UNL     1      -9.221  -9.696  17.150  0.00  0.00    +0.000 A 
ATOM     11  H   UNL     1      -9.250  -8.617  20.307  0.00  0.00    +0.000 HD
ATOM     12  H   UNL     1      -8.627 -11.025  20.013  0.00  0.00    +0.000 HD
ATOM     13  H   UNL     1      -8.457 -13.156  15.491  0.00  0.00    +0.000 HD
ATOM     14  H   UNL     1      -9.019 -11.236  14.083  0.00  0.00    +0.000 HD
ENDROOT
BRANCH   1  20
ATOM     15  N   UNL     1      -8.795  -3.991  18.751  0.00  0.00    +0.000 N 
ATOM     16  C   UNL     1      -9.537  -5.006  18.180  0.00  0.00    +0.000 A 
ATOM     17  N   UNL     1     -10.566  -4.641  17.414  0.00  0.00    +0.000 NA
ATOM     18  C   UNL     1     -11.304  -5.636  16.896  0.00  0.00    +0.000 A 
ATOM     19  C   UNL     1     -11.034  -6.962  17.110  0.00  0.00    +0.000 A 
ATOM     20  C   UNL     1      -9.902  -7.237  17.844  0.00  0.00    +0.000 A 
ATOM     21  N   UNL     1      -9.149  -6.264  18.402  0.00  0.00    +0.000 NA
ATOM     22  H   UNL     1      -8.902  -3.152  18.197  0.00  0.00    +0.000 HD
ATOM     23  H   UNL     1      -7.857  -4.317  18.929  0.00  0.00    +0.000 HD
ATOM     24  H   UNL     1     -12.146  -5.328  16.285  0.00  0.00    +0.000 HD
ATOM     25  H   UNL     1     -11.676  -7.732  16.710  0.00  0.00    +0.000 HD
ENDBRANCH   1  20
BRANCH   9  26
ATOM     26  O   UNL     1      -9.524  -8.796  14.913  0.00  0.00    +0.000 OA
ATOM     27  H   UNL     1     -10.416  -8.903  14.548  0.00  0.00    +0.000 HD
ENDBRANCH   9  26
TORSDOF 2
ENDMDL
MODEL 6
REMARK VINA RESULT:    -8.996      1.467      2.132
REMARK INTER + INTRA:         -10.030
REMARK INTER:                  -9.573
REMARK INTRA:                  -0.458
REMARK UNBOUND:                -0.245
REMARK  Name = 
REMARK  2 active torsions:
REMARK  status: ('A' for Active; 'I' for Inactive)
REMARK    1  A    between atoms: C_6  and  C_7
REMARK    2  A    between atoms: C_15  and  O_16
REMARK                            x       y       z     vdW  Elec       q    Type
REMARK                         _______ _______ _______ _____ _____    ______ ____
ROOT
ATOM      1  C   UNL     1      -9.305  -8.202  16.953  0.00  0.00    +0.000 A 
ATOM      2  C   UNL     1      -9.506  -8.372  15.593  0.00  0.00    +0.000 A 
ATOM      3  N   UNL     1      -9.302  -9.687  15.284  0.00  0.00    +0.000 N 
ATOM      4  C   UNL     1      -8.980 -10.400  16.417  0.00  0.00    +0.000 A 
ATOM      5  C   UNL     1      -8.686 -11.761  16.576  0.00  0.00    +0.000 A 
ATOM      6 BR   UNL     1      -8.665 -12.942  15.101  0.00  0.00    +0.000 Br
ATOM      7  C   UNL     1      -8.401 -12.241  17.855  0.00  0.00    +0.000 A 
ATOM      8  C   UNL     1      -8.435 -11.388  18.953  0.00  0.00    +0.000 A 
ATOM      9  C   UNL     1      -8.742 -10.033  18.785  0.00  0.00    +0.000 A 
ATOM     10  C   UNL     1      -8.999  -9.503  17.495  0.00  0.00    +0.000 A 
ATOM     11  H   UNL     1      -9.770  -7.659  14.823  0.00  0.00    +0.000 HD
ATOM     12  H   UNL     1      -9.375 -10.089  14.359  0.00  0.00    +0.000 HD
ATOM     13  H   UNL     1      -8.163 -13.291  18.005  0.00  0.00    +0.000 HD
ATOM     14  H   UNL     1      -8.219 -11.792  19.938  0.00  0.00    +0.000 HD
ENDROOT
BRANCH   1  20
ATOM     15  N   UNL     1      -7.530  -5.005  19.939  0.00  0.00    +0.000 N 
ATOM     16  C   UNL     1      -8.512  -5.362  19.035  0.00  0.00    +0.000 A 
ATOM     17  N   UNL     1      -9.452  -4.450  18.777  0.00  0.00    +0.000 NA
ATOM     18  C   UNL     1     -10.422  -4.822  17.928  0.00  0.00    +0.000 A 
ATOM     19  C   UNL     1     -10.468  -6.054  17.330  0.00  0.00    +0.000 A 
ATOM     20  C   UNL     1      -9.409  -6.893  17.594  0.00  0.00    +0.000 A 
ATOM     21  N   UNL     1      -8.427  -6.565  18.463  0.00  0.00    +0.000 NA
ATOM     22  H   UNL     1      -7.455  -3.998  19.963  0.00  0.00    +0.000 HD
ATOM     23  H   UNL     1      -6.691  -5.533  19.751  0.00  0.00    +0.000 HD
ATOM     24  H   UNL     1     -11.188  -4.077  17.734  0.00  0.00    +0.000 HD
ATOM     25  H   UNL     1     -11.289  -6.329  16.685  0.00  0.00    +0.000 HD
ENDBRANCH   1  20
BRANCH   9  26
ATOM     26  O   UNL     1      -8.799  -9.231  19.901  0.00  0.00    +0.000 OA
ATOM     27  H   UNL     1      -8.099  -8.563  19.847  0.00  0.00    +0.000 HD
ENDBRANCH   9  26
TORSDOF 2
ENDMDL
MODEL 7
REMARK VINA RESULT:    -8.732      2.174      2.863
REMARK INTER + INTRA:          -9.744
REMARK INTER:                  -9.486
REMARK INTRA:                  -0.258
REMARK UNBOUND:                -0.245
REMARK  Name = 
REMARK  2 active torsions:
REMARK  status: ('A' for Active; 'I' for Inactive)
REMARK    1  A    between atoms: C_6  and  C_7
REMARK    2  A    between atoms: C_15  and  O_16
REMARK                            x       y       z     vdW  Elec       q    Type
REMARK                         _______ _______ _______ _____ _____    ______ ____
ROOT
ATOM      1  C   UNL     1      -9.825  -8.277  16.510  0.00  0.00    +0.000 A 
ATOM      2  C   UNL     1      -9.968  -9.354  15.650  0.00  0.00    +0.000 A 
ATOM      3  N   UNL     1      -9.535 -10.481  16.288  0.00  0.00    +0.000 N 
ATOM      4  C   UNL     1      -9.116 -10.177  17.564  0.00  0.00    +0.000 A 
ATOM      5  C   UNL     1      -8.595 -11.006  18.567  0.00  0.00    +0.000 A 
ATOM      6 BR   UNL     1      -8.342 -12.856  18.281  0.00  0.00    +0.000 Br
ATOM      7  C   UNL     1      -8.256 -10.440  19.797  0.00  0.00    +0.000 A 
ATOM      8  C   UNL     1      -8.457  -9.083  20.029  0.00  0.00    +0.000 A 
ATOM      9  C   UNL     1      -8.990  -8.266  19.025  0.00  0.00    +0.000 A 
ATOM     10  C   UNL     1      -9.310  -8.800  17.750  0.00  0.00    +0.000 A 
ATOM     11  H   UNL     1     -10.336  -9.403  14.633  0.00  0.00    +0.000 HD
ATOM     12  H   UNL     1      -9.520 -11.410  15.890  0.00  0.00    +0.000 HD
ATOM     13  H   UNL     1      -7.843 -11.058  20.590  0.00  0.00    +0.000 HD
ATOM     14  H   UNL     1      -8.195  -8.673  21.000  0.00  0.00    +0.000 HD
ENDROOT
BRANCH   1  20
ATOM     15  N   UNL     1      -8.869  -4.474  13.882  0.00  0.00    +0.000 N 
ATOM     16  C   UNL     1      -9.683  -5.097  14.808  0.00  0.00    +0.000 A 
ATOM     17  N   UNL     1     -10.754  -4.417  15.220  0.00  0.00    +0.000 NA
ATOM     18  C   UNL     1     -11.515  -5.016  16.150  0.00  0.00    +0.000 A 
ATOM     19  C   UNL     1     -11.245  -6.259  16.657  0.00  0.00    +0.000 A 
ATOM     20  C   UNL     1     -10.166  -6.914  16.108  0.00  0.00    +0.000 A 
ATOM     21  N   UNL     1      -9.361  -6.335  15.189  0.00  0.00    +0.000 NA
ATOM     22  H   UNL     1      -9.410  -3.784  13.379  0.00  0.00    +0.000 HD
ATOM     23  H   UNL     1      -8.379  -5.171  13.340  0.00  0.00    +0.000 HD
ATOM     24  H   UNL     1     -12.378  -4.450  16.487  0.00  0.00    +0.000 HD
ATOM     25  H   UNL     1     -11.859  -6.689  17.435  0.00  0.00    +0.000 HD
ENDBRANCH   1  20
BRANCH   9  26
ATOM     26  O   UNL     1      -9.207  -6.938  19.308  0.00  0.00    +0.000 OA
ATOM     27  H   UNL     1     -10.034  -6.851  19.806  0.00  0.00    +0.000 HD
ENDBRANCH   9  26
TORSDOF 2
ENDMDL
MODEL 8
REMARK VINA RESULT:    -8.405      3.482      6.295
REMARK INTER + INTRA:          -9.387
REMARK INTER:                  -9.109
REMARK INTRA:                  -0.278
REMARK UNBOUND:                -0.245
REMARK  Name = 
REMARK  2 active torsions:
REMARK  status: ('A' for Active; 'I' for Inactive)
REMARK    1  A    between atoms: C_6  and  C_7
REMARK    2  A    between atoms: C_15  and  O_16
REMARK                            x       y       z     vdW  Elec       q    Type
REMARK                         _______ _______ _______ _____ _____    ______ ____
ROOT
ATOM      1  C   UNL     1      -9.157  -8.125  18.354  0.00  0.00    +0.000 A 
ATOM      2  C   UNL     1      -8.555  -7.568  19.470  0.00  0.00    +0.000 A 
ATOM      3  N   UNL     1      -8.871  -6.240  19.518  0.00  0.00    +0.000 N 
ATOM      4  C   UNL     1      -9.683  -5.904  18.458  0.00  0.00    +0.000 A 
ATOM      5  C   UNL     1     -10.243  -4.669  18.104  0.00  0.00    +0.000 A 
ATOM      6 BR   UNL     1      -9.915  -3.111  19.123  0.00  0.00    +0.000 Br
ATOM      7  C   UNL     1     -11.055  -4.600  16.971  0.00  0.00    +0.000 A 
ATOM      8  C   UNL     1     -11.323  -5.743  16.224  0.00  0.00    +0.000 A 
ATOM      9  C   UNL     1     -10.770  -6.974  16.594  0.00  0.00    +0.000 A 
ATOM     10  C   UNL     1      -9.909  -7.073  17.718  0.00  0.00    +0.000 A 
ATOM     11  H   UNL     1      -7.922  -8.012  20.228  0.00  0.00    +0.000 HD
ATOM     12  H   UNL     1      -8.558  -5.589  20.225  0.00  0.00    +0.000 HD
ATOM     13  H   UNL     1     -11.496  -3.653  16.670  0.00  0.00    +0.000 HD
ATOM     14  H   UNL     1     -11.968  -5.661  15.354  0.00  0.00    +0.000 HD
ENDROOT
BRANCH   1  20
ATOM     15  N   UNL     1      -9.162 -11.495  15.048  0.00  0.00    +0.000 N 
ATOM     16  C   UNL     1      -8.974 -11.135  16.368  0.00  0.00    +0.000 A 
ATOM     17  N   UNL     1      -8.586 -12.098  17.206  0.00  0.00    +0.000 NA
ATOM     18  C   UNL     1      -8.445 -11.745  18.493  0.00  0.00    +0.000 A 
ATOM     19  C   UNL     1      -8.664 -10.473  18.953  0.00  0.00    +0.000 A 
ATOM     20  C   UNL     1      -8.979  -9.532  17.998  0.00  0.00    +0.000 A 
ATOM     21  N   UNL     1      -9.155  -9.853  16.697  0.00  0.00    +0.000 NA
ATOM     22  H   UNL     1      -8.610 -12.319  14.850  0.00  0.00    +0.000 HD
ATOM     23  H   UNL     1      -9.029 -10.689  14.456  0.00  0.00    +0.000 HD
ATOM     24  H   UNL     1      -8.140 -12.538  19.168  0.00  0.00    +0.000 HD
ATOM     25  H   UNL     1      -8.580 -10.238  20.003  0.00  0.00    +0.000 HD
ENDBRANCH   1  20
BRANCH   9  26
ATOM     26  O   UNL     1     -11.088  -8.085  15.849  0.00  0.00    +0.000 OA
ATOM     27  H   UNL     1     -11.641  -7.816  15.100  0.00  0.00    +0.000 HD
ENDBRANCH   9  26
TORSDOF 2
ENDMDL
MODEL 9
REMARK VINA RESULT:    -8.287      3.237      6.133
REMARK INTER + INTRA:          -9.259
REMARK INTER:                  -9.149
REMARK INTRA:                  -0.109
REMARK UNBOUND:                -0.245
REMARK  Name = 
REMARK  2 active torsions:
REMARK  status: ('A' for Active; 'I' for Inactive)
REMARK    1  A    between atoms: C_6  and  C_7
REMARK    2  A    between atoms: C_15  and  O_16
REMARK                            x       y       z     vdW  Elec       q    Type
REMARK                         _______ _______ _______ _____ _____    ______ ____
ROOT
ATOM      1  C   UNL     1      -8.789 -10.457  18.148  0.00  0.00    +0.000 A 
ATOM      2  C   UNL     1      -8.599 -10.019  19.449  0.00  0.00    +0.000 A 
ATOM      3  N   UNL     1      -8.624  -8.653  19.455  0.00  0.00    +0.000 N 
ATOM      4  C   UNL     1      -8.839  -8.172  18.183  0.00  0.00    +0.000 A 
ATOM      5  C   UNL     1      -8.935  -6.853  17.719  0.00  0.00    +0.000 A 
ATOM      6 BR   UNL     1      -8.741  -5.382  18.888  0.00  0.00    +0.000 Br
ATOM      7  C   UNL     1      -9.175  -6.636  16.361  0.00  0.00    +0.000 A 
ATOM      8  C   UNL     1      -9.341  -7.709  15.493  0.00  0.00    +0.000 A 
ATOM      9  C   UNL     1      -9.257  -9.023  15.969  0.00  0.00    +0.000 A 
ATOM     10  C   UNL     1      -8.976  -9.281  17.336  0.00  0.00    +0.000 A 
ATOM     11  H   UNL     1      -8.441 -10.572  20.365  0.00  0.00    +0.000 HD
ATOM     12  H   UNL     1      -8.503  -8.069  20.272  0.00  0.00    +0.000 HD
ATOM     13  H   UNL     1      -9.246  -5.623  15.973  0.00  0.00    +0.000 HD
ATOM     14  H   UNL     1      -9.538  -7.510  14.444  0.00  0.00    +0.000 HD
ENDROOT
BRANCH   1  20
ATOM     15  N   UNL     1      -8.571 -13.805  14.828  0.00  0.00    +0.000 N 
ATOM     16  C   UNL     1      -8.650 -13.471  16.166  0.00  0.00    +0.000 A 
ATOM     17  N   UNL     1      -8.650 -14.479  17.039  0.00  0.00    +0.000 NA
ATOM     18  C   UNL     1      -8.768 -14.143  18.333  0.00  0.00    +0.000 A 
ATOM     19  C   UNL     1      -8.869 -12.848  18.769  0.00  0.00    +0.000 A 
ATOM     20  C   UNL     1      -8.775 -11.876  17.799  0.00  0.00    +0.000 A 
ATOM     21  N   UNL     1      -8.682 -12.174  16.484  0.00  0.00    +0.000 NA
ATOM     22  H   UNL     1      -8.138 -14.715  14.741  0.00  0.00    +0.000 HD
ATOM     23  H   UNL     1      -8.161 -13.041  14.313  0.00  0.00    +0.000 HD
ATOM     24  H   UNL     1      -8.778 -14.972  19.035  0.00  0.00    +0.000 HD
ATOM     25  H   UNL     1      -9.004 -12.622  19.816  0.00  0.00    +0.000 HD
ENDBRANCH   1  20
BRANCH   9  26
ATOM     26  O   UNL     1      -9.463 -10.055  15.084  0.00  0.00    +0.000 OA
ATOM     27  H   UNL     1     -10.282 -10.517  15.321  0.00  0.00    +0.000 HD
ENDBRANCH   9  26
TORSDOF 2
ENDMDL
