REMARK  Name = 
REMARK  4 active torsions:
REMARK  status: ('A' for Active; 'I' for Inactive)
REMARK    1  A    between atoms: C_1  and  N_2
REMARK    2  A    between atoms: C_12  and  C_13
REMARK    3  A    between atoms: C_13  and  C_14
REMARK    4  A    between atoms: C_14  and  N_15
REMARK                            x       y       z     vdW  Elec       q    Type
REMARK                         _______ _______ _______ _____ _____    ______ ____
ROOT
ATOM      1  N   UNL     1      -4.549  -4.054   1.750  0.00  0.00    +0.000 N 
ATOM      2  C   UNL     1      -5.147  -4.014   2.991  0.00  0.00    +0.000 A 
ATOM      3  C   UNL     1      -4.122  -3.857   3.887  0.00  0.00    +0.000 A 
ATOM      4  C   UNL     1      -3.229  -3.028   3.169  0.00  0.00    +0.000 A 
ATOM      5  C   UNL     1      -2.391  -1.971   3.553  0.00  0.00    +0.000 A 
ATOM      6  C   UNL     1      -1.782  -1.228   2.546  0.00  0.00    +0.000 A 
ATOM      7  C   UNL     1      -1.790  -1.700   1.223  0.00  0.00    +0.000 A 
ATOM      8  C   UNL     1      -1.143  -1.001   0.188  0.00  0.00    +0.000 A 
ATOM      9  N   UNL     1      -0.309   0.092   0.213  0.00  0.00    +0.000 N 
ATOM     10  C   UNL     1       0.532   0.061  -0.885  0.00  0.00    +0.000 A 
ATOM     11  C   UNL     1       1.771   0.719  -1.049  0.00  0.00    +0.000 A 
ATOM     12  C   UNL     1       2.468   0.397  -2.231  0.00  0.00    +0.000 A 
ATOM     13  C   UNL     1       1.934  -0.439  -3.206  0.00  0.00    +0.000 A 
ATOM     14  C   UNL     1       0.700  -1.048  -3.018  0.00  0.00    +0.000 A 
ATOM     15  C   UNL     1      -0.000  -0.838  -1.815  0.00  0.00    +0.000 A 
ATOM     16  C   UNL     1      -1.092  -1.392  -1.125  0.00  0.00    +0.000 A 
ATOM     17  C   UNL     1      -1.588  -2.677  -1.497  0.00  0.00    +0.000 A 
ATOM     18  C   UNL     1      -1.972  -3.461  -0.363  0.00  0.00    +0.000 A 
ATOM     19  C   UNL     1      -2.387  -2.930   0.870  0.00  0.00    +0.000 A 
ATOM     20  C   UNL     1      -3.320  -3.407   1.815  0.00  0.00    +0.000 A 
ATOM     21  C   UNL     1      -1.144  -4.654  -0.553  0.00  0.00    +0.000 C 
ATOM     22  O   UNL     1      -0.506  -5.351   0.229  0.00  0.00    +0.000 OA
ATOM     23  N   UNL     1      -0.923  -4.681  -1.922  0.00  0.00    +0.000 N 
ATOM     24  C   UNL     1      -1.221  -3.505  -2.582  0.00  0.00    +0.000 C 
ATOM     25  O   UNL     1      -1.148  -3.390  -3.803  0.00  0.00    +0.000 OA
ATOM     26  H   UNL     1      -6.208  -4.180   3.135  0.00  0.00    +0.000 HD
ATOM     27  H   UNL     1      -4.194  -4.002   4.954  0.00  0.00    +0.000 HD
ATOM     28  H   UNL     1      -2.379  -1.626   4.583  0.00  0.00    +0.000 HD
ATOM     29  H   UNL     1      -1.301  -0.293   2.812  0.00  0.00    +0.000 HD
ATOM     30  H   UNL     1      -0.114   0.620   1.049  0.00  0.00    +0.000 HD
ATOM     31  H   UNL     1       3.458   0.807  -2.407  0.00  0.00    +0.000 HD
ATOM     32  H   UNL     1       2.520  -0.668  -4.101  0.00  0.00    +0.000 HD
ATOM     33  H   UNL     1       0.339  -1.711  -3.789  0.00  0.00    +0.000 HD
ATOM     34  H   UNL     1      -0.188  -5.264  -2.302  0.00  0.00    +0.000 HD
ENDROOT
BRANCH   1  35
ATOM     35  C   UNL     1      -5.287  -4.512   0.598  0.00  0.00    +0.000 C 
ATOM     36  H   UNL     1      -4.743  -5.351   0.166  0.00  0.00    +0.000 HD
ATOM     37  H   UNL     1      -5.432  -3.692  -0.106  0.00  0.00    +0.000 HD
ATOM     38  H   UNL     1      -6.269  -4.868   0.937  0.00  0.00    +0.000 HD
ENDBRANCH   1  35
BRANCH  11  39
ATOM     39  C   UNL     1       2.320   1.650   0.010  0.00  0.00    +0.000 C 
ATOM     40  H   UNL     1       2.908   1.071   0.729  0.00  0.00    +0.000 HD
ATOM     41  H   UNL     1       1.470   2.078   0.556  0.00  0.00    +0.000 HD
BRANCH  39  42
ATOM     42  C   UNL     1       3.151   2.784  -0.592  0.00  0.00    +0.000 C 
ATOM     43  H   UNL     1       2.578   3.222  -1.417  0.00  0.00    +0.000 HD
ATOM     44  H   UNL     1       4.047   2.332  -1.034  0.00  0.00    +0.000 HD
BRANCH  42  45
ATOM     45  N   UNL     1       3.630   3.819   0.342  0.00  0.00    +0.000 NA
ATOM     46  C   UNL     1       2.546   4.545   1.036  0.00  0.00    +0.000 C 
ATOM     47  C   UNL     1       1.677   5.428   0.114  0.00  0.00    +0.000 C 
ATOM     48  N   UNL     1       2.463   6.394  -0.674  0.00  0.00    +0.000 NA
ATOM     49  C   UNL     1       3.571   5.710  -1.365  0.00  0.00    +0.000 C 
ATOM     50  C   UNL     1       4.421   4.814  -0.428  0.00  0.00    +0.000 C 
ATOM     51  H   UNL     1       3.009   5.189   1.797  0.00  0.00    +0.000 HD
ATOM     52  H   UNL     1       1.912   3.859   1.608  0.00  0.00    +0.000 HD
ATOM     53  H   UNL     1       0.962   5.987   0.729  0.00  0.00    +0.000 HD
ATOM     54  H   UNL     1       1.078   4.802  -0.559  0.00  0.00    +0.000 HD
ATOM     55  H   UNL     1       2.873   7.064  -0.025  0.00  0.00    +0.000 HD
ATOM     56  H   UNL     1       4.220   6.466  -1.818  0.00  0.00    +0.000 HD
ATOM     57  H   UNL     1       3.168   5.124  -2.199  0.00  0.00    +0.000 HD
ATOM     58  H   UNL     1       4.956   5.453   0.286  0.00  0.00    +0.000 HD
ATOM     59  H   UNL     1       5.200   4.305  -1.010  0.00  0.00    +0.000 HD
ENDBRANCH  42  45
ENDBRANCH  39  42
ENDBRANCH  11  39
TORSDOF 4
