MODEL 1
REMARK VINA RESULT:   -11.339      0.000      0.000
REMARK INTER + INTRA:         -14.956
REMARK INTER:                 -14.322
REMARK INTRA:                  -0.635
REMARK UNBOUND:                -0.635
REMARK  Name = 
REMARK  5 active torsions:
REMARK  status: ('A' for Active; 'I' for Inactive)
REMARK    1  A    between atoms: C_1  and  N_2
REMARK    2  A    between atoms: N_2  and  C_3
REMARK    3  A    between atoms: C_3  and  C_4
REMARK    4  A    between atoms: C_3  and  C_11
REMARK    5  A    between atoms: C_14  and  C_15
REMARK                            x       y       z     vdW  Elec       q    Type
REMARK                         _______ _______ _______ _____ _____    ______ ____
ROOT
ATOM      1  C   UNL     1      -9.218  -7.759  17.901  0.00  0.00    +0.000 A 
ATOM      2  C   UNL     1      -9.240  -7.726  19.301  0.00  0.00    +0.000 A 
ATOM      3  C   UNL     1      -8.325  -6.940  20.007  0.00  0.00    +0.000 A 
ATOM      4  C   UNL     1      -7.371  -6.143  19.350  0.00  0.00    +0.000 A 
ATOM      5  C   UNL     1      -7.328  -6.223  17.948  0.00  0.00    +0.000 A 
ATOM      6  C   UNL     1      -8.229  -7.021  17.234  0.00  0.00    +0.000 A 
ATOM      7  H   UNL     1      -9.981  -8.294  19.859  0.00  0.00    +0.000 HD
ATOM      8  H   UNL     1      -8.381  -6.947  21.096  0.00  0.00    +0.000 HD
ATOM      9  H   UNL     1      -6.602  -5.632  17.392  0.00  0.00    +0.000 HD
ATOM     10  H   UNL     1      -8.170  -7.039  16.149  0.00  0.00    +0.000 HD
ENDROOT
BRANCH   4  11
ATOM     11  C   UNL     1      -6.470  -5.242  20.083  0.00  0.00    +0.000 A 
ATOM     12  N   UNL     1      -5.121  -5.413  19.959  0.00  0.00    +0.000 NA
ATOM     13  C   UNL     1      -4.299  -4.572  20.627  0.00  0.00    +0.000 A 
ATOM     14  N   UNL     1      -4.634  -3.538  21.421  0.00  0.00    +0.000 NA
ATOM     15  C   UNL     1      -5.966  -3.405  21.493  0.00  0.00    +0.000 A 
ATOM     16  N   UNL     1      -6.655  -2.459  22.195  0.00  0.00    +0.000 N 
ATOM     17  C   UNL     1      -7.987  -2.676  21.986  0.00  0.00    +0.000 A 
ATOM     18  N   UNL     1      -8.195  -3.708  21.199  0.00  0.00    +0.000 NA
ATOM     19  C   UNL     1      -6.936  -4.183  20.880  0.00  0.00    +0.000 A 
ATOM     20  H   UNL     1      -3.235  -4.755  20.506  0.00  0.00    +0.000 HD
ATOM     21  H   UNL     1      -6.238  -1.734  22.759  0.00  0.00    +0.000 HD
ATOM     22  H   UNL     1      -8.756  -2.056  22.430  0.00  0.00    +0.000 HD
ENDBRANCH   4  11
BRANCH   1  23
ATOM     23  C   UNL     1     -10.279  -8.554  17.136  0.00  0.00    +0.000 C 
ATOM     24  H   UNL     1     -11.086  -8.836  17.828  0.00  0.00    +0.000 HD
BRANCH  23  25
ATOM     25  C   UNL     1      -9.718  -9.887  16.609  0.00  0.00    +0.000 A 
ATOM     26  C   UNL     1      -9.268 -10.915  17.460  0.00  0.00    +0.000 A 
ATOM     27  C   UNL     1      -8.800 -12.129  16.943  0.00  0.00    +0.000 A 
ATOM     28  C   UNL     1      -8.770 -12.332  15.568  0.00  0.00    +0.000 A 
ATOM     29 CL   UNL     1      -8.227 -13.838  14.936  0.00  0.00    +0.000 Cl
ATOM     30  C   UNL     1      -9.176 -11.323  14.702  0.00  0.00    +0.000 A 
ATOM     31  C   UNL     1      -9.631 -10.104  15.219  0.00  0.00    +0.000 A 
ATOM     32  H   UNL     1      -9.275 -10.787  18.539  0.00  0.00    +0.000 HD
ATOM     33  H   UNL     1      -8.465 -12.907  17.623  0.00  0.00    +0.000 HD
ATOM     34  H   UNL     1      -9.149 -11.475  13.626  0.00  0.00    +0.000 HD
ATOM     35  H   UNL     1      -9.936  -9.327  14.520  0.00  0.00    +0.000 HD
ENDBRANCH  23  25
BRANCH  23  36
ATOM     36  N   UNL     1     -10.901  -7.739  16.067  0.00  0.00    +0.000 NA
ATOM     37  H   UNL     1     -10.204  -7.583  15.344  0.00  0.00    +0.000 HD
BRANCH  36  38
ATOM     38  C   UNL     1     -11.384  -6.441  16.526  0.00  0.00    +0.000 C 
ATOM     39  H   UNL     1     -12.207  -6.121  15.879  0.00  0.00    +0.000 HD
ATOM     40  H   UNL     1     -10.613  -5.665  16.461  0.00  0.00    +0.000 HD
ATOM     41  H   UNL     1     -11.766  -6.484  17.551  0.00  0.00    +0.000 HD
ENDBRANCH  36  38
ENDBRANCH  23  36
ENDBRANCH   1  23
TORSDOF 5
ENDMDL
MODEL 2
REMARK VINA RESULT:   -10.283      3.686      5.185
REMARK INTER + INTRA:         -13.622
REMARK INTER:                 -12.824
REMARK INTRA:                  -0.799
REMARK UNBOUND:                -0.635
REMARK  Name = 
REMARK  5 active torsions:
REMARK  status: ('A' for Active; 'I' for Inactive)
REMARK    1  A    between atoms: C_1  and  N_2
REMARK    2  A    between atoms: N_2  and  C_3
REMARK    3  A    between atoms: C_3  and  C_4
REMARK    4  A    between atoms: C_3  and  C_11
REMARK    5  A    between atoms: C_14  and  C_15
REMARK                            x       y       z     vdW  Elec       q    Type
REMARK                         _______ _______ _______ _____ _____    ______ ____
ROOT
ATOM      1  C   UNL     1      -9.344  -8.223  17.497  0.00  0.00    +0.000 A 
ATOM      2  C   UNL     1      -8.520  -7.376  16.746  0.00  0.00    +0.000 A 
ATOM      3  C   UNL     1      -9.044  -6.232  16.137  0.00  0.00    +0.000 A 
ATOM      4  C   UNL     1     -10.398  -5.877  16.271  0.00  0.00    +0.000 A 
ATOM      5  C   UNL     1     -11.223  -6.761  16.985  0.00  0.00    +0.000 A 
ATOM      6  C   UNL     1     -10.710  -7.918  17.583  0.00  0.00    +0.000 A 
ATOM      7  H   UNL     1      -7.457  -7.583  16.641  0.00  0.00    +0.000 HD
ATOM      8  H   UNL     1      -8.364  -5.604  15.563  0.00  0.00    +0.000 HD
ATOM      9  H   UNL     1     -12.282  -6.536  17.110  0.00  0.00    +0.000 HD
ATOM     10  H   UNL     1     -11.382  -8.564  18.141  0.00  0.00    +0.000 HD
ENDROOT
BRANCH   4  11
ATOM     11  C   UNL     1     -10.935  -4.627  15.713  0.00  0.00    +0.000 A 
ATOM     12  N   UNL     1     -11.245  -4.576  14.384  0.00  0.00    +0.000 NA
ATOM     13  C   UNL     1     -11.750  -3.426  13.882  0.00  0.00    +0.000 A 
ATOM     14  N   UNL     1     -12.013  -2.278  14.535  0.00  0.00    +0.000 NA
ATOM     15  C   UNL     1     -11.706  -2.390  15.836  0.00  0.00    +0.000 A 
ATOM     16  N   UNL     1     -11.855  -1.429  16.793  0.00  0.00    +0.000 N 
ATOM     17  C   UNL     1     -11.436  -1.959  17.980  0.00  0.00    +0.000 A 
ATOM     18  N   UNL     1     -11.020  -3.198  17.841  0.00  0.00    +0.000 NA
ATOM     19  C   UNL     1     -11.180  -3.487  16.497  0.00  0.00    +0.000 A 
ATOM     20  H   UNL     1     -11.971  -3.430  12.819  0.00  0.00    +0.000 HD
ATOM     21  H   UNL     1     -12.216  -0.501  16.636  0.00  0.00    +0.000 HD
ATOM     22  H   UNL     1     -11.454  -1.401  18.908  0.00  0.00    +0.000 HD
ENDBRANCH   4  11
BRANCH   1  23
ATOM     23  C   UNL     1      -8.743  -9.424  18.231  0.00  0.00    +0.000 C 
ATOM     24  H   UNL     1      -7.677  -9.233  18.421  0.00  0.00    +0.000 HD
BRANCH  23  25
ATOM     25  C   UNL     1      -8.774 -10.694  17.360  0.00  0.00    +0.000 A 
ATOM     26  C   UNL     1      -9.002 -10.662  15.971  0.00  0.00    +0.000 A 
ATOM     27  C   UNL     1      -8.985 -11.834  15.208  0.00  0.00    +0.000 A 
ATOM     28  C   UNL     1      -8.745 -13.059  15.822  0.00  0.00    +0.000 A 
ATOM     29 CL   UNL     1      -8.689 -14.496  14.876  0.00  0.00    +0.000 Cl
ATOM     30  C   UNL     1      -8.550 -13.126  17.197  0.00  0.00    +0.000 A 
ATOM     31  C   UNL     1      -8.580 -11.954  17.962  0.00  0.00    +0.000 A 
ATOM     32  H   UNL     1      -9.197  -9.721  15.461  0.00  0.00    +0.000 HD
ATOM     33  H   UNL     1      -9.158 -11.780  14.136  0.00  0.00    +0.000 HD
ATOM     34  H   UNL     1      -8.367 -14.081  17.682  0.00  0.00    +0.000 HD
ATOM     35  H   UNL     1      -8.433 -12.034  19.037  0.00  0.00    +0.000 HD
ENDBRANCH  23  25
BRANCH  23  36
ATOM     36  N   UNL     1      -9.380  -9.628  19.551  0.00  0.00    +0.000 NA
ATOM     37  H   UNL     1     -10.347  -9.320  19.486  0.00  0.00    +0.000 HD
BRANCH  36  38
ATOM     38  C   UNL     1      -8.736  -8.889  20.633  0.00  0.00    +0.000 C 
ATOM     39  H   UNL     1      -7.928  -9.500  21.047  0.00  0.00    +0.000 HD
ATOM     40  H   UNL     1      -9.425  -8.678  21.458  0.00  0.00    +0.000 HD
ATOM     41  H   UNL     1      -8.296  -7.951  20.283  0.00  0.00    +0.000 HD
ENDBRANCH  36  38
ENDBRANCH  23  36
ENDBRANCH   1  23
TORSDOF 5
ENDMDL
MODEL 3
REMARK VINA RESULT:   -10.139      3.881      5.601
REMARK INTER + INTRA:         -13.441
REMARK INTER:                 -12.660
REMARK INTRA:                  -0.781
REMARK UNBOUND:                -0.635
REMARK  Name = 
REMARK  5 active torsions:
REMARK  status: ('A' for Active; 'I' for Inactive)
REMARK    1  A    between atoms: C_1  and  N_2
REMARK    2  A    between atoms: N_2  and  C_3
REMARK    3  A    between atoms: C_3  and  C_4
REMARK    4  A    between atoms: C_3  and  C_11
REMARK    5  A    between atoms: C_14  and  C_15
REMARK                            x       y       z     vdW  Elec       q    Type
REMARK                         _______ _______ _______ _____ _____    ______ ____
ROOT
ATOM      1  C   UNL     1      -9.234  -8.424  17.746  0.00  0.00    +0.000 A 
ATOM      2  C   UNL     1      -8.457  -7.342  17.315  0.00  0.00    +0.000 A 
ATOM      3  C   UNL     1      -9.063  -6.177  16.838  0.00  0.00    +0.000 A 
ATOM      4  C   UNL     1     -10.461  -6.034  16.795  0.00  0.00    +0.000 A 
ATOM      5  C   UNL     1     -11.229  -7.144  17.184  0.00  0.00    +0.000 A 
ATOM      6  C   UNL     1     -10.629  -8.322  17.645  0.00  0.00    +0.000 A 
ATOM      7  H   UNL     1      -7.370  -7.384  17.363  0.00  0.00    +0.000 HD
ATOM      8  H   UNL     1      -8.416  -5.362  16.514  0.00  0.00    +0.000 HD
ATOM      9  H   UNL     1     -12.317  -7.088  17.159  0.00  0.00    +0.000 HD
ATOM     10  H   UNL     1     -11.264  -9.150  17.952  0.00  0.00    +0.000 HD
ENDROOT
BRANCH   4  11
ATOM     11  C   UNL     1     -11.104  -4.777  16.385  0.00  0.00    +0.000 A 
ATOM     12  N   UNL     1     -11.771  -4.041  17.321  0.00  0.00    +0.000 NA
ATOM     13  C   UNL     1     -12.349  -2.879  16.939  0.00  0.00    +0.000 A 
ATOM     14  N   UNL     1     -12.350  -2.314  15.717  0.00  0.00    +0.000 NA
ATOM     15  C   UNL     1     -11.667  -3.068  14.843  0.00  0.00    +0.000 A 
ATOM     16  N   UNL     1     -11.454  -2.795  13.523  0.00  0.00    +0.000 N 
ATOM     17  C   UNL     1     -10.704  -3.813  13.006  0.00  0.00    +0.000 A 
ATOM     18  N   UNL     1     -10.430  -4.725  13.911  0.00  0.00    +0.000 NA
ATOM     19  C   UNL     1     -11.030  -4.276  15.074  0.00  0.00    +0.000 A 
ATOM     20  H   UNL     1     -12.877  -2.334  17.716  0.00  0.00    +0.000 HD
ATOM     21  H   UNL     1     -11.793  -1.981  13.035  0.00  0.00    +0.000 HD
ATOM     22  H   UNL     1     -10.390  -3.838  11.970  0.00  0.00    +0.000 HD
ENDBRANCH   4  11
BRANCH   1  23
ATOM     23  C   UNL     1      -8.563  -9.661  18.347  0.00  0.00    +0.000 C 
ATOM     24  H   UNL     1      -7.487  -9.465  18.463  0.00  0.00    +0.000 HD
BRANCH  23  25
ATOM     25  C   UNL     1      -8.650 -10.871  17.398  0.00  0.00    +0.000 A 
ATOM     26  C   UNL     1      -8.829 -10.738  16.008  0.00  0.00    +0.000 A 
ATOM     27  C   UNL     1      -8.865 -11.861  15.173  0.00  0.00    +0.000 A 
ATOM     28  C   UNL     1      -8.728 -13.134  15.716  0.00  0.00    +0.000 A 
ATOM     29 CL   UNL     1      -8.737 -14.511  14.684  0.00  0.00    +0.000 Cl
ATOM     30  C   UNL     1      -8.584 -13.298  17.089  0.00  0.00    +0.000 A 
ATOM     31  C   UNL     1      -8.561 -12.175  17.924  0.00  0.00    +0.000 A 
ATOM     32  H   UNL     1      -8.943  -9.758  15.552  0.00  0.00    +0.000 HD
ATOM     33  H   UNL     1      -8.998 -11.730  14.103  0.00  0.00    +0.000 HD
ATOM     34  H   UNL     1      -8.481 -14.291  17.518  0.00  0.00    +0.000 HD
ATOM     35  H   UNL     1      -8.455 -12.330  18.997  0.00  0.00    +0.000 HD
ENDBRANCH  23  25
BRANCH  23  36
ATOM     36  N   UNL     1      -9.088  -9.962  19.698  0.00  0.00    +0.000 NA
ATOM     37  H   UNL     1     -10.101 -10.023  19.635  0.00  0.00    +0.000 HD
BRANCH  36  38
ATOM     38  C   UNL     1      -8.750  -8.952  20.696  0.00  0.00    +0.000 C 
ATOM     39  H   UNL     1      -7.884  -8.382  20.344  0.00  0.00    +0.000 HD
ATOM     40  H   UNL     1      -8.465  -9.398  21.656  0.00  0.00    +0.000 HD
ATOM     41  H   UNL     1      -9.569  -8.245  20.857  0.00  0.00    +0.000 HD
ENDBRANCH  36  38
ENDBRANCH  23  36
ENDBRANCH   1  23
TORSDOF 5
ENDMDL
MODEL 4
REMARK VINA RESULT:    -9.985      3.795      8.098
REMARK INTER + INTRA:         -13.247
REMARK INTER:                 -12.800
REMARK INTRA:                  -0.447
REMARK UNBOUND:                -0.635
REMARK  Name = 
REMARK  5 active torsions:
REMARK  status: ('A' for Active; 'I' for Inactive)
REMARK    1  A    between atoms: C_1  and  N_2
REMARK    2  A    between atoms: N_2  and  C_3
REMARK    3  A    between atoms: C_3  and  C_4
REMARK    4  A    between atoms: C_3  and  C_11
REMARK    5  A    between atoms: C_14  and  C_15
REMARK                            x       y       z     vdW  Elec       q    Type
REMARK                         _______ _______ _______ _____ _____    ______ ____
ROOT
ATOM      1  C   UNL     1      -9.112  -7.550  17.594  0.00  0.00    +0.000 A 
ATOM      2  C   UNL     1      -8.988  -8.552  18.565  0.00  0.00    +0.000 A 
ATOM      3  C   UNL     1      -8.954  -9.899  18.196  0.00  0.00    +0.000 A 
ATOM      4  C   UNL     1      -9.018 -10.299  16.849  0.00  0.00    +0.000 A 
ATOM      5  C   UNL     1      -9.191  -9.288  15.889  0.00  0.00    +0.000 A 
ATOM      6  C   UNL     1      -9.244  -7.937  16.253  0.00  0.00    +0.000 A 
ATOM      7  H   UNL     1      -8.897  -8.297  19.619  0.00  0.00    +0.000 HD
ATOM      8  H   UNL     1      -8.857 -10.642  18.987  0.00  0.00    +0.000 HD
ATOM      9  H   UNL     1      -9.255  -9.547  14.833  0.00  0.00    +0.000 HD
ATOM     10  H   UNL     1      -9.361  -7.188  15.474  0.00  0.00    +0.000 HD
ENDROOT
BRANCH   4  11
ATOM     11  C   UNL     1      -8.887 -11.708  16.447  0.00  0.00    +0.000 A 
ATOM     12  N   UNL     1      -8.782 -12.009  15.120  0.00  0.00    +0.000 NA
ATOM     13  C   UNL     1      -8.649 -13.306  14.760  0.00  0.00    +0.000 A 
ATOM     14  N   UNL     1      -8.590 -14.388  15.558  0.00  0.00    +0.000 NA
ATOM     15  C   UNL     1      -8.679 -14.034  16.848  0.00  0.00    +0.000 A 
ATOM     16  N   UNL     1      -8.642 -14.868  17.927  0.00  0.00    +0.000 N 
ATOM     17  C   UNL     1      -8.753 -14.098  19.050  0.00  0.00    +0.000 A 
ATOM     18  N   UNL     1      -8.866 -12.822  18.757  0.00  0.00    +0.000 NA
ATOM     19  C   UNL     1      -8.825 -12.761  17.375  0.00  0.00    +0.000 A 
ATOM     20  H   UNL     1      -8.580 -13.496  13.693  0.00  0.00    +0.000 HD
ATOM     21  H   UNL     1      -8.545 -15.871  17.885  0.00  0.00    +0.000 HD
ATOM     22  H   UNL     1      -8.746 -14.518  20.048  0.00  0.00    +0.000 HD
ENDBRANCH   4  11
BRANCH   1  23
ATOM     23  C   UNL     1      -9.060  -6.076  18.002  0.00  0.00    +0.000 C 
ATOM     24  H   UNL     1      -9.038  -5.453  17.096  0.00  0.00    +0.000 HD
BRANCH  23  25
ATOM     25  C   UNL     1      -7.759  -5.740  18.753  0.00  0.00    +0.000 A 
ATOM     26  C   UNL     1      -6.487  -6.115  18.279  0.00  0.00    +0.000 A 
ATOM     27  C   UNL     1      -5.324  -5.758  18.971  0.00  0.00    +0.000 A 
ATOM     28  C   UNL     1      -5.414  -5.025  20.149  0.00  0.00    +0.000 A 
ATOM     29 CL   UNL     1      -3.981  -4.557  20.979  0.00  0.00    +0.000 Cl
ATOM     30  C   UNL     1      -6.658  -4.669  20.659  0.00  0.00    +0.000 A 
ATOM     31  C   UNL     1      -7.821  -5.039  19.974  0.00  0.00    +0.000 A 
ATOM     32  H   UNL     1      -6.382  -6.692  17.364  0.00  0.00    +0.000 HD
ATOM     33  H   UNL     1      -4.354  -6.055  18.580  0.00  0.00    +0.000 HD
ATOM     34  H   UNL     1      -6.734  -4.101  21.582  0.00  0.00    +0.000 HD
ATOM     35  H   UNL     1      -8.783  -4.755  20.397  0.00  0.00    +0.000 HD
ENDBRANCH  23  25
BRANCH  23  36
ATOM     36  N   UNL     1     -10.269  -5.680  18.759  0.00  0.00    +0.000 NA
ATOM     37  H   UNL     1     -10.869  -6.497  18.845  0.00  0.00    +0.000 HD
BRANCH  36  38
ATOM     38  C   UNL     1     -11.035  -4.613  18.124  0.00  0.00    +0.000 C 
ATOM     39  H   UNL     1     -10.498  -4.273  17.233  0.00  0.00    +0.000 HD
ATOM     40  H   UNL     1     -11.148  -3.739  18.775  0.00  0.00    +0.000 HD
ATOM     41  H   UNL     1     -12.025  -4.953  17.805  0.00  0.00    +0.000 HD
ENDBRANCH  36  38
ENDBRANCH  23  36
ENDBRANCH   1  23
TORSDOF 5
ENDMDL
MODEL 5
REMARK VINA RESULT:    -9.688      0.688      2.130
REMARK INTER + INTRA:         -12.872
REMARK INTER:                 -12.379
REMARK INTRA:                  -0.493
REMARK UNBOUND:                -0.635
REMARK  Name = 
REMARK  5 active torsions:
REMARK  status: ('A' for Active; 'I' for Inactive)
REMARK    1  A    between atoms: C_1  and  N_2
REMARK    2  A    between atoms: N_2  and  C_3
REMARK    3  A    between atoms: C_3  and  C_4
REMARK    4  A    between atoms: C_3  and  C_11
REMARK    5  A    between atoms: C_14  and  C_15
REMARK                            x       y       z     vdW  Elec       q    Type
REMARK                         _______ _______ _______ _____ _____    ______ ____
ROOT
ATOM      1  C   UNL     1      -9.647  -7.664  17.803  0.00  0.00    +0.000 A 
ATOM      2  C   UNL     1      -9.873  -7.540  19.180  0.00  0.00    +0.000 A 
ATOM      3  C   UNL     1      -9.065  -6.708  19.960  0.00  0.00    +0.000 A 
ATOM      4  C   UNL     1      -8.021  -5.951  19.398  0.00  0.00    +0.000 A 
ATOM      5  C   UNL     1      -7.775  -6.121  18.026  0.00  0.00    +0.000 A 
ATOM      6  C   UNL     1      -8.568  -6.968  17.241  0.00  0.00    +0.000 A 
ATOM      7  H   UNL     1     -10.690  -8.074  19.660  0.00  0.00    +0.000 HD
ATOM      8  H   UNL     1      -9.279  -6.644  21.027  0.00  0.00    +0.000 HD
ATOM      9  H   UNL     1      -6.972  -5.565  17.544  0.00  0.00    +0.000 HD
ATOM     10  H   UNL     1      -8.352  -7.055  16.179  0.00  0.00    +0.000 HD
ENDROOT
BRANCH   4  11
ATOM     11  C   UNL     1      -7.230  -5.002  20.195  0.00  0.00    +0.000 A 
ATOM     12  N   UNL     1      -7.877  -4.006  20.869  0.00  0.00    +0.000 NA
ATOM     13  C   UNL     1      -7.144  -3.144  21.610  0.00  0.00    +0.000 A 
ATOM     14  N   UNL     1      -5.810  -3.136  21.797  0.00  0.00    +0.000 NA
ATOM     15  C   UNL     1      -5.229  -4.143  21.129  0.00  0.00    +0.000 A 
ATOM     16  N   UNL     1      -3.898  -4.443  21.104  0.00  0.00    +0.000 N 
ATOM     17  C   UNL     1      -3.738  -5.547  20.316  0.00  0.00    +0.000 A 
ATOM     18  N   UNL     1      -4.884  -5.969  19.830  0.00  0.00    +0.000 NA
ATOM     19  C   UNL     1      -5.835  -5.097  20.328  0.00  0.00    +0.000 A 
ATOM     20  H   UNL     1      -7.701  -2.363  22.118  0.00  0.00    +0.000 HD
ATOM     21  H   UNL     1      -3.177  -3.932  21.588  0.00  0.00    +0.000 HD
ATOM     22  H   UNL     1      -2.771  -5.997  20.132  0.00  0.00    +0.000 HD
ENDBRANCH   4  11
BRANCH   1  23
ATOM     23  C   UNL     1     -10.590  -8.510  16.945  0.00  0.00    +0.000 C 
ATOM     24  H   UNL     1     -11.442  -8.835  17.559  0.00  0.00    +0.000 HD
BRANCH  23  25
ATOM     25  C   UNL     1      -9.915  -9.811  16.474  0.00  0.00    +0.000 A 
ATOM     26  C   UNL     1      -9.712 -10.116  15.115  0.00  0.00    +0.000 A 
ATOM     27  C   UNL     1      -9.060 -11.292  14.727  0.00  0.00    +0.000 A 
ATOM     28  C   UNL     1      -8.605 -12.184  15.692  0.00  0.00    +0.000 A 
ATOM     29 CL   UNL     1      -7.772 -13.612  15.215  0.00  0.00    +0.000 Cl
ATOM     30  C   UNL     1      -8.821 -11.926  17.042  0.00  0.00    +0.000 A 
ATOM     31  C   UNL     1      -9.486 -10.756  17.428  0.00  0.00    +0.000 A 
ATOM     32  H   UNL     1     -10.059  -9.442  14.335  0.00  0.00    +0.000 HD
ATOM     33  H   UNL     1      -8.911 -11.500  13.671  0.00  0.00    +0.000 HD
ATOM     34  H   UNL     1      -8.473 -12.622  17.799  0.00  0.00    +0.000 HD
ATOM     35  H   UNL     1      -9.650 -10.580  18.489  0.00  0.00    +0.000 HD
ENDBRANCH  23  25
BRANCH  23  36
ATOM     36  N   UNL     1     -11.153  -7.725  15.822  0.00  0.00    +0.000 NA
ATOM     37  H   UNL     1     -10.463  -7.705  15.075  0.00  0.00    +0.000 HD
BRANCH  36  38
ATOM     38  C   UNL     1     -11.484  -6.349  16.177  0.00  0.00    +0.000 C 
ATOM     39  H   UNL     1     -10.569  -5.748  16.159  0.00  0.00    +0.000 HD
ATOM     40  H   UNL     1     -11.893  -6.269  17.190  0.00  0.00    +0.000 HD
ATOM     41  H   UNL     1     -12.188  -5.902  15.469  0.00  0.00    +0.000 HD
ENDBRANCH  36  38
ENDBRANCH  23  36
ENDBRANCH   1  23
TORSDOF 5
ENDMDL
MODEL 6
REMARK VINA RESULT:    -9.622      3.945      8.454
REMARK INTER + INTRA:         -12.788
REMARK INTER:                 -12.465
REMARK INTRA:                  -0.323
REMARK UNBOUND:                -0.635
REMARK  Name = 
REMARK  5 active torsions:
REMARK  status: ('A' for Active; 'I' for Inactive)
REMARK    1  A    between atoms: C_1  and  N_2
REMARK    2  A    between atoms: N_2  and  C_3
REMARK    3  A    between atoms: C_3  and  C_4
REMARK    4  A    between atoms: C_3  and  C_11
REMARK    5  A    between atoms: C_14  and  C_15
REMARK                            x       y       z     vdW  Elec       q    Type
REMARK                         _______ _______ _______ _____ _____    ______ ____
ROOT
ATOM      1  C   UNL     1      -8.931  -8.069  17.648  0.00  0.00    +0.000 A 
ATOM      2  C   UNL     1      -9.080  -8.779  16.451  0.00  0.00    +0.000 A 
ATOM      3  C   UNL     1      -9.007 -10.175  16.439  0.00  0.00    +0.000 A 
ATOM      4  C   UNL     1      -8.808 -10.916  17.617  0.00  0.00    +0.000 A 
ATOM      5  C   UNL     1      -8.613 -10.190  18.803  0.00  0.00    +0.000 A 
ATOM      6  C   UNL     1      -8.665  -8.791  18.821  0.00  0.00    +0.000 A 
ATOM      7  H   UNL     1      -9.273  -8.258  15.515  0.00  0.00    +0.000 HD
ATOM      8  H   UNL     1      -9.129 -10.683  15.482  0.00  0.00    +0.000 HD
ATOM      9  H   UNL     1      -8.446 -10.717  19.742  0.00  0.00    +0.000 HD
ATOM     10  H   UNL     1      -8.525  -8.271  19.766  0.00  0.00    +0.000 HD
ENDROOT
BRANCH   4  11
ATOM     11  C   UNL     1      -8.827 -12.386  17.626  0.00  0.00    +0.000 A 
ATOM     12  N   UNL     1      -8.947 -13.038  18.819  0.00  0.00    +0.000 NA
ATOM     13  C   UNL     1      -8.976 -14.390  18.817  0.00  0.00    +0.000 A 
ATOM     14  N   UNL     1      -8.913 -15.221  17.759  0.00  0.00    +0.000 NA
ATOM     15  C   UNL     1      -8.815 -14.529  16.615  0.00  0.00    +0.000 A 
ATOM     16  N   UNL     1      -8.743 -15.045  15.354  0.00  0.00    +0.000 N 
ATOM     17  C   UNL     1      -8.666 -13.997  14.482  0.00  0.00    +0.000 A 
ATOM     18  N   UNL     1      -8.675 -12.841  15.107  0.00  0.00    +0.000 NA
ATOM     19  C   UNL     1      -8.766 -13.154  16.451  0.00  0.00    +0.000 A 
ATOM     20  H   UNL     1      -9.061 -14.864  19.791  0.00  0.00    +0.000 HD
ATOM     21  H   UNL     1      -8.753 -16.027  15.125  0.00  0.00    +0.000 HD
ATOM     22  H   UNL     1      -8.603 -14.134  13.410  0.00  0.00    +0.000 HD
ENDBRANCH   4  11
BRANCH   1  23
ATOM     23  C   UNL     1      -9.098  -6.548  17.664  0.00  0.00    +0.000 C 
ATOM     24  H   UNL     1      -8.816  -6.145  16.681  0.00  0.00    +0.000 HD
BRANCH  23  25
ATOM     25  C   UNL     1      -8.134  -5.881  18.663  0.00  0.00    +0.000 A 
ATOM     26  C   UNL     1      -6.743  -6.099  18.641  0.00  0.00    +0.000 A 
ATOM     27  C   UNL     1      -5.895  -5.445  19.541  0.00  0.00    +0.000 A 
ATOM     28  C   UNL     1      -6.424  -4.567  20.482  0.00  0.00    +0.000 A 
ATOM     29 CL   UNL     1      -5.376  -3.737  21.565  0.00  0.00    +0.000 Cl
ATOM     30  C   UNL     1      -7.797  -4.358  20.549  0.00  0.00    +0.000 A 
ATOM     31  C   UNL     1      -8.646  -5.023  19.657  0.00  0.00    +0.000 A 
ATOM     32  H   UNL     1      -6.298  -6.782  17.922  0.00  0.00    +0.000 HD
ATOM     33  H   UNL     1      -4.824  -5.627  19.499  0.00  0.00    +0.000 HD
ATOM     34  H   UNL     1      -8.216  -3.677  21.285  0.00  0.00    +0.000 HD
ATOM     35  H   UNL     1      -9.718  -4.848  19.735  0.00  0.00    +0.000 HD
ENDBRANCH  23  25
BRANCH  23  36
ATOM     36  N   UNL     1     -10.508  -6.159  17.893  0.00  0.00    +0.000 NA
ATOM     37  H   UNL     1     -11.004  -6.970  18.256  0.00  0.00    +0.000 HD
BRANCH  36  38
ATOM     38  C   UNL     1     -11.194  -5.704  16.688  0.00  0.00    +0.000 C 
ATOM     39  H   UNL     1     -11.479  -6.577  16.092  0.00  0.00    +0.000 HD
ATOM     40  H   UNL     1     -10.551  -5.086  16.053  0.00  0.00    +0.000 HD
ATOM     41  H   UNL     1     -12.108  -5.150  16.921  0.00  0.00    +0.000 HD
ENDBRANCH  36  38
ENDBRANCH  23  36
ENDBRANCH   1  23
TORSDOF 5
ENDMDL
MODEL 7
REMARK VINA RESULT:    -9.363      1.902      2.946
REMARK INTER + INTRA:         -12.461
REMARK INTER:                 -12.201
REMARK INTRA:                  -0.260
REMARK UNBOUND:                -0.635
REMARK  Name = 
REMARK  5 active torsions:
REMARK  status: ('A' for Active; 'I' for Inactive)
REMARK    1  A    between atoms: C_1  and  N_2
REMARK    2  A    between atoms: N_2  and  C_3
REMARK    3  A    between atoms: C_3  and  C_4
REMARK    4  A    between atoms: C_3  and  C_11
REMARK    5  A    between atoms: C_14  and  C_15
REMARK                            x       y       z     vdW  Elec       q    Type
REMARK                         _______ _______ _______ _____ _____    ______ ____
ROOT
ATOM      1  C   UNL     1      -9.546  -7.856  16.885  0.00  0.00    +0.000 A 
ATOM      2  C   UNL     1     -10.669  -7.365  17.563  0.00  0.00    +0.000 A 
ATOM      3  C   UNL     1     -10.588  -6.188  18.312  0.00  0.00    +0.000 A 
ATOM      4  C   UNL     1      -9.397  -5.444  18.395  0.00  0.00    +0.000 A 
ATOM      5  C   UNL     1      -8.267  -5.972  17.751  0.00  0.00    +0.000 A 
ATOM      6  C   UNL     1      -8.335  -7.161  17.014  0.00  0.00    +0.000 A 
ATOM      7  H   UNL     1     -11.625  -7.881  17.503  0.00  0.00    +0.000 HD
ATOM      8  H   UNL     1     -11.488  -5.846  18.822  0.00  0.00    +0.000 HD
ATOM      9  H   UNL     1      -7.318  -5.439  17.793  0.00  0.00    +0.000 HD
ATOM     10  H   UNL     1      -7.439  -7.524  16.517  0.00  0.00    +0.000 HD
ENDROOT
BRANCH   4  11
ATOM     11  C   UNL     1      -9.331  -4.156  19.102  0.00  0.00    +0.000 A 
ATOM     12  N   UNL     1     -10.259  -3.196  18.813  0.00  0.00    +0.000 NA
ATOM     13  C   UNL     1     -10.199  -2.019  19.477  0.00  0.00    +0.000 A 
ATOM     14  N   UNL     1      -9.325  -1.647  20.431  0.00  0.00    +0.000 NA
ATOM     15  C   UNL     1      -8.451  -2.630  20.686  0.00  0.00    +0.000 A 
ATOM     16  N   UNL     1      -7.438  -2.603  21.601  0.00  0.00    +0.000 N 
ATOM     17  C   UNL     1      -6.800  -3.810  21.546  0.00  0.00    +0.000 A 
ATOM     18  N   UNL     1      -7.336  -4.605  20.648  0.00  0.00    +0.000 NA
ATOM     19  C   UNL     1      -8.375  -3.880  20.093  0.00  0.00    +0.000 A 
ATOM     20  H   UNL     1     -10.951  -1.284  19.205  0.00  0.00    +0.000 HD
ATOM     21  H   UNL     1      -7.218  -1.826  22.203  0.00  0.00    +0.000 HD
ATOM     22  H   UNL     1      -5.955  -4.052  22.179  0.00  0.00    +0.000 HD
ENDBRANCH   4  11
BRANCH   1  23
ATOM     23  C   UNL     1      -9.668  -9.097  15.999  0.00  0.00    +0.000 C 
ATOM     24  H   UNL     1     -10.727  -9.262  15.754  0.00  0.00    +0.000 HD
BRANCH  23  25
ATOM     25  C   UNL     1      -9.225 -10.371  16.743  0.00  0.00    +0.000 A 
ATOM     26  C   UNL     1      -8.873 -10.375  18.106  0.00  0.00    +0.000 A 
ATOM     27  C   UNL     1      -8.512 -11.560  18.756  0.00  0.00    +0.000 A 
ATOM     28  C   UNL     1      -8.492 -12.759  18.053  0.00  0.00    +0.000 A 
ATOM     29 CL   UNL     1      -8.083 -14.221  18.863  0.00  0.00    +0.000 Cl
ATOM     30  C   UNL     1      -8.802 -12.782  16.698  0.00  0.00    +0.000 A 
ATOM     31  C   UNL     1      -9.150 -11.593  16.045  0.00  0.00    +0.000 A 
ATOM     32  H   UNL     1      -8.874  -9.453  18.683  0.00  0.00    +0.000 HD
ATOM     33  H   UNL     1      -8.251 -11.535  19.811  0.00  0.00    +0.000 HD
ATOM     34  H   UNL     1      -8.783 -13.715  16.143  0.00  0.00    +0.000 HD
ATOM     35  H   UNL     1      -9.381 -11.635  14.982  0.00  0.00    +0.000 HD
ENDBRANCH  23  25
BRANCH  23  36
ATOM     36  N   UNL     1      -8.958  -8.917  14.712  0.00  0.00    +0.000 NA
ATOM     37  H   UNL     1      -8.950  -7.924  14.493  0.00  0.00    +0.000 HD
BRANCH  36  38
ATOM     38  C   UNL     1      -9.575  -9.629  13.597  0.00  0.00    +0.000 C 
ATOM     39  H   UNL     1      -9.287 -10.683  13.647  0.00  0.00    +0.000 HD
ATOM     40  H   UNL     1      -9.233  -9.254  12.627  0.00  0.00    +0.000 HD
ATOM     41  H   UNL     1     -10.667  -9.582  13.636  0.00  0.00    +0.000 HD
ENDBRANCH  36  38
ENDBRANCH  23  36
ENDBRANCH   1  23
TORSDOF 5
ENDMDL
MODEL 8
REMARK VINA RESULT:    -9.336      2.940      4.817
REMARK INTER + INTRA:         -12.426
REMARK INTER:                 -11.895
REMARK INTRA:                  -0.531
REMARK UNBOUND:                -0.635
REMARK  Name = 
REMARK  5 active torsions:
REMARK  status: ('A' for Active; 'I' for Inactive)
REMARK    1  A    between atoms: C_1  and  N_2
REMARK    2  A    between atoms: N_2  and  C_3
REMARK    3  A    between atoms: C_3  and  C_4
REMARK    4  A    between atoms: C_3  and  C_11
REMARK    5  A    between atoms: C_14  and  C_15
REMARK                            x       y       z     vdW  Elec       q    Type
REMARK                         _______ _______ _______ _____ _____    ______ ____
ROOT
ATOM      1  C   UNL     1      -8.946  -8.176  19.354  0.00  0.00    +0.000 A 
ATOM      2  C   UNL     1     -10.284  -7.944  19.010  0.00  0.00    +0.000 A 
ATOM      3  C   UNL     1     -10.694  -6.686  18.562  0.00  0.00    +0.000 A 
ATOM      4  C   UNL     1      -9.788  -5.620  18.417  0.00  0.00    +0.000 A 
ATOM      5  C   UNL     1      -8.461  -5.852  18.811  0.00  0.00    +0.000 A 
ATOM      6  C   UNL     1      -8.045  -7.104  19.279  0.00  0.00    +0.000 A 
ATOM      7  H   UNL     1     -11.020  -8.744  19.067  0.00  0.00    +0.000 HD
ATOM      8  H   UNL     1     -11.745  -6.554  18.306  0.00  0.00    +0.000 HD
ATOM      9  H   UNL     1      -7.722  -5.055  18.727  0.00  0.00    +0.000 HD
ATOM     10  H   UNL     1      -7.003  -7.243  19.556  0.00  0.00    +0.000 HD
ENDROOT
BRANCH   4  11
ATOM     11  C   UNL     1     -10.195  -4.323  17.856  0.00  0.00    +0.000 A 
ATOM     12  N   UNL     1     -10.059  -3.201  18.622  0.00  0.00    +0.000 NA
ATOM     13  C   UNL     1     -10.423  -2.010  18.093  0.00  0.00    +0.000 A 
ATOM     14  N   UNL     1     -10.910  -1.760  16.863  0.00  0.00    +0.000 NA
ATOM     15  C   UNL     1     -11.005  -2.891  16.150  0.00  0.00    +0.000 A 
ATOM     16  N   UNL     1     -11.445  -3.010  14.864  0.00  0.00    +0.000 N 
ATOM     17  C   UNL     1     -11.369  -4.329  14.520  0.00  0.00    +0.000 A 
ATOM     18  N   UNL     1     -10.915  -5.066  15.510  0.00  0.00    +0.000 NA
ATOM     19  C   UNL     1     -10.683  -4.179  16.546  0.00  0.00    +0.000 A 
ATOM     20  H   UNL     1     -10.308  -1.148  18.744  0.00  0.00    +0.000 HD
ATOM     21  H   UNL     1     -11.761  -2.248  14.284  0.00  0.00    +0.000 HD
ATOM     22  H   UNL     1     -11.657  -4.695  13.542  0.00  0.00    +0.000 HD
ENDBRANCH   4  11
BRANCH   1  23
ATOM     23  C   UNL     1      -8.491  -9.579  19.760  0.00  0.00    +0.000 C 
ATOM     24  H   UNL     1      -7.431  -9.544  20.050  0.00  0.00    +0.000 HD
BRANCH  23  25
ATOM     25  C   UNL     1      -8.549 -10.560  18.574  0.00  0.00    +0.000 A 
ATOM     26  C   UNL     1      -8.261 -11.932  18.704  0.00  0.00    +0.000 A 
ATOM     27  C   UNL     1      -8.362 -12.799  17.611  0.00  0.00    +0.000 A 
ATOM     28  C   UNL     1      -8.747 -12.307  16.368  0.00  0.00    +0.000 A 
ATOM     29 CL   UNL     1      -8.905 -13.381  15.033  0.00  0.00    +0.000 Cl
ATOM     30  C   UNL     1      -9.006 -10.951  16.201  0.00  0.00    +0.000 A 
ATOM     31  C   UNL     1      -8.891 -10.083  17.293  0.00  0.00    +0.000 A 
ATOM     32  H   UNL     1      -7.953 -12.347  19.661  0.00  0.00    +0.000 HD
ATOM     33  H   UNL     1      -8.139 -13.855  17.740  0.00  0.00    +0.000 HD
ATOM     34  H   UNL     1      -9.302 -10.561  15.232  0.00  0.00    +0.000 HD
ATOM     35  H   UNL     1      -9.091  -9.024  17.135  0.00  0.00    +0.000 HD
ENDBRANCH  23  25
BRANCH  23  36
ATOM     36  N   UNL     1      -9.238 -10.072  20.939  0.00  0.00    +0.000 NA
ATOM     37  H   UNL     1     -10.072  -9.500  21.046  0.00  0.00    +0.000 HD
BRANCH  36  38
ATOM     38  C   UNL     1      -8.477 -10.010  22.183  0.00  0.00    +0.000 C 
ATOM     39  H   UNL     1      -9.070  -9.481  22.935  0.00  0.00    +0.000 HD
ATOM     40  H   UNL     1      -7.541  -9.451  22.069  0.00  0.00    +0.000 HD
ATOM     41  H   UNL     1      -8.254 -11.006  22.577  0.00  0.00    +0.000 HD
ENDBRANCH  36  38
ENDBRANCH  23  36
ENDBRANCH   1  23
TORSDOF 5
ENDMDL
MODEL 9
REMARK VINA RESULT:    -9.256      1.674      2.176
REMARK INTER + INTRA:         -12.325
REMARK INTER:                 -12.216
REMARK INTRA:                  -0.109
REMARK UNBOUND:                -0.635
REMARK  Name = 
REMARK  5 active torsions:
REMARK  status: ('A' for Active; 'I' for Inactive)
REMARK    1  A    between atoms: C_1  and  N_2
REMARK    2  A    between atoms: N_2  and  C_3
REMARK    3  A    between atoms: C_3  and  C_4
REMARK    4  A    between atoms: C_3  and  C_11
REMARK    5  A    between atoms: C_14  and  C_15
REMARK                            x       y       z     vdW  Elec       q    Type
REMARK                         _______ _______ _______ _____ _____    ______ ____
ROOT
ATOM      1  C   UNL     1      -9.175  -6.811  17.542  0.00  0.00    +0.000 A 
ATOM      2  C   UNL     1      -7.805  -6.690  17.804  0.00  0.00    +0.000 A 
ATOM      3  C   UNL     1      -7.340  -5.764  18.742  0.00  0.00    +0.000 A 
ATOM      4  C   UNL     1      -8.219  -4.941  19.469  0.00  0.00    +0.000 A 
ATOM      5  C   UNL     1      -9.586  -5.038  19.161  0.00  0.00    +0.000 A 
ATOM      6  C   UNL     1     -10.058  -5.950  18.210  0.00  0.00    +0.000 A 
ATOM      7  H   UNL     1      -7.083  -7.328  17.298  0.00  0.00    +0.000 HD
ATOM      8  H   UNL     1      -6.265  -5.707  18.912  0.00  0.00    +0.000 HD
ATOM      9  H   UNL     1     -10.307  -4.416  19.689  0.00  0.00    +0.000 HD
ATOM     10  H   UNL     1     -11.127  -6.002  18.016  0.00  0.00    +0.000 HD
ENDROOT
BRANCH   4  11
ATOM     11  C   UNL     1      -7.744  -4.034  20.524  0.00  0.00    +0.000 A 
ATOM     12  N   UNL     1      -6.659  -4.398  21.268  0.00  0.00    +0.000 NA
ATOM     13  C   UNL     1      -6.221  -3.551  22.228  0.00  0.00    +0.000 A 
ATOM     14  N   UNL     1      -6.715  -2.344  22.561  0.00  0.00    +0.000 NA
ATOM     15  C   UNL     1      -7.765  -2.030  21.789  0.00  0.00    +0.000 A 
ATOM     16  N   UNL     1      -8.500  -0.881  21.839  0.00  0.00    +0.000 N 
ATOM     17  C   UNL     1      -9.464  -0.964  20.875  0.00  0.00    +0.000 A 
ATOM     18  N   UNL     1      -9.397  -2.098  20.214  0.00  0.00    +0.000 NA
ATOM     19  C   UNL     1      -8.336  -2.785  20.776  0.00  0.00    +0.000 A 
ATOM     20  H   UNL     1      -5.363  -3.889  22.802  0.00  0.00    +0.000 HD
ATOM     21  H   UNL     1      -8.342  -0.117  22.478  0.00  0.00    +0.000 HD
ATOM     22  H   UNL     1     -10.183  -0.174  20.701  0.00  0.00    +0.000 HD
ENDBRANCH   4  11
BRANCH   1  23
ATOM     23  C   UNL     1      -9.680  -7.887  16.578  0.00  0.00    +0.000 C 
ATOM     24  H   UNL     1     -10.779  -7.867  16.560  0.00  0.00    +0.000 HD
BRANCH  23  25
ATOM     25  C   UNL     1      -9.312  -9.301  17.064  0.00  0.00    +0.000 A 
ATOM     26  C   UNL     1      -8.921  -9.574  18.388  0.00  0.00    +0.000 A 
ATOM     27  C   UNL     1      -8.631 -10.879  18.802  0.00  0.00    +0.000 A 
ATOM     28  C   UNL     1      -8.723 -11.931  17.897  0.00  0.00    +0.000 A 
ATOM     29 CL   UNL     1      -8.402 -13.540  18.416  0.00  0.00    +0.000 Cl
ATOM     30  C   UNL     1      -9.075 -11.687  16.574  0.00  0.00    +0.000 A 
ATOM     31  C   UNL     1      -9.351 -10.380  16.158  0.00  0.00    +0.000 A 
ATOM     32  H   UNL     1      -8.834  -8.774  19.120  0.00  0.00    +0.000 HD
ATOM     33  H   UNL     1      -8.337 -11.063  19.832  0.00  0.00    +0.000 HD
ATOM     34  H   UNL     1      -9.144 -12.505  15.862  0.00  0.00    +0.000 HD
ATOM     35  H   UNL     1      -9.617 -10.214  15.115  0.00  0.00    +0.000 HD
ENDBRANCH  23  25
BRANCH  23  36
ATOM     36  N   UNL     1      -9.227  -7.629  15.192  0.00  0.00    +0.000 NA
ATOM     37  H   UNL     1      -8.264  -7.944  15.111  0.00  0.00    +0.000 HD
BRANCH  36  38
ATOM     38  C   UNL     1      -9.284  -6.222  14.809  0.00  0.00    +0.000 C 
ATOM     39  H   UNL     1      -9.032  -5.608  15.679  0.00  0.00    +0.000 HD
ATOM     40  H   UNL     1     -10.287  -5.919  14.490  0.00  0.00    +0.000 HD
ATOM     41  H   UNL     1      -8.567  -5.984  14.017  0.00  0.00    +0.000 HD
ENDBRANCH  36  38
ENDBRANCH  23  36
ENDBRANCH   1  23
TORSDOF 5
ENDMDL
