
 OpenBabel01112422403D

 44 47  0  0  0  0  0  0  0  0999 V2000
    3.9574   -5.9517    7.1696 C   0  0  0  0  0  0  0  0  0  0  0  0
    2.6025   -6.1155    6.0339 S   0  0  0  0  0  0  0  0  0  0  0  0
    2.0318   -7.4340    6.2085 O   0  0  0  0  0  0  0  0  0  0  0  0
    1.7880   -4.9350    6.1619 O   0  0  0  0  0  0  0  0  0  0  0  0
    3.3651   -6.0735    4.4276 C   0  0  0  0  0  0  0  0  0  0  0  0
    3.7200   -7.2776    3.8113 C   0  0  0  0  0  0  0  0  0  0  0  0
    4.1573   -7.2752    2.4847 C   0  0  0  0  0  0  0  0  0  0  0  0
    4.2724   -6.0682    1.7845 C   0  0  0  0  0  0  0  0  0  0  0  0
    4.5734   -6.0363    0.3348 C   0  0  0  0  0  0  0  0  0  0  0  0
    3.9924   -5.1605   -0.3187 O   0  0  0  0  0  0  0  0  0  0  0  0
    5.4031   -6.9270   -0.3923 N   0  0  0  0  0  0  0  0  0  0  0  0
    5.3369   -7.0989   -1.7804 C   0  0  0  0  0  0  0  0  0  0  0  0
    4.3996   -6.7101   -2.7527 C   0  0  0  0  0  0  0  0  0  0  0  0
    4.8751   -6.6532   -4.0595 C   0  0  0  0  0  0  0  0  0  0  0  0
    4.0476   -6.3223   -5.0960 O   0  0  0  0  0  0  0  0  0  0  0  0
    6.2072   -6.9092   -4.3562 C   0  0  0  0  0  0  0  0  0  0  0  0
    6.7136   -6.5484   -5.5708 O   0  0  0  0  0  0  0  0  0  0  0  0
    7.0245   -7.5496   -3.4382 C   0  0  0  0  0  0  0  0  0  0  0  0
    6.5122   -7.7433   -2.1456 C   0  0  0  0  0  0  0  0  0  0  0  0
    6.8460   -8.5258   -1.0212 C   0  0  0  0  0  0  0  0  0  0  0  0
    7.5569   -9.7239   -0.8132 C   0  0  0  0  0  0  0  0  0  0  0  0
    7.9609  -10.0597    0.4786 C   0  0  0  0  0  0  0  0  0  0  0  0
    7.8303   -9.1120    1.4812 C   0  0  0  0  0  0  0  0  0  0  0  0
    8.4309   -9.2859    2.6991 O   0  0  0  0  0  0  0  0  0  0  0  0
    7.0959   -7.9362    1.2862 C   0  0  0  0  0  0  0  0  0  0  0  0
    7.1249   -6.9562    2.2421 O   0  0  0  0  0  0  0  0  0  0  0  0
    6.4205   -7.7696    0.0750 C   0  0  0  0  0  0  0  0  0  0  0  0
    3.9243   -4.8631    2.4193 C   0  0  0  0  0  0  0  0  0  0  0  0
    3.4639   -4.8623    3.7383 C   0  0  0  0  0  0  0  0  0  0  0  0
    3.5475   -5.9805    8.1783 H   0  0  0  0  0  0  0  0  0  0  0  0
    4.4496   -4.9907    6.9987 H   0  0  0  0  0  0  0  0  0  0  0  0
    4.6526   -6.7772    7.0255 H   0  0  0  0  0  0  0  0  0  0  0  0
    3.6172   -8.2244    4.3362 H   0  0  0  0  0  0  0  0  0  0  0  0
    4.3779   -8.2269    2.0092 H   0  0  0  0  0  0  0  0  0  0  0  0
    3.3950   -6.3978   -2.4898 H   0  0  0  0  0  0  0  0  0  0  0  0
    3.2244   -6.8234   -4.9455 H   0  0  0  0  0  0  0  0  0  0  0  0
    6.0126   -5.9904   -5.9650 H   0  0  0  0  0  0  0  0  0  0  0  0
    8.0426   -7.8256   -3.6889 H   0  0  0  0  0  0  0  0  0  0  0  0
    7.7510  -10.3930   -1.6478 H   0  0  0  0  0  0  0  0  0  0  0  0
    8.4445  -11.0155    0.6504 H   0  0  0  0  0  0  0  0  0  0  0  0
    8.8950  -10.1417    2.6841 H   0  0  0  0  0  0  0  0  0  0  0  0
    7.8621   -7.2183    2.8310 H   0  0  0  0  0  0  0  0  0  0  0  0
    3.9674   -3.9256    1.8672 H   0  0  0  0  0  0  0  0  0  0  0  0
    3.1448   -3.9268    4.1919 H   0  0  0  0  0  0  0  0  0  0  0  0
  1  2  1  0  0  0  0
  1 30  1  0  0  0  0
  1 31  1  0  0  0  0
  1 32  1  0  0  0  0
  2  3  2  0  0  0  0
  2  4  2  0  0  0  0
  2  5  1  0  0  0  0
  5  6  1  0  0  0  0
  5 29  2  0  0  0  0
  6  7  2  0  0  0  0
  6 33  1  0  0  0  0
  7  8  1  0  0  0  0
  7 34  1  0  0  0  0
  8  9  1  0  0  0  0
  8 28  2  0  0  0  0
  9 10  2  0  0  0  0
  9 11  1  0  0  0  0
 11 12  1  0  0  0  0
 11 27  1  0  0  0  0
 12 13  1  0  0  0  0
 12 19  2  0  0  0  0
 13 14  2  0  0  0  0
 13 35  1  0  0  0  0
 14 15  1  0  0  0  0
 14 16  1  0  0  0  0
 15 36  1  0  0  0  0
 16 17  1  0  0  0  0
 16 18  2  0  0  0  0
 17 37  1  0  0  0  0
 18 19  1  0  0  0  0
 18 38  1  0  0  0  0
 19 20  1  0  0  0  0
 20 21  1  0  0  0  0
 20 27  2  0  0  0  0
 21 22  2  0  0  0  0
 21 39  1  0  0  0  0
 22 23  1  0  0  0  0
 22 40  1  0  0  0  0
 23 24  1  0  0  0  0
 23 25  2  0  0  0  0
 24 41  1  0  0  0  0
 25 26  1  0  0  0  0
 25 27  1  0  0  0  0
 26 42  1  0  0  0  0
 28 29  1  0  0  0  0
 28 43  1  0  0  0  0
 29 44  1  0  0  0  0
M  END
$$$$
