REMARK  Name = 
REMARK  2 active torsions:
REMARK  status: ('A' for Active; 'I' for Inactive)
REMARK    1  A    between atoms: S_2  and  C_4
REMARK    2  A    between atoms: S_2  and  N_14
REMARK                            x       y       z     vdW  Elec       q    Type
REMARK                         _______ _______ _______ _____ _____    ______ ____
ROOT
ATOM      1  O   UNL     1      -2.339  -0.142  -0.821  0.00  0.00    +0.000 OA
ATOM      2  S   UNL     1      -0.992   0.396  -0.875  0.00  0.00    +0.000 S 
ATOM      3  O   UNL     1      -0.666   1.451  -1.811  0.00  0.00    +0.000 OA
ENDROOT
BRANCH   2   4
ATOM      4  C   UNL     1      -0.620   1.000   0.760  0.00  0.00    +0.000 A 
ATOM      5  C   UNL     1      -0.440   2.394   0.872  0.00  0.00    +0.000 A 
ATOM      6  C   UNL     1      -0.405   3.004   2.121  0.00  0.00    +0.000 A 
ATOM      7  C   UNL     1      -0.534   2.229   3.267  0.00  0.00    +0.000 A 
ATOM      8  C   UNL     1      -0.647   0.831   3.178  0.00  0.00    +0.000 A 
ATOM      9  C   UNL     1      -0.727   0.054   4.333  0.00  0.00    +0.000 A 
ATOM     10  N   UNL     1      -0.801  -1.294   4.349  0.00  0.00    +0.000 NA
ATOM     11  C   UNL     1      -0.828  -1.902   3.149  0.00  0.00    +0.000 A 
ATOM     12  C   UNL     1      -0.792  -1.227   1.936  0.00  0.00    +0.000 A 
ATOM     13  C   UNL     1      -0.688   0.180   1.919  0.00  0.00    +0.000 A 
ATOM     14  H   UNL     1      -0.381   3.026  -0.014  0.00  0.00    +0.000 HD
ATOM     15  H   UNL     1      -0.313   4.085   2.200  0.00  0.00    +0.000 HD
ATOM     16  H   UNL     1      -0.550   2.724   4.237  0.00  0.00    +0.000 HD
ATOM     17  H   UNL     1      -0.725   0.509   5.320  0.00  0.00    +0.000 HD
ATOM     18  H   UNL     1      -0.877  -2.986   3.183  0.00  0.00    +0.000 HD
ATOM     19  H   UNL     1      -0.828  -1.816   1.026  0.00  0.00    +0.000 HD
ENDBRANCH   2   4
BRANCH   2  20
ATOM     20  N   UNL     1       0.056  -0.920  -1.197  0.00  0.00    +0.000 NA
ATOM     21  C   UNL     1       1.524  -0.670  -1.183  0.00  0.00    +0.000 C 
ATOM     22  C   UNL     1       2.021   0.055  -2.449  0.00  0.00    +0.000 C 
ATOM     23  N   UNL     1       1.579  -0.514  -3.734  0.00  0.00    +0.000 NA
ATOM     24  C   UNL     1       0.152  -0.883  -3.718  0.00  0.00    +0.000 C 
ATOM     25  C   UNL     1      -0.303  -1.653  -2.459  0.00  0.00    +0.000 C 
ATOM     26  H   UNL     1       2.018  -1.650  -1.113  0.00  0.00    +0.000 HD
ATOM     27  H   UNL     1       1.812  -0.125  -0.279  0.00  0.00    +0.000 HD
ATOM     28  H   UNL     1       3.118   0.040  -2.441  0.00  0.00    +0.000 HD
ATOM     29  H   UNL     1       1.741   1.112  -2.406  0.00  0.00    +0.000 HD
ATOM     30  H   UNL     1       2.138  -1.332  -3.961  0.00  0.00    +0.000 HD
ATOM     31  H   UNL     1      -0.044  -1.508  -4.599  0.00  0.00    +0.000 HD
ATOM     32  H   UNL     1      -0.457   0.016  -3.858  0.00  0.00    +0.000 HD
ATOM     33  H   UNL     1       0.181  -2.636  -2.432  0.00  0.00    +0.000 HD
ATOM     34  H   UNL     1      -1.380  -1.847  -2.499  0.00  0.00    +0.000 HD
ENDBRANCH   2  20
TORSDOF 2
