
 OpenBabel01112422563D

 68 71  0  0  0  0  0  0  0  0999 V2000
    2.4056   -1.9860    3.5209 C   0  0  0  0  0  0  0  0  0  0  0  0
    3.6212   -1.8428    2.6850 C   0  0  0  0  0  0  0  0  0  0  0  0
    4.8130   -1.3505    3.1916 C   0  0  0  0  0  0  0  0  0  0  0  0
    5.7168   -1.2843    2.1757 N   0  0  0  0  0  0  0  0  0  0  0  0
    5.1486   -1.7300    1.0201 C   0  0  0  0  0  0  0  0  0  0  0  0
    5.8083   -1.7506   -0.1444 N   0  0  0  0  0  0  0  0  0  0  0  0
    5.0222   -2.1832   -1.1365 C   0  0  0  0  0  0  0  0  0  0  0  0
    3.7369   -2.5654   -1.0626 N   0  0  0  0  0  0  0  0  0  0  0  0
    3.0859   -2.5577    0.1381 C   0  0  0  0  0  0  0  0  0  0  0  0
    1.7401   -2.8750    0.1465 N   0  0  0  0  0  0  0  0  0  0  0  0
    0.9569   -2.7766   -1.0828 C   0  0  0  0  0  0  0  0  0  0  0  0
   -0.3994   -2.1663   -0.6844 C   0  0  0  0  0  0  0  0  0  0  0  0
   -1.1166   -2.8952    0.5042 C   0  0  0  0  0  0  0  0  0  0  0  0
   -2.2192   -1.9426    1.0903 C   0  0  0  0  0  0  0  0  0  0  0  0
   -3.2985   -1.4397    0.2126 N   0  0  0  0  0  0  0  0  0  0  0  0
   -4.1820   -2.4654   -0.3459 C   0  0  0  0  0  0  0  0  0  0  0  0
   -4.1365   -0.4778    0.9457 C   0  0  0  0  0  0  0  0  0  0  0  0
   -1.7096   -4.2370    0.0503 C   0  0  0  0  0  0  0  0  0  0  0  0
   -1.4393   -4.6828   -1.0636 O   0  0  0  0  0  0  0  0  0  0  0  0
   -2.5172   -4.8809    0.9891 N   0  0  0  0  0  0  0  0  0  0  0  0
   -3.2795   -6.0471    0.7558 C   0  0  0  0  0  0  0  0  0  0  0  0
   -3.0555   -6.8816   -0.3463 C   0  0  0  0  0  0  0  0  0  0  0  0
   -3.8990   -7.9557   -0.6070 C   0  0  0  0  0  0  0  0  0  0  0  0
   -4.9600   -8.2345    0.2375 C   0  0  0  0  0  0  0  0  0  0  0  0
   -5.1455   -7.4667    1.3879 C   0  0  0  0  0  0  0  0  0  0  0  0
   -6.2115   -7.7069    2.2916 O   0  0  0  0  0  0  0  0  0  0  0  0
   -6.6810   -9.0110    2.5176 C   0  0  0  0  0  0  0  0  0  0  0  0
   -6.1653  -10.0186    2.0422 O   0  0  0  0  0  0  0  0  0  0  0  0
   -7.7957   -9.0677    3.3468 N   0  0  0  0  0  0  0  0  0  0  0  0
   -8.3806   -7.9158    4.0067 C   0  0  0  0  0  0  0  0  0  0  0  0
   -8.3728  -10.3635    3.6605 C   0  0  0  0  0  0  0  0  0  0  0  0
   -4.3190   -6.3642    1.6465 C   0  0  0  0  0  0  0  0  0  0  0  0
   -0.0879   -3.2346    1.6251 C   0  0  0  0  0  0  0  0  0  0  0  0
    1.2035   -3.8533    1.0691 C   0  0  0  0  0  0  0  0  0  0  0  0
    3.8305   -2.1079    1.2722 C   0  0  0  0  0  0  0  0  0  0  0  0
    2.6167   -1.7462    4.5682 H   0  0  0  0  0  0  0  0  0  0  0  0
    2.0298   -3.0091    3.5282 H   0  0  0  0  0  0  0  0  0  0  0  0
    1.6317   -1.2926    3.1852 H   0  0  0  0  0  0  0  0  0  0  0  0
    5.0717   -1.0212    4.1875 H   0  0  0  0  0  0  0  0  0  0  0  0
    6.6611   -0.9371    2.2374 H   0  0  0  0  0  0  0  0  0  0  0  0
    5.4795   -2.2212   -2.1203 H   0  0  0  0  0  0  0  0  0  0  0  0
    0.8376   -3.7636   -1.5472 H   0  0  0  0  0  0  0  0  0  0  0  0
    1.4223   -2.1290   -1.8356 H   0  0  0  0  0  0  0  0  0  0  0  0
   -1.0484   -2.1235   -1.5668 H   0  0  0  0  0  0  0  0  0  0  0  0
   -0.2014   -1.1257   -0.3898 H   0  0  0  0  0  0  0  0  0  0  0  0
   -1.6805   -1.0505    1.4454 H   0  0  0  0  0  0  0  0  0  0  0  0
   -2.6567   -2.3810    1.9954 H   0  0  0  0  0  0  0  0  0  0  0  0
   -3.6481   -3.1911   -0.9585 H   0  0  0  0  0  0  0  0  0  0  0  0
   -4.9035   -2.0060   -1.0318 H   0  0  0  0  0  0  0  0  0  0  0  0
   -4.7455   -2.9942    0.4320 H   0  0  0  0  0  0  0  0  0  0  0  0
   -3.5392    0.3476    1.3457 H   0  0  0  0  0  0  0  0  0  0  0  0
   -4.6682   -0.9546    1.7790 H   0  0  0  0  0  0  0  0  0  0  0  0
   -4.8837   -0.0324    0.2784 H   0  0  0  0  0  0  0  0  0  0  0  0
   -2.7290   -4.3868    1.8465 H   0  0  0  0  0  0  0  0  0  0  0  0
   -2.2337   -6.7116   -1.0318 H   0  0  0  0  0  0  0  0  0  0  0  0
   -3.7216   -8.5720   -1.4849 H   0  0  0  0  0  0  0  0  0  0  0  0
   -5.6239   -9.0556   -0.0154 H   0  0  0  0  0  0  0  0  0  0  0  0
   -7.9182   -6.9757    3.7012 H   0  0  0  0  0  0  0  0  0  0  0  0
   -8.2566   -8.0386    5.0875 H   0  0  0  0  0  0  0  0  0  0  0  0
   -9.4489   -7.8809    3.7711 H   0  0  0  0  0  0  0  0  0  0  0  0
   -7.9150  -11.1725    3.0853 H   0  0  0  0  0  0  0  0  0  0  0  0
   -9.4434  -10.3400    3.4356 H   0  0  0  0  0  0  0  0  0  0  0  0
   -8.2266  -10.5636    4.7259 H   0  0  0  0  0  0  0  0  0  0  0  0
   -4.5182   -5.7486    2.5191 H   0  0  0  0  0  0  0  0  0  0  0  0
   -0.5104   -3.9043    2.3817 H   0  0  0  0  0  0  0  0  0  0  0  0
    0.1532   -2.3010    2.1379 H   0  0  0  0  0  0  0  0  0  0  0  0
    0.9847   -4.7973    0.5508 H   0  0  0  0  0  0  0  0  0  0  0  0
    1.9036   -4.1282    1.8594 H   0  0  0  0  0  0  0  0  0  0  0  0
  1  2  1  0  0  0  0
  1 36  1  0  0  0  0
  1 37  1  0  0  0  0
  1 38  1  0  0  0  0
  2  3  2  0  0  0  0
  2 35  1  0  0  0  0
  3  4  1  0  0  0  0
  3 39  1  0  0  0  0
  4  5  1  0  0  0  0
  4 40  1  0  0  0  0
  5  6  1  0  0  0  0
  5 35  2  0  0  0  0
  6  7  2  0  0  0  0
  7  8  1  0  0  0  0
  7 41  1  0  0  0  0
  8  9  2  0  0  0  0
  9 10  1  0  0  0  0
  9 35  1  0  0  0  0
 10 11  1  0  0  0  0
 10 34  1  0  0  0  0
 11 12  1  0  0  0  0
 11 42  1  0  0  0  0
 11 43  1  0  0  0  0
 12 13  1  0  0  0  0
 12 44  1  0  0  0  0
 12 45  1  0  0  0  0
 13 14  1  0  0  0  0
 13 18  1  0  0  0  0
 13 33  1  0  0  0  0
 14 15  1  0  0  0  0
 14 46  1  0  0  0  0
 14 47  1  0  0  0  0
 15 16  1  0  0  0  0
 15 17  1  0  0  0  0
 16 48  1  0  0  0  0
 16 49  1  0  0  0  0
 16 50  1  0  0  0  0
 17 51  1  0  0  0  0
 17 52  1  0  0  0  0
 17 53  1  0  0  0  0
 18 19  2  0  0  0  0
 18 20  1  0  0  0  0
 20 21  1  0  0  0  0
 20 54  1  0  0  0  0
 21 22  1  0  0  0  0
 21 32  2  0  0  0  0
 22 23  2  0  0  0  0
 22 55  1  0  0  0  0
 23 24  1  0  0  0  0
 23 56  1  0  0  0  0
 24 25  2  0  0  0  0
 24 57  1  0  0  0  0
 25 26  1  0  0  0  0
 25 32  1  0  0  0  0
 26 27  1  0  0  0  0
 27 28  2  0  0  0  0
 27 29  1  0  0  0  0
 29 30  1  0  0  0  0
 29 31  1  0  0  0  0
 30 58  1  0  0  0  0
 30 59  1  0  0  0  0
 30 60  1  0  0  0  0
 31 61  1  0  0  0  0
 31 62  1  0  0  0  0
 31 63  1  0  0  0  0
 32 64  1  0  0  0  0
 33 34  1  0  0  0  0
 33 65  1  0  0  0  0
 33 66  1  0  0  0  0
 34 67  1  0  0  0  0
 34 68  1  0  0  0  0
M  END
$$$$
