
 OpenBabel01112422483D

 34 36  0  0  0  0  0  0  0  0999 V2000
    0.8623   -0.4599    0.3728 O   0  0  0  0  0  0  0  0  0  0  0  0
    2.2094    0.0782    0.3186 S   0  0  0  0  0  0  0  0  0  0  0  0
    2.5356    1.1330   -0.6171 O   0  0  0  0  0  0  0  0  0  0  0  0
    2.5812    0.6823    1.9532 C   0  0  0  0  0  0  0  0  0  0  0  0
    2.7611    2.0761    2.0658 C   0  0  0  0  0  0  0  0  0  0  0  0
    2.7958    2.6856    3.3150 C   0  0  0  0  0  0  0  0  0  0  0  0
    2.6673    1.9107    4.4603 C   0  0  0  0  0  0  0  0  0  0  0  0
    2.5539    0.5132    4.3713 C   0  0  0  0  0  0  0  0  0  0  0  0
    2.4741   -0.2645    5.5261 C   0  0  0  0  0  0  0  0  0  0  0  0
    2.4000   -1.6118    5.5422 N   0  0  0  0  0  0  0  0  0  0  0  0
    2.3729   -2.2198    4.3426 C   0  0  0  0  0  0  0  0  0  0  0  0
    2.4088   -1.5451    3.1291 C   0  0  0  0  0  0  0  0  0  0  0  0
    2.5137   -0.1380    3.1128 C   0  0  0  0  0  0  0  0  0  0  0  0
    3.2574   -1.2382   -0.0034 N   0  0  0  0  0  0  0  0  0  0  0  0
    4.7249   -0.9883    0.0110 C   0  0  0  0  0  0  0  0  0  0  0  0
    5.2221   -0.2632   -1.2558 C   0  0  0  0  0  0  0  0  0  0  0  0
    4.7800   -0.8320   -2.5409 N   0  0  0  0  0  0  0  0  0  0  0  0
    3.3534   -1.2013   -2.5246 C   0  0  0  0  0  0  0  0  0  0  0  0
    2.8986   -1.9709   -1.2655 C   0  0  0  0  0  0  0  0  0  0  0  0
    2.8201    2.7081    1.1793 H   0  0  0  0  0  0  0  0  0  0  0  0
    2.8887    3.7670    3.3936 H   0  0  0  0  0  0  0  0  0  0  0  0
    2.6509    2.4060    5.4301 H   0  0  0  0  0  0  0  0  0  0  0  0
    2.4759    0.1908    6.5140 H   0  0  0  0  0  0  0  0  0  0  0  0
    2.3244   -3.3044    4.3765 H   0  0  0  0  0  0  0  0  0  0  0  0
    2.3733   -2.1336    2.2193 H   0  0  0  0  0  0  0  0  0  0  0  0
    5.2195   -1.9677    0.0810 H   0  0  0  0  0  0  0  0  0  0  0  0
    5.0128   -0.4432    0.9146 H   0  0  0  0  0  0  0  0  0  0  0  0
    6.3190   -0.2776   -1.2475 H   0  0  0  0  0  0  0  0  0  0  0  0
    4.9420    0.7936   -1.2124 H   0  0  0  0  0  0  0  0  0  0  0  0
    5.3396   -1.6505   -2.7677 H   0  0  0  0  0  0  0  0  0  0  0  0
    3.1575   -1.8258   -3.4050 H   0  0  0  0  0  0  0  0  0  0  0  0
    2.7443   -0.3020   -2.6643 H   0  0  0  0  0  0  0  0  0  0  0  0
    3.3823   -2.9542   -1.2388 H   0  0  0  0  0  0  0  0  0  0  0  0
    1.8212   -2.1654   -1.3057 H   0  0  0  0  0  0  0  0  0  0  0  0
  1  2  2  0  0  0  0
  2  3  2  0  0  0  0
  2  4  1  0  0  0  0
  2 14  1  0  0  0  0
  4  5  1  0  0  0  0
  4 13  2  0  0  0  0
  5  6  2  0  0  0  0
  5 20  1  0  0  0  0
  6  7  1  0  0  0  0
  6 21  1  0  0  0  0
  7  8  2  0  0  0  0
  7 22  1  0  0  0  0
  8  9  1  0  0  0  0
  8 13  1  0  0  0  0
  9 10  2  0  0  0  0
  9 23  1  0  0  0  0
 10 11  1  0  0  0  0
 11 12  2  0  0  0  0
 11 24  1  0  0  0  0
 12 13  1  0  0  0  0
 12 25  1  0  0  0  0
 14 15  1  0  0  0  0
 14 19  1  0  0  0  0
 15 16  1  0  0  0  0
 15 26  1  0  0  0  0
 15 27  1  0  0  0  0
 16 17  1  0  0  0  0
 16 28  1  0  0  0  0
 16 29  1  0  0  0  0
 17 18  1  0  0  0  0
 17 30  1  0  0  0  0
 18 19  1  0  0  0  0
 18 31  1  0  0  0  0
 18 32  1  0  0  0  0
 19 33  1  0  0  0  0
 19 34  1  0  0  0  0
M  END
$$$$
