REMARK  Name = 
REMARK  6 active torsions:
REMARK  status: ('A' for Active; 'I' for Inactive)
REMARK    1  A    between atoms: O_1  and  C_2
REMARK    2  A    between atoms: C_7  and  O_8
REMARK    3  A    between atoms: C_9  and  O_10
REMARK    4  A    between atoms: N_13  and  C_14
REMARK    5  A    between atoms: C_14  and  C_15
REMARK    6  A    between atoms: C_23  and  O_24
REMARK                            x       y       z     vdW  Elec       q    Type
REMARK                         _______ _______ _______ _____ _____    ______ ____
ROOT
ATOM      1  C   UNL     1      -3.717   0.535  -0.743  0.00  0.00    +0.000 A 
ATOM      2  C   UNL     1      -3.059  -0.697  -0.728  0.00  0.00    +0.000 A 
ATOM      3  C   UNL     1      -1.648  -0.727  -0.662  0.00  0.00    +0.000 A 
ATOM      4  C   UNL     1      -0.690  -1.787  -0.627  0.00  0.00    +0.000 A 
ATOM      5  C   UNL     1      -0.805  -3.196  -0.686  0.00  0.00    +0.000 A 
ATOM      6  C   UNL     1       0.353  -3.967  -0.617  0.00  0.00    +0.000 A 
ATOM      7  C   UNL     1       1.598  -3.370  -0.466  0.00  0.00    +0.000 A 
ATOM      8  C   UNL     1       1.744  -1.988  -0.398  0.00  0.00    +0.000 A 
ATOM      9  C   UNL     1       0.578  -1.208  -0.507  0.00  0.00    +0.000 A 
ATOM     10  N   UNL     1       0.401   0.163  -0.553  0.00  0.00    +0.000 N 
ATOM     11  C   UNL     1      -0.947   0.480  -0.626  0.00  0.00    +0.000 A 
ATOM     12  C   UNL     1      -1.602   1.726  -0.664  0.00  0.00    +0.000 A 
ATOM     13  C   UNL     1      -2.999   1.726  -0.714  0.00  0.00    +0.000 A 
ATOM     14  H   UNL     1      -3.613  -1.628  -0.758  0.00  0.00    +0.000 HD
ATOM     15  H   UNL     1      -1.782  -3.651  -0.798  0.00  0.00    +0.000 HD
ATOM     16  H   UNL     1       2.727  -1.548  -0.275  0.00  0.00    +0.000 HD
ATOM     17  H   UNL     1      -1.042   2.652  -0.637  0.00  0.00    +0.000 HD
ENDROOT
BRANCH  10  18
ATOM     18  C   UNL     1       1.487   1.136  -0.678  0.00  0.00    +0.000 C 
ATOM     19  H   UNL     1       1.158   1.894  -1.399  0.00  0.00    +0.000 HD
ATOM     20  H   UNL     1       2.340   0.618  -1.132  0.00  0.00    +0.000 HD
BRANCH  18  21
ATOM     21  C   UNL     1       1.901   1.814   0.601  0.00  0.00    +0.000 A 
ATOM     22  C   UNL     1       1.093   1.946   1.735  0.00  0.00    +0.000 A 
ATOM     23  C   UNL     1       1.524   2.716   2.813  0.00  0.00    +0.000 A 
ATOM     24  C   UNL     1       2.759   3.332   2.730  0.00  0.00    +0.000 A 
ATOM     25  N   UNL     1       3.579   3.217   1.667  0.00  0.00    +0.000 NA
ATOM     26  C   UNL     1       3.134   2.466   0.635  0.00  0.00    +0.000 A 
ATOM     27  H   UNL     1       0.118   1.469   1.798  0.00  0.00    +0.000 HD
ATOM     28  H   UNL     1       0.901   2.842   3.692  0.00  0.00    +0.000 HD
ATOM     29  H   UNL     1       3.130   3.957   3.538  0.00  0.00    +0.000 HD
ATOM     30  H   UNL     1       3.822   2.417  -0.206  0.00  0.00    +0.000 HD
ENDBRANCH  18  21
ENDBRANCH  10  18
BRANCH   1  31
ATOM     31  O   UNL     1      -5.084   0.579  -0.782  0.00  0.00    +0.000 OA
ATOM     32  H   UNL     1      -5.432  -0.323  -0.728  0.00  0.00    +0.000 HD
ENDBRANCH   1  31
BRANCH   6  33
ATOM     33  O   UNL     1       0.311  -5.333  -0.698  0.00  0.00    +0.000 OA
ATOM     34  H   UNL     1      -0.615  -5.599  -0.831  0.00  0.00    +0.000 HD
ENDBRANCH   6  33
BRANCH   7  35
ATOM     35  O   UNL     1       2.718  -4.152  -0.395  0.00  0.00    +0.000 OA
ATOM     36  H   UNL     1       2.382  -5.066  -0.482  0.00  0.00    +0.000 HD
ENDBRANCH   7  35
BRANCH  13  37
ATOM     37  O   UNL     1      -3.679   2.913  -0.727  0.00  0.00    +0.000 OA
ATOM     38  H   UNL     1      -3.044   3.644  -0.693  0.00  0.00    +0.000 HD
ENDBRANCH  13  37
TORSDOF 6
