MODEL 1
REMARK VINA RESULT:   -10.440      0.000      0.000
REMARK INTER + INTRA:         -11.405
REMARK INTER:                 -11.660
REMARK INTRA:                   0.255
REMARK UNBOUND:                 0.255
REMARK  Name = 
REMARK  3 active torsions:
REMARK  status: ('A' for Active; 'I' for Inactive)
REMARK    1  A    between atoms: C_1  and  O_2
REMARK    2  A    between atoms: O_2  and  C_3
REMARK    3  A    between atoms: N_22  and  C_23
REMARK                            x       y       z     vdW  Elec       q    Type
REMARK                         _______ _______ _______ _____ _____    ______ ____
ROOT
ATOM      1  C   UNL     1      -9.075  -9.888  15.846  0.00  0.00    +0.000 A 
ATOM      2  C   UNL     1      -9.230  -8.604  15.361  0.00  0.00    +0.000 A 
ATOM      3  C   UNL     1      -9.376  -7.563  16.263  0.00  0.00    +0.000 A 
ATOM      4  C   UNL     1      -9.752  -6.330  15.717  0.00  0.00    +0.000 A 
ATOM      5  N   UNL     1      -9.703  -5.814  14.442  0.00  0.00    +0.000 N 
ATOM      6  C   UNL     1      -9.875  -4.438  14.481  0.00  0.00    +0.000 A 
ATOM      7  C   UNL     1      -9.629  -3.502  13.467  0.00  0.00    +0.000 A 
ATOM      8  C   UNL     1      -9.826  -2.156  13.774  0.00  0.00    +0.000 A 
ATOM      9  C   UNL     1     -10.283  -1.768  15.028  0.00  0.00    +0.000 A 
ATOM     10  C   UNL     1     -10.530  -2.718  16.027  0.00  0.00    +0.000 A 
ATOM     11  C   UNL     1     -10.293  -4.086  15.765  0.00  0.00    +0.000 A 
ATOM     12  C   UNL     1     -10.248  -5.292  16.455  0.00  0.00    +0.000 A 
ATOM     13  C   UNL     1     -10.141  -5.363  17.870  0.00  0.00    +0.000 A 
ATOM     14  C   UNL     1      -9.292  -6.425  18.335  0.00  0.00    +0.000 A 
ATOM     15  C   UNL     1      -9.157  -7.675  17.681  0.00  0.00    +0.000 A 
ATOM     16  C   UNL     1      -8.874  -9.005  18.156  0.00  0.00    +0.000 A 
ATOM     17  C   UNL     1      -8.947 -10.106  17.221  0.00  0.00    +0.000 A 
ATOM     18  C   UNL     1      -8.986 -11.299  17.990  0.00  0.00    +0.000 A 
ATOM     19  C   UNL     1      -8.353 -10.998  19.156  0.00  0.00    +0.000 A 
ATOM     20  N   UNL     1      -8.614  -9.660  19.369  0.00  0.00    +0.000 N 
ATOM     21  C   UNL     1      -8.374  -5.693  19.178  0.00  0.00    +0.000 C 
ATOM     22  O   UNL     1      -7.160  -5.779  19.343  0.00  0.00    +0.000 OA
ATOM     23  N   UNL     1      -9.086  -4.563  19.563  0.00  0.00    +0.000 N 
ATOM     24  C   UNL     1     -10.199  -4.322  18.844  0.00  0.00    +0.000 C 
ATOM     25  O   UNL     1     -10.937  -3.357  19.018  0.00  0.00    +0.000 OA
ATOM     26  H   UNL     1      -9.319  -8.467  14.290  0.00  0.00    +0.000 HD
ATOM     27  H   UNL     1      -9.344  -6.309  13.643  0.00  0.00    +0.000 HD
ATOM     28  H   UNL     1      -9.262  -3.804  12.492  0.00  0.00    +0.000 HD
ATOM     29  H   UNL     1      -9.614  -1.402  13.022  0.00  0.00    +0.000 HD
ATOM     30  H   UNL     1     -10.433  -0.714  15.249  0.00  0.00    +0.000 HD
ATOM     31  H   UNL     1     -10.875  -2.367  16.992  0.00  0.00    +0.000 HD
ATOM     32  H   UNL     1      -9.247 -12.293  17.664  0.00  0.00    +0.000 HD
ATOM     33  H   UNL     1      -7.971 -11.652  19.930  0.00  0.00    +0.000 HD
ATOM     34  H   UNL     1      -8.619  -3.764  19.952  0.00  0.00    +0.000 HD
ENDROOT
BRANCH  20  35
ATOM     35  C   UNL     1      -8.861  -9.281  20.741  0.00  0.00    +0.000 C 
ATOM     36  H   UNL     1      -9.286  -8.290  20.820  0.00  0.00    +0.000 HD
ATOM     37  H   UNL     1      -7.907  -9.341  21.288  0.00  0.00    +0.000 HD
ATOM     38  H   UNL     1      -9.523 -10.051  21.160  0.00  0.00    +0.000 HD
ENDBRANCH  20  35
BRANCH   1  39
ATOM     39  O   UNL     1      -9.111 -10.855  14.851  0.00  0.00    +0.000 OA
BRANCH  39  40
ATOM     40  C   UNL     1      -8.175 -11.915  14.991  0.00  0.00    +0.000 C 
ATOM     41  H   UNL     1      -7.946 -12.297  13.995  0.00  0.00    +0.000 HD
ATOM     42  H   UNL     1      -8.633 -12.737  15.550  0.00  0.00    +0.000 HD
ATOM     43  H   UNL     1      -7.231 -11.593  15.446  0.00  0.00    +0.000 HD
ENDBRANCH  39  40
ENDBRANCH   1  39
TORSDOF 3
ENDMDL
MODEL 2
REMARK VINA RESULT:    -8.905      2.120      7.021
REMARK INTER + INTRA:          -9.692
REMARK INTER:                  -9.585
REMARK INTRA:                  -0.107
REMARK UNBOUND:                 0.255
REMARK  Name = 
REMARK  3 active torsions:
REMARK  status: ('A' for Active; 'I' for Inactive)
REMARK    1  A    between atoms: C_1  and  O_2
REMARK    2  A    between atoms: O_2  and  C_3
REMARK    3  A    between atoms: N_22  and  C_23
REMARK                            x       y       z     vdW  Elec       q    Type
REMARK                         _______ _______ _______ _____ _____    ______ ____
ROOT
ATOM      1  C   UNL     1      -8.172  -4.366  20.803  0.00  0.00    +0.000 A 
ATOM      2  C   UNL     1      -8.090  -5.718  20.532  0.00  0.00    +0.000 A 
ATOM      3  C   UNL     1      -8.768  -6.221  19.432  0.00  0.00    +0.000 A 
ATOM      4  C   UNL     1      -8.833  -7.616  19.340  0.00  0.00    +0.000 A 
ATOM      5  N   UNL     1      -8.104  -8.629  19.918  0.00  0.00    +0.000 N 
ATOM      6  C   UNL     1      -8.334  -9.822  19.247  0.00  0.00    +0.000 A 
ATOM      7  C   UNL     1      -7.609 -11.018  19.324  0.00  0.00    +0.000 A 
ATOM      8  C   UNL     1      -8.010 -12.066  18.497  0.00  0.00    +0.000 A 
ATOM      9  C   UNL     1      -9.109 -11.935  17.657  0.00  0.00    +0.000 A 
ATOM     10  C   UNL     1      -9.827 -10.734  17.598  0.00  0.00    +0.000 A 
ATOM     11  C   UNL     1      -9.417  -9.635  18.385  0.00  0.00    +0.000 A 
ATOM     12  C   UNL     1      -9.708  -8.283  18.530  0.00  0.00    +0.000 A 
ATOM     13  C   UNL     1     -10.409  -7.540  17.542  0.00  0.00    +0.000 A 
ATOM     14  C   UNL     1      -9.916  -6.202  17.364  0.00  0.00    +0.000 A 
ATOM     15  C   UNL     1      -9.376  -5.411  18.410  0.00  0.00    +0.000 A 
ATOM     16  C   UNL     1      -9.343  -3.991  18.648  0.00  0.00    +0.000 A 
ATOM     17  C   UNL     1      -8.825  -3.512  19.911  0.00  0.00    +0.000 A 
ATOM     18  C   UNL     1      -9.230  -2.157  20.035  0.00  0.00    +0.000 A 
ATOM     19  C   UNL     1      -9.375  -1.704  18.761  0.00  0.00    +0.000 A 
ATOM     20  N   UNL     1      -9.776  -2.807  18.034  0.00  0.00    +0.000 N 
ATOM     21  C   UNL     1      -9.664  -6.189  15.940  0.00  0.00    +0.000 C 
ATOM     22  O   UNL     1      -8.749  -5.719  15.270  0.00  0.00    +0.000 OA
ATOM     23  N   UNL     1     -10.524  -7.155  15.431  0.00  0.00    +0.000 N 
ATOM     24  C   UNL     1     -11.053  -7.985  16.350  0.00  0.00    +0.000 C 
ATOM     25  O   UNL     1     -11.808  -8.916  16.085  0.00  0.00    +0.000 OA
ATOM     26  H   UNL     1      -7.571  -6.354  21.239  0.00  0.00    +0.000 HD
ATOM     27  H   UNL     1      -7.334  -8.486  20.551  0.00  0.00    +0.000 HD
ATOM     28  H   UNL     1      -6.745 -11.117  19.971  0.00  0.00    +0.000 HD
ATOM     29  H   UNL     1      -7.450 -12.998  18.508  0.00  0.00    +0.000 HD
ATOM     30  H   UNL     1      -9.408 -12.765  17.020  0.00  0.00    +0.000 HD
ATOM     31  H   UNL     1     -10.670 -10.675  16.920  0.00  0.00    +0.000 HD
ATOM     32  H   UNL     1      -9.215  -1.535  20.916  0.00  0.00    +0.000 HD
ATOM     33  H   UNL     1      -9.461  -0.692  18.386  0.00  0.00    +0.000 HD
ATOM     34  H   UNL     1     -10.395  -7.527  14.508  0.00  0.00    +0.000 HD
ENDROOT
BRANCH  20  35
ATOM     35  C   UNL     1     -10.767  -2.557  17.013  0.00  0.00    +0.000 C 
ATOM     36  H   UNL     1     -11.623  -2.021  17.398  0.00  0.00    +0.000 HD
ATOM     37  H   UNL     1     -11.072  -3.526  16.589  0.00  0.00    +0.000 HD
ATOM     38  H   UNL     1     -10.255  -2.002  16.215  0.00  0.00    +0.000 HD
ENDBRANCH  20  35
BRANCH   1  39
ATOM     39  O   UNL     1      -7.596  -4.018  22.017  0.00  0.00    +0.000 OA
BRANCH  39  40
ATOM     40  C   UNL     1      -6.232  -3.625  21.960  0.00  0.00    +0.000 C 
ATOM     41  H   UNL     1      -6.174  -2.569  22.227  0.00  0.00    +0.000 HD
ATOM     42  H   UNL     1      -5.867  -3.714  20.933  0.00  0.00    +0.000 HD
ATOM     43  H   UNL     1      -5.600  -4.178  22.663  0.00  0.00    +0.000 HD
ENDBRANCH  39  40
ENDBRANCH   1  39
TORSDOF 3
ENDMDL
MODEL 3
REMARK VINA RESULT:    -8.742      5.052      9.503
REMARK INTER + INTRA:          -9.509
REMARK INTER:                  -9.425
REMARK INTRA:                  -0.085
REMARK UNBOUND:                 0.255
REMARK  Name = 
REMARK  3 active torsions:
REMARK  status: ('A' for Active; 'I' for Inactive)
REMARK    1  A    between atoms: C_1  and  O_2
REMARK    2  A    between atoms: O_2  and  C_3
REMARK    3  A    between atoms: N_22  and  C_23
REMARK                            x       y       z     vdW  Elec       q    Type
REMARK                         _______ _______ _______ _____ _____    ______ ____
ROOT
ATOM      1  C   UNL     1      -8.916   0.531  23.816  0.00  0.00    +0.000 A 
ATOM      2  C   UNL     1      -8.092  -0.468  23.334  0.00  0.00    +0.000 A 
ATOM      3  C   UNL     1      -8.453  -1.125  22.168  0.00  0.00    +0.000 A 
ATOM      4  C   UNL     1      -7.707  -2.267  21.856  0.00  0.00    +0.000 A 
ATOM      5  N   UNL     1      -6.475  -2.725  22.265  0.00  0.00    +0.000 N 
ATOM      6  C   UNL     1      -6.035  -3.727  21.413  0.00  0.00    +0.000 A 
ATOM      7  C   UNL     1      -4.748  -4.268  21.299  0.00  0.00    +0.000 A 
ATOM      8  C   UNL     1      -4.542  -5.235  20.315  0.00  0.00    +0.000 A 
ATOM      9  C   UNL     1      -5.587  -5.667  19.507  0.00  0.00    +0.000 A 
ATOM     10  C   UNL     1      -6.869  -5.120  19.640  0.00  0.00    +0.000 A 
ATOM     11  C   UNL     1      -7.100  -4.102  20.592  0.00  0.00    +0.000 A 
ATOM     12  C   UNL     1      -8.104  -3.209  20.950  0.00  0.00    +0.000 A 
ATOM     13  C   UNL     1      -9.195  -2.899  20.093  0.00  0.00    +0.000 A 
ATOM     14  C   UNL     1      -9.587  -1.517  20.130  0.00  0.00    +0.000 A 
ATOM     15  C   UNL     1      -9.509  -0.703  21.288  0.00  0.00    +0.000 A 
ATOM     16  C   UNL     1     -10.283   0.421  21.749  0.00  0.00    +0.000 A 
ATOM     17  C   UNL     1     -10.023   0.946  23.072  0.00  0.00    +0.000 A 
ATOM     18  C   UNL     1     -11.124   1.776  23.410  0.00  0.00    +0.000 A 
ATOM     19  C   UNL     1     -11.622   2.217  22.223  0.00  0.00    +0.000 A 
ATOM     20  N   UNL     1     -11.377   1.194  21.331  0.00  0.00    +0.000 N 
ATOM     21  C   UNL     1      -9.523  -1.176  18.726  0.00  0.00    +0.000 C 
ATOM     22  O   UNL     1      -9.116  -0.178  18.139  0.00  0.00    +0.000 OA
ATOM     23  N   UNL     1      -9.708  -2.387  18.070  0.00  0.00    +0.000 N 
ATOM     24  C   UNL     1      -9.571  -3.479  18.845  0.00  0.00    +0.000 C 
ATOM     25  O   UNL     1      -9.668  -4.632  18.436  0.00  0.00    +0.000 OA
ATOM     26  H   UNL     1      -7.238  -0.763  23.931  0.00  0.00    +0.000 HD
ATOM     27  H   UNL     1      -5.876  -2.240  22.913  0.00  0.00    +0.000 HD
ATOM     28  H   UNL     1      -3.929  -3.924  21.922  0.00  0.00    +0.000 HD
ATOM     29  H   UNL     1      -3.548  -5.654  20.179  0.00  0.00    +0.000 HD
ATOM     30  H   UNL     1      -5.408  -6.424  18.747  0.00  0.00    +0.000 HD
ATOM     31  H   UNL     1      -7.650  -5.480  18.980  0.00  0.00    +0.000 HD
ATOM     32  H   UNL     1     -11.389   2.169  24.379  0.00  0.00    +0.000 HD
ATOM     33  H   UNL     1     -12.312   3.025  22.014  0.00  0.00    +0.000 HD
ATOM     34  H   UNL     1      -9.474  -2.490  17.099  0.00  0.00    +0.000 HD
ENDROOT
BRANCH  20  35
ATOM     35  C   UNL     1     -12.419   0.944  20.362  0.00  0.00    +0.000 C 
ATOM     36  H   UNL     1     -12.048   0.975  19.347  0.00  0.00    +0.000 HD
ATOM     37  H   UNL     1     -13.210   1.694  20.512  0.00  0.00    +0.000 HD
ATOM     38  H   UNL     1     -12.848  -0.035  20.617  0.00  0.00    +0.000 HD
ENDBRANCH  20  35
BRANCH   1  39
ATOM     39  O   UNL     1      -8.538   0.991  25.070  0.00  0.00    +0.000 OA
BRANCH  39  40
ATOM     40  C   UNL     1      -7.904   2.262  25.093  0.00  0.00    +0.000 C 
ATOM     41  H   UNL     1      -8.680   3.025  25.176  0.00  0.00    +0.000 HD
ATOM     42  H   UNL     1      -7.390   2.433  24.143  0.00  0.00    +0.000 HD
ATOM     43  H   UNL     1      -7.228   2.385  25.947  0.00  0.00    +0.000 HD
ENDBRANCH  39  40
ENDBRANCH   1  39
TORSDOF 3
ENDMDL
MODEL 4
REMARK VINA RESULT:    -8.668      4.528      7.465
REMARK INTER + INTRA:          -9.427
REMARK INTER:                  -9.328
REMARK INTRA:                  -0.099
REMARK UNBOUND:                 0.255
REMARK  Name = 
REMARK  3 active torsions:
REMARK  status: ('A' for Active; 'I' for Inactive)
REMARK    1  A    between atoms: C_1  and  O_2
REMARK    2  A    between atoms: O_2  and  C_3
REMARK    3  A    between atoms: N_22  and  C_23
REMARK                            x       y       z     vdW  Elec       q    Type
REMARK                         _______ _______ _______ _____ _____    ______ ____
ROOT
ATOM      1  C   UNL     1     -10.443  -2.849  18.200  0.00  0.00    +0.000 A 
ATOM      2  C   UNL     1     -10.348  -1.966  19.258  0.00  0.00    +0.000 A 
ATOM      3  C   UNL     1      -9.669  -2.363  20.399  0.00  0.00    +0.000 A 
ATOM      4  C   UNL     1      -9.800  -1.522  21.510  0.00  0.00    +0.000 A 
ATOM      5  N   UNL     1     -10.187  -0.209  21.653  0.00  0.00    +0.000 N 
ATOM      6  C   UNL     1      -9.823   0.259  22.908  0.00  0.00    +0.000 A 
ATOM      7  C   UNL     1      -9.780   1.583  23.363  0.00  0.00    +0.000 A 
ATOM      8  C   UNL     1      -9.319   1.801  24.661  0.00  0.00    +0.000 A 
ATOM      9  C   UNL     1      -8.952   0.738  25.478  0.00  0.00    +0.000 A 
ATOM     10  C   UNL     1      -9.009  -0.580  25.009  0.00  0.00    +0.000 A 
ATOM     11  C   UNL     1      -9.424  -0.832  23.681  0.00  0.00    +0.000 A 
ATOM     12  C   UNL     1      -9.483  -1.894  22.786  0.00  0.00    +0.000 A 
ATOM     13  C   UNL     1      -8.747  -3.095  22.972  0.00  0.00    +0.000 A 
ATOM     14  C   UNL     1      -8.214  -3.643  21.754  0.00  0.00    +0.000 A 
ATOM     15  C   UNL     1      -8.857  -3.546  20.494  0.00  0.00    +0.000 A 
ATOM     16  C   UNL     1      -8.870  -4.397  19.333  0.00  0.00    +0.000 A 
ATOM     17  C   UNL     1      -9.761  -4.068  18.242  0.00  0.00    +0.000 A 
ATOM     18  C   UNL     1      -9.845  -5.220  17.416  0.00  0.00    +0.000 A 
ATOM     19  C   UNL     1      -8.674  -5.886  17.603  0.00  0.00    +0.000 A 
ATOM     20  N   UNL     1      -8.312  -5.612  18.907  0.00  0.00    +0.000 N 
ATOM     21  C   UNL     1      -6.815  -3.765  22.097  0.00  0.00    +0.000 C 
ATOM     22  O   UNL     1      -5.789  -3.541  21.461  0.00  0.00    +0.000 OA
ATOM     23  N   UNL     1      -6.809  -3.870  23.483  0.00  0.00    +0.000 N 
ATOM     24  C   UNL     1      -7.963  -3.525  24.083  0.00  0.00    +0.000 C 
ATOM     25  O   UNL     1      -8.135  -3.525  25.299  0.00  0.00    +0.000 OA
ATOM     26  H   UNL     1     -10.883  -1.026  19.192  0.00  0.00    +0.000 HD
ATOM     27  H   UNL     1     -10.453   0.391  20.889  0.00  0.00    +0.000 HD
ATOM     28  H   UNL     1     -10.055   2.414  22.722  0.00  0.00    +0.000 HD
ATOM     29  H   UNL     1      -9.242   2.818  25.035  0.00  0.00    +0.000 HD
ATOM     30  H   UNL     1      -8.597   0.927  26.488  0.00  0.00    +0.000 HD
ATOM     31  H   UNL     1      -8.704  -1.375  25.678  0.00  0.00    +0.000 HD
ATOM     32  H   UNL     1     -10.560  -5.430  16.637  0.00  0.00    +0.000 HD
ATOM     33  H   UNL     1      -8.226  -6.685  17.026  0.00  0.00    +0.000 HD
ATOM     34  H   UNL     1      -5.966  -3.725  24.009  0.00  0.00    +0.000 HD
ENDROOT
BRANCH  20  35
ATOM     35  C   UNL     1      -7.723  -6.711  19.637  0.00  0.00    +0.000 C 
ATOM     36  H   UNL     1      -7.706  -6.529  20.703  0.00  0.00    +0.000 HD
ATOM     37  H   UNL     1      -6.704  -6.868  19.253  0.00  0.00    +0.000 HD
ATOM     38  H   UNL     1      -8.309  -7.603  19.378  0.00  0.00    +0.000 HD
ENDBRANCH  20  35
BRANCH   1  39
ATOM     39  O   UNL     1     -11.286  -2.403  17.192  0.00  0.00    +0.000 OA
BRANCH  39  40
ATOM     40  C   UNL     1     -11.495  -0.998  17.142  0.00  0.00    +0.000 C 
ATOM     41  H   UNL     1     -12.434  -0.815  16.618  0.00  0.00    +0.000 HD
ATOM     42  H   UNL     1     -10.703  -0.530  16.551  0.00  0.00    +0.000 HD
ATOM     43  H   UNL     1     -11.580  -0.546  18.137  0.00  0.00    +0.000 HD
ENDBRANCH  39  40
ENDBRANCH   1  39
TORSDOF 3
ENDMDL
MODEL 5
REMARK VINA RESULT:    -8.493      3.181      6.003
REMARK INTER + INTRA:          -9.231
REMARK INTER:                  -9.125
REMARK INTRA:                  -0.106
REMARK UNBOUND:                 0.255
REMARK  Name = 
REMARK  3 active torsions:
REMARK  status: ('A' for Active; 'I' for Inactive)
REMARK    1  A    between atoms: C_1  and  O_2
REMARK    2  A    between atoms: O_2  and  C_3
REMARK    3  A    between atoms: N_22  and  C_23
REMARK                            x       y       z     vdW  Elec       q    Type
REMARK                         _______ _______ _______ _____ _____    ______ ____
ROOT
ATOM      1  C   UNL     1      -8.251  -7.271  19.261  0.00  0.00    +0.000 A 
ATOM      2  C   UNL     1      -8.285  -6.327  20.270  0.00  0.00    +0.000 A 
ATOM      3  C   UNL     1      -8.715  -5.045  19.970  0.00  0.00    +0.000 A 
ATOM      4  C   UNL     1      -8.514  -4.084  20.968  0.00  0.00    +0.000 A 
ATOM      5  N   UNL     1      -8.277  -4.172  22.321  0.00  0.00    +0.000 N 
ATOM      6  C   UNL     1      -8.489  -2.939  22.921  0.00  0.00    +0.000 A 
ATOM      7  C   UNL     1      -8.625  -2.647  24.284  0.00  0.00    +0.000 A 
ATOM      8  C   UNL     1      -8.895  -1.325  24.634  0.00  0.00    +0.000 A 
ATOM      9  C   UNL     1      -8.987  -0.333  23.665  0.00  0.00    +0.000 A 
ATOM     10  C   UNL     1      -8.841  -0.642  22.306  0.00  0.00    +0.000 A 
ATOM     11  C   UNL     1      -8.618  -1.980  21.914  0.00  0.00    +0.000 A 
ATOM     12  C   UNL     1      -8.571  -2.737  20.748  0.00  0.00    +0.000 A 
ATOM     13  C   UNL     1      -9.110  -2.280  19.516  0.00  0.00    +0.000 A 
ATOM     14  C   UNL     1      -9.759  -3.308  18.749  0.00  0.00    +0.000 A 
ATOM     15  C   UNL     1      -9.346  -4.664  18.734  0.00  0.00    +0.000 A 
ATOM     16  C   UNL     1      -9.414  -5.698  17.734  0.00  0.00    +0.000 A 
ATOM     17  C   UNL     1      -8.758  -6.961  17.996  0.00  0.00    +0.000 A 
ATOM     18  C   UNL     1      -8.665  -7.643  16.755  0.00  0.00    +0.000 A 
ATOM     19  C   UNL     1      -9.697  -7.172  16.004  0.00  0.00    +0.000 A 
ATOM     20  N   UNL     1      -9.875  -5.868  16.420  0.00  0.00    +0.000 N 
ATOM     21  C   UNL     1     -11.059  -2.711  18.534  0.00  0.00    +0.000 C 
ATOM     22  O   UNL     1     -12.193  -3.179  18.558  0.00  0.00    +0.000 OA
ATOM     23  N   UNL     1     -10.827  -1.344  18.625  0.00  0.00    +0.000 N 
ATOM     24  C   UNL     1      -9.644  -1.003  19.169  0.00  0.00    +0.000 C 
ATOM     25  O   UNL     1      -9.279   0.153  19.357  0.00  0.00    +0.000 OA
ATOM     26  H   UNL     1      -7.890  -6.600  21.241  0.00  0.00    +0.000 HD
ATOM     27  H   UNL     1      -8.216  -5.038  22.832  0.00  0.00    +0.000 HD
ATOM     28  H   UNL     1      -8.564  -3.422  25.040  0.00  0.00    +0.000 HD
ATOM     29  H   UNL     1      -9.037  -1.068  25.680  0.00  0.00    +0.000 HD
ATOM     30  H   UNL     1      -9.196   0.694  23.956  0.00  0.00    +0.000 HD
ATOM     31  H   UNL     1      -8.932   0.163  21.586  0.00  0.00    +0.000 HD
ATOM     32  H   UNL     1      -8.064  -8.505  16.512  0.00  0.00    +0.000 HD
ATOM     33  H   UNL     1     -10.128  -7.560  15.090  0.00  0.00    +0.000 HD
ATOM     34  H   UNL     1     -11.586  -0.699  18.754  0.00  0.00    +0.000 HD
ENDROOT
BRANCH  20  35
ATOM     35  C   UNL     1     -10.196  -4.918  15.380  0.00  0.00    +0.000 C 
ATOM     36  H   UNL     1      -9.356  -4.730  14.727  0.00  0.00    +0.000 HD
ATOM     37  H   UNL     1     -10.531  -3.986  15.861  0.00  0.00    +0.000 HD
ATOM     38  H   UNL     1     -11.057  -5.332  14.839  0.00  0.00    +0.000 HD
ENDBRANCH  20  35
BRANCH   1  39
ATOM     39  O   UNL     1      -7.645  -8.458  19.646  0.00  0.00    +0.000 OA
BRANCH  39  40
ATOM     40  C   UNL     1      -8.490  -9.395  20.300  0.00  0.00    +0.000 C 
ATOM     41  H   UNL     1      -8.435 -10.338  19.754  0.00  0.00    +0.000 HD
ATOM     42  H   UNL     1      -9.527  -9.054  20.245  0.00  0.00    +0.000 HD
ATOM     43  H   UNL     1      -8.183  -9.595  21.333  0.00  0.00    +0.000 HD
ENDBRANCH  39  40
ENDBRANCH   1  39
TORSDOF 3
ENDMDL
MODEL 6
REMARK VINA RESULT:    -8.451      2.373      6.664
REMARK INTER + INTRA:          -9.185
REMARK INTER:                  -9.086
REMARK INTRA:                  -0.099
REMARK UNBOUND:                 0.255
REMARK  Name = 
REMARK  3 active torsions:
REMARK  status: ('A' for Active; 'I' for Inactive)
REMARK    1  A    between atoms: C_1  and  O_2
REMARK    2  A    between atoms: O_2  and  C_3
REMARK    3  A    between atoms: N_22  and  C_23
REMARK                            x       y       z     vdW  Elec       q    Type
REMARK                         _______ _______ _______ _____ _____    ______ ____
ROOT
ATOM      1  C   UNL     1     -11.942  -3.385  13.743  0.00  0.00    +0.000 A 
ATOM      2  C   UNL     1     -11.504  -4.523  14.391  0.00  0.00    +0.000 A 
ATOM      3  C   UNL     1     -10.927  -4.398  15.645  0.00  0.00    +0.000 A 
ATOM      4  C   UNL     1     -10.303  -5.545  16.148  0.00  0.00    +0.000 A 
ATOM      5  N   UNL     1     -10.400  -6.881  15.831  0.00  0.00    +0.000 N 
ATOM      6  C   UNL     1      -9.838  -7.649  16.841  0.00  0.00    +0.000 A 
ATOM      7  C   UNL     1      -9.960  -9.028  17.054  0.00  0.00    +0.000 A 
ATOM      8  C   UNL     1      -9.342  -9.561  18.185  0.00  0.00    +0.000 A 
ATOM      9  C   UNL     1      -8.603  -8.754  19.043  0.00  0.00    +0.000 A 
ATOM     10  C   UNL     1      -8.486  -7.378  18.810  0.00  0.00    +0.000 A 
ATOM     11  C   UNL     1      -9.142  -6.798  17.701  0.00  0.00    +0.000 A 
ATOM     12  C   UNL     1      -9.423  -5.535  17.192  0.00  0.00    +0.000 A 
ATOM     13  C   UNL     1      -9.324  -4.354  17.976  0.00  0.00    +0.000 A 
ATOM     14  C   UNL     1     -10.358  -3.392  17.709  0.00  0.00    +0.000 A 
ATOM     15  C   UNL     1     -10.946  -3.195  16.434  0.00  0.00    +0.000 A 
ATOM     16  C   UNL     1     -11.520  -2.043  15.787  0.00  0.00    +0.000 A 
ATOM     17  C   UNL     1     -11.911  -2.151  14.399  0.00  0.00    +0.000 A 
ATOM     18  C   UNL     1     -12.096  -0.828  13.918  0.00  0.00    +0.000 A 
ATOM     19  C   UNL     1     -12.427  -0.089  15.011  0.00  0.00    +0.000 A 
ATOM     20  N   UNL     1     -11.764  -0.689  16.062  0.00  0.00    +0.000 N 
ATOM     21  C   UNL     1     -10.886  -3.181  19.038  0.00  0.00    +0.000 C 
ATOM     22  O   UNL     1     -12.033  -3.051  19.457  0.00  0.00    +0.000 OA
ATOM     23  N   UNL     1      -9.829  -3.500  19.882  0.00  0.00    +0.000 N 
ATOM     24  C   UNL     1      -8.820  -4.173  19.298  0.00  0.00    +0.000 C 
ATOM     25  O   UNL     1      -7.819  -4.566  19.890  0.00  0.00    +0.000 OA
ATOM     26  H   UNL     1     -11.546  -5.466  13.859  0.00  0.00    +0.000 HD
ATOM     27  H   UNL     1     -11.006  -7.253  15.119  0.00  0.00    +0.000 HD
ATOM     28  H   UNL     1     -10.545  -9.657  16.391  0.00  0.00    +0.000 HD
ATOM     29  H   UNL     1      -9.442 -10.621  18.398  0.00  0.00    +0.000 HD
ATOM     30  H   UNL     1      -8.125  -9.187  19.919  0.00  0.00    +0.000 HD
ATOM     31  H   UNL     1      -7.909  -6.788  19.511  0.00  0.00    +0.000 HD
ATOM     32  H   UNL     1     -12.185  -0.497  12.896  0.00  0.00    +0.000 HD
ATOM     33  H   UNL     1     -12.856   0.903  15.078  0.00  0.00    +0.000 HD
ATOM     34  H   UNL     1      -9.982  -3.674  20.859  0.00  0.00    +0.000 HD
ENDROOT
BRANCH  20  35
ATOM     35  C   UNL     1     -11.210   0.209  17.048  0.00  0.00    +0.000 C 
ATOM     36  H   UNL     1     -10.185  -0.035  17.291  0.00  0.00    +0.000 HD
ATOM     37  H   UNL     1     -11.844   0.164  17.946  0.00  0.00    +0.000 HD
ATOM     38  H   UNL     1     -11.308   1.221  16.633  0.00  0.00    +0.000 HD
ENDBRANCH  20  35
BRANCH   1  39
ATOM     39  O   UNL     1     -12.340  -3.621  12.435  0.00  0.00    +0.000 OA
BRANCH  39  40
ATOM     40  C   UNL     1     -11.323  -3.491  11.450  0.00  0.00    +0.000 C 
ATOM     41  H   UNL     1     -10.379  -3.806  11.896  0.00  0.00    +0.000 HD
ATOM     42  H   UNL     1     -11.211  -2.438  11.177  0.00  0.00    +0.000 HD
ATOM     43  H   UNL     1     -11.500  -4.121  10.571  0.00  0.00    +0.000 HD
ENDBRANCH  39  40
ENDBRANCH   1  39
TORSDOF 3
ENDMDL
MODEL 7
REMARK VINA RESULT:    -8.305      4.558      8.667
REMARK INTER + INTRA:          -9.021
REMARK INTER:                  -8.916
REMARK INTRA:                  -0.106
REMARK UNBOUND:                 0.255
REMARK  Name = 
REMARK  3 active torsions:
REMARK  status: ('A' for Active; 'I' for Inactive)
REMARK    1  A    between atoms: C_1  and  O_2
REMARK    2  A    between atoms: O_2  and  C_3
REMARK    3  A    between atoms: N_22  and  C_23
REMARK                            x       y       z     vdW  Elec       q    Type
REMARK                         _______ _______ _______ _____ _____    ______ ____
ROOT
ATOM      1  C   UNL     1     -11.393   0.515  20.593  0.00  0.00    +0.000 A 
ATOM      2  C   UNL     1     -11.088  -0.740  20.104  0.00  0.00    +0.000 A 
ATOM      3  C   UNL     1     -10.065  -1.459  20.701  0.00  0.00    +0.000 A 
ATOM      4  C   UNL     1      -9.656  -2.615  20.025  0.00  0.00    +0.000 A 
ATOM      5  N   UNL     1     -10.248  -3.396  19.060  0.00  0.00    +0.000 N 
ATOM      6  C   UNL     1      -9.590  -4.614  18.965  0.00  0.00    +0.000 A 
ATOM      7  C   UNL     1     -10.013  -5.784  18.322  0.00  0.00    +0.000 A 
ATOM      8  C   UNL     1      -9.190  -6.905  18.421  0.00  0.00    +0.000 A 
ATOM      9  C   UNL     1      -7.980  -6.847  19.103  0.00  0.00    +0.000 A 
ATOM     10  C   UNL     1      -7.569  -5.666  19.734  0.00  0.00    +0.000 A 
ATOM     11  C   UNL     1      -8.403  -4.526  19.696  0.00  0.00    +0.000 A 
ATOM     12  C   UNL     1      -8.480  -3.264  20.274  0.00  0.00    +0.000 A 
ATOM     13  C   UNL     1      -7.751  -2.910  21.441  0.00  0.00    +0.000 A 
ATOM     14  C   UNL     1      -8.483  -2.070  22.350  0.00  0.00    +0.000 A 
ATOM     15  C   UNL     1      -9.431  -1.098  21.941  0.00  0.00    +0.000 A 
ATOM     16  C   UNL     1      -9.850   0.159  22.504  0.00  0.00    +0.000 A 
ATOM     17  C   UNL     1     -10.758   0.991  21.744  0.00  0.00    +0.000 A 
ATOM     18  C   UNL     1     -10.723   2.283  22.331  0.00  0.00    +0.000 A 
ATOM     19  C   UNL     1     -10.380   2.081  23.632  0.00  0.00    +0.000 A 
ATOM     20  N   UNL     1      -9.568   0.964  23.617  0.00  0.00    +0.000 N 
ATOM     21  C   UNL     1      -8.375  -2.831  23.575  0.00  0.00    +0.000 C 
ATOM     22  O   UNL     1      -9.182  -3.073  24.467  0.00  0.00    +0.000 OA
ATOM     23  N   UNL     1      -7.216  -3.581  23.411  0.00  0.00    +0.000 N 
ATOM     24  C   UNL     1      -6.750  -3.637  22.149  0.00  0.00    +0.000 C 
ATOM     25  O   UNL     1      -5.758  -4.275  21.809  0.00  0.00    +0.000 OA
ATOM     26  H   UNL     1     -11.602  -1.083  19.214  0.00  0.00    +0.000 HD
ATOM     27  H   UNL     1     -11.161  -3.224  18.670  0.00  0.00    +0.000 HD
ATOM     28  H   UNL     1     -10.962  -5.834  17.799  0.00  0.00    +0.000 HD
ATOM     29  H   UNL     1      -9.502  -7.839  17.961  0.00  0.00    +0.000 HD
ATOM     30  H   UNL     1      -7.349  -7.730  19.168  0.00  0.00    +0.000 HD
ATOM     31  H   UNL     1      -6.623  -5.671  20.262  0.00  0.00    +0.000 HD
ATOM     32  H   UNL     1     -11.097   3.209  21.925  0.00  0.00    +0.000 HD
ATOM     33  H   UNL     1     -10.443   2.749  24.481  0.00  0.00    +0.000 HD
ATOM     34  H   UNL     1      -7.025  -4.373  23.999  0.00  0.00    +0.000 HD
ENDROOT
BRANCH  20  35
ATOM     35  C   UNL     1      -8.444   0.996  24.524  0.00  0.00    +0.000 C 
ATOM     36  H   UNL     1      -8.709   1.409  25.487  0.00  0.00    +0.000 HD
ATOM     37  H   UNL     1      -7.643   1.587  24.054  0.00  0.00    +0.000 HD
ATOM     38  H   UNL     1      -8.081  -0.038  24.601  0.00  0.00    +0.000 HD
ENDBRANCH  20  35
BRANCH   1  39
ATOM     39  O   UNL     1     -12.312   1.198  19.809  0.00  0.00    +0.000 OA
BRANCH  39  40
ATOM     40  C   UNL     1     -12.027   1.232  18.417  0.00  0.00    +0.000 C 
ATOM     41  H   UNL     1     -12.706   1.948  17.951  0.00  0.00    +0.000 HD
ATOM     42  H   UNL     1     -12.241   0.255  17.975  0.00  0.00    +0.000 HD
ATOM     43  H   UNL     1     -11.004   1.560  18.201  0.00  0.00    +0.000 HD
ENDBRANCH  39  40
ENDBRANCH   1  39
TORSDOF 3
ENDMDL
MODEL 8
REMARK VINA RESULT:    -8.075      1.962      6.223
REMARK INTER + INTRA:          -8.765
REMARK INTER:                  -8.677
REMARK INTRA:                  -0.087
REMARK UNBOUND:                 0.255
REMARK  Name = 
REMARK  3 active torsions:
REMARK  status: ('A' for Active; 'I' for Inactive)
REMARK    1  A    between atoms: C_1  and  O_2
REMARK    2  A    between atoms: O_2  and  C_3
REMARK    3  A    between atoms: N_22  and  C_23
REMARK                            x       y       z     vdW  Elec       q    Type
REMARK                         _______ _______ _______ _____ _____    ______ ____
ROOT
ATOM      1  C   UNL     1      -9.966  -4.180  14.313  0.00  0.00    +0.000 A 
ATOM      2  C   UNL     1      -9.763  -5.546  14.305  0.00  0.00    +0.000 A 
ATOM      3  C   UNL     1      -9.659  -6.213  15.515  0.00  0.00    +0.000 A 
ATOM      4  C   UNL     1      -9.232  -7.544  15.445  0.00  0.00    +0.000 A 
ATOM      5  N   UNL     1      -9.193  -8.464  14.422  0.00  0.00    +0.000 N 
ATOM      6  C   UNL     1      -9.004  -9.738  14.937  0.00  0.00    +0.000 A 
ATOM      7  C   UNL     1      -9.172 -10.971  14.293  0.00  0.00    +0.000 A 
ATOM      8  C   UNL     1      -8.977 -12.124  15.051  0.00  0.00    +0.000 A 
ATOM      9  C   UNL     1      -8.594 -12.047  16.385  0.00  0.00    +0.000 A 
ATOM     10  C   UNL     1      -8.424 -10.806  17.011  0.00  0.00    +0.000 A 
ATOM     11  C   UNL     1      -8.663  -9.618  16.286  0.00  0.00    +0.000 A 
ATOM     12  C   UNL     1      -8.769  -8.251  16.518  0.00  0.00    +0.000 A 
ATOM     13  C   UNL     1      -8.966  -7.707  17.816  0.00  0.00    +0.000 A 
ATOM     14  C   UNL     1      -9.857  -6.580  17.843  0.00  0.00    +0.000 A 
ATOM     15  C   UNL     1      -9.969  -5.633  16.795  0.00  0.00    +0.000 A 
ATOM     16  C   UNL     1     -10.299  -4.232  16.771  0.00  0.00    +0.000 A 
ATOM     17  C   UNL     1     -10.183  -3.512  15.522  0.00  0.00    +0.000 A 
ATOM     18  C   UNL     1     -10.210  -2.129  15.838  0.00  0.00    +0.000 A 
ATOM     19  C   UNL     1     -10.911  -2.036  17.000  0.00  0.00    +0.000 A 
ATOM     20  N   UNL     1     -10.645  -3.212  17.672  0.00  0.00    +0.000 N 
ATOM     21  C   UNL     1     -10.817  -7.014  18.834  0.00  0.00    +0.000 C 
ATOM     22  O   UNL     1     -12.040  -6.919  18.893  0.00  0.00    +0.000 OA
ATOM     23  N   UNL     1     -10.114  -7.920  19.620  0.00  0.00    +0.000 N 
ATOM     24  C   UNL     1      -8.955  -8.352  19.088  0.00  0.00    +0.000 C 
ATOM     25  O   UNL     1      -8.216  -9.174  19.621  0.00  0.00    +0.000 OA
ATOM     26  H   UNL     1      -9.604  -6.036  13.352  0.00  0.00    +0.000 HD
ATOM     27  H   UNL     1      -9.508  -8.283  13.483  0.00  0.00    +0.000 HD
ATOM     28  H   UNL     1      -9.481 -11.032  13.255  0.00  0.00    +0.000 HD
ATOM     29  H   UNL     1      -9.130 -13.097  14.591  0.00  0.00    +0.000 HD
ATOM     30  H   UNL     1      -8.444 -12.958  16.960  0.00  0.00    +0.000 HD
ATOM     31  H   UNL     1      -8.135 -10.796  18.055  0.00  0.00    +0.000 HD
ATOM     32  H   UNL     1      -9.943  -1.296  15.207  0.00  0.00    +0.000 HD
ATOM     33  H   UNL     1     -11.350  -1.172  17.482  0.00  0.00    +0.000 HD
ATOM     34  H   UNL     1     -10.594  -8.554  20.233  0.00  0.00    +0.000 HD
ENDROOT
BRANCH  20  35
ATOM     35  C   UNL     1     -10.480  -3.093  19.102  0.00  0.00    +0.000 C 
ATOM     36  H   UNL     1      -9.464  -2.847  19.376  0.00  0.00    +0.000 HD
ATOM     37  H   UNL     1     -10.788  -4.045  19.561  0.00  0.00    +0.000 HD
ATOM     38  H   UNL     1     -11.196  -2.328  19.432  0.00  0.00    +0.000 HD
ENDBRANCH  20  35
BRANCH   1  39
ATOM     39  O   UNL     1      -9.881  -3.609  13.052  0.00  0.00    +0.000 OA
BRANCH  39  40
ATOM     40  C   UNL     1     -11.120  -3.241  12.459  0.00  0.00    +0.000 C 
ATOM     41  H   UNL     1     -11.426  -2.284  12.884  0.00  0.00    +0.000 HD
ATOM     42  H   UNL     1     -11.887  -3.971  12.731  0.00  0.00    +0.000 HD
ATOM     43  H   UNL     1     -11.050  -3.112  11.373  0.00  0.00    +0.000 HD
ENDBRANCH  39  40
ENDBRANCH   1  39
TORSDOF 3
ENDMDL
MODEL 9
REMARK VINA RESULT:    -7.837      5.244      9.053
REMARK INTER + INTRA:          -8.498
REMARK INTER:                  -8.397
REMARK INTRA:                  -0.101
REMARK UNBOUND:                 0.255
REMARK  Name = 
REMARK  3 active torsions:
REMARK  status: ('A' for Active; 'I' for Inactive)
REMARK    1  A    between atoms: C_1  and  O_2
REMARK    2  A    between atoms: O_2  and  C_3
REMARK    3  A    between atoms: N_22  and  C_23
REMARK                            x       y       z     vdW  Elec       q    Type
REMARK                         _______ _______ _______ _____ _____    ______ ____
ROOT
ATOM      1  C   UNL     1     -10.363  -2.785  18.336  0.00  0.00    +0.000 A 
ATOM      2  C   UNL     1     -10.043  -2.852  19.678  0.00  0.00    +0.000 A 
ATOM      3  C   UNL     1     -10.230  -1.727  20.465  0.00  0.00    +0.000 A 
ATOM      4  C   UNL     1      -9.681  -1.784  21.752  0.00  0.00    +0.000 A 
ATOM      5  N   UNL     1      -9.268  -2.826  22.550  0.00  0.00    +0.000 N 
ATOM      6  C   UNL     1      -9.120  -2.390  23.859  0.00  0.00    +0.000 A 
ATOM      7  C   UNL     1      -8.985  -3.160  25.022  0.00  0.00    +0.000 A 
ATOM      8  C   UNL     1      -8.910  -2.480  26.237  0.00  0.00    +0.000 A 
ATOM      9  C   UNL     1      -8.934  -1.091  26.283  0.00  0.00    +0.000 A 
ATOM     10  C   UNL     1      -9.063  -0.337  25.109  0.00  0.00    +0.000 A 
ATOM     11  C   UNL     1      -9.192  -0.996  23.866  0.00  0.00    +0.000 A 
ATOM     12  C   UNL     1      -9.482  -0.687  22.542  0.00  0.00    +0.000 A 
ATOM     13  C   UNL     1     -10.091   0.538  22.156  0.00  0.00    +0.000 A 
ATOM     14  C   UNL     1     -11.051   0.399  21.096  0.00  0.00    +0.000 A 
ATOM     15  C   UNL     1     -10.944  -0.550  20.048  0.00  0.00    +0.000 A 
ATOM     16  C   UNL     1     -11.379  -0.548  18.676  0.00  0.00    +0.000 A 
ATOM     17  C   UNL     1     -10.976  -1.641  17.819  0.00  0.00    +0.000 A 
ATOM     18  C   UNL     1     -11.218  -1.228  16.482  0.00  0.00    +0.000 A 
ATOM     19  C   UNL     1     -12.227  -0.319  16.560  0.00  0.00    +0.000 A 
ATOM     20  N   UNL     1     -12.059   0.296  17.784  0.00  0.00    +0.000 N 
ATOM     21  C   UNL     1     -12.211   1.023  21.693  0.00  0.00    +0.000 C 
ATOM     22  O   UNL     1     -13.403   0.728  21.681  0.00  0.00    +0.000 OA
ATOM     23  N   UNL     1     -11.683   1.899  22.634  0.00  0.00    +0.000 N 
ATOM     24  C   UNL     1     -10.386   1.696  22.934  0.00  0.00    +0.000 C 
ATOM     25  O   UNL     1      -9.759   2.350  23.762  0.00  0.00    +0.000 OA
ATOM     26  H   UNL     1      -9.574  -3.755  20.050  0.00  0.00    +0.000 HD
ATOM     27  H   UNL     1      -9.317  -3.797  22.288  0.00  0.00    +0.000 HD
ATOM     28  H   UNL     1      -8.977  -4.244  24.988  0.00  0.00    +0.000 HD
ATOM     29  H   UNL     1      -8.836  -3.047  27.161  0.00  0.00    +0.000 HD
ATOM     30  H   UNL     1      -8.872  -0.578  27.240  0.00  0.00    +0.000 HD
ATOM     31  H   UNL     1      -9.087   0.742  25.195  0.00  0.00    +0.000 HD
ATOM     32  H   UNL     1     -10.858  -1.679  15.570  0.00  0.00    +0.000 HD
ATOM     33  H   UNL     1     -12.863   0.085  15.783  0.00  0.00    +0.000 HD
ATOM     34  H   UNL     1     -12.258   2.287  23.360  0.00  0.00    +0.000 HD
ENDROOT
BRANCH  20  35
ATOM     35  C   UNL     1     -12.322   1.716  17.812  0.00  0.00    +0.000 C 
ATOM     36  H   UNL     1     -11.816   2.240  17.013  0.00  0.00    +0.000 HD
ATOM     37  H   UNL     1     -12.005   2.103  18.793  0.00  0.00    +0.000 HD
ATOM     38  H   UNL     1     -13.413   1.829  17.756  0.00  0.00    +0.000 HD
ENDBRANCH  20  35
BRANCH   1  39
ATOM     39  O   UNL     1      -9.973  -3.912  17.626  0.00  0.00    +0.000 OA
BRANCH  39  40
ATOM     40  C   UNL     1      -9.473  -4.989  18.408  0.00  0.00    +0.000 C 
ATOM     41  H   UNL     1      -9.617  -5.911  17.844  0.00  0.00    +0.000 HD
ATOM     42  H   UNL     1     -10.062  -5.080  19.325  0.00  0.00    +0.000 HD
ATOM     43  H   UNL     1      -8.402  -4.897  18.621  0.00  0.00    +0.000 HD
ENDBRANCH  39  40
ENDBRANCH   1  39
TORSDOF 3
ENDMDL
