MODEL 1
REMARK VINA RESULT:    -9.325      0.000      0.000
REMARK INTER + INTRA:         -10.182
REMARK INTER:                 -10.142
REMARK INTRA:                  -0.039
REMARK UNBOUND:                -0.039
REMARK  Name = 
REMARK  2 active torsions:
REMARK  status: ('A' for Active; 'I' for Inactive)
REMARK    1  A    between atoms: C_1  and  C_2
REMARK    2  A    between atoms: C_2  and  N_3
REMARK                            x       y       z     vdW  Elec       q    Type
REMARK                         _______ _______ _______ _____ _____    ______ ____
ROOT
ATOM      1  N   UNL     1      -8.906  -6.493  17.144  0.00  0.00    +0.000 NA
ATOM      2  C   UNL     1      -7.705  -6.799  17.975  0.00  0.00    +0.000 C 
ATOM      3  C   UNL     1      -7.472  -6.381  19.481  0.00  0.00    +0.000 C 
ATOM      4  O   UNL     1      -7.189  -4.988  19.732  0.00  0.00    +0.000 OA
ATOM      5  C   UNL     1      -6.738  -4.758  21.100  0.00  0.00    +0.000 C 
ATOM      6  C   UNL     1      -6.512  -3.256  21.393  0.00  0.00    +0.000 C 
ATOM      7  N   UNL     1      -7.351  -2.576  22.378  0.00  0.00    +0.000 N 
ATOM      8  C   UNL     1      -7.851  -1.320  22.133  0.00  0.00    +0.000 A 
ATOM      9  C   UNL     1      -8.587  -0.913  23.251  0.00  0.00    +0.000 A 
ATOM     10  C   UNL     1      -8.485  -1.927  24.212  0.00  0.00    +0.000 A 
ATOM     11  C   UNL     1      -9.041  -2.085  25.510  0.00  0.00    +0.000 A 
ATOM     12  C   UNL     1      -8.699  -3.191  26.281  0.00  0.00    +0.000 A 
ATOM     13  C   UNL     1      -7.820  -4.139  25.780  0.00  0.00    +0.000 A 
ATOM     14  C   UNL     1      -7.265  -4.044  24.499  0.00  0.00    +0.000 A 
ATOM     15  C   UNL     1      -7.644  -2.941  23.698  0.00  0.00    +0.000 A 
ATOM     16  C   UNL     1      -9.327   0.298  23.326  0.00  0.00    +0.000 C 
ATOM     17  C   UNL     1     -10.214   0.786  22.445  0.00  0.00    +0.000 C 
ATOM     18  C   UNL     1     -10.724   2.067  22.969  0.00  0.00    +0.000 C 
ATOM     19  O   UNL     1     -11.537   2.795  22.428  0.00  0.00    +0.000 OA
ATOM     20  N   UNL     1     -10.127   2.277  24.159  0.00  0.00    +0.000 N 
ATOM     21  C   UNL     1      -9.280   1.272  24.447  0.00  0.00    +0.000 C 
ATOM     22  O   UNL     1      -8.601   1.193  25.466  0.00  0.00    +0.000 OA
ATOM     23  C   UNL     1     -10.668   0.206  21.233  0.00  0.00    +0.000 A 
ATOM     24  C   UNL     1     -11.293  -1.014  21.155  0.00  0.00    +0.000 A 
ATOM     25  N   UNL     1     -11.521  -1.294  19.828  0.00  0.00    +0.000 N 
ATOM     26  C   UNL     1     -11.079  -0.243  19.042  0.00  0.00    +0.000 A 
ATOM     27  C   UNL     1     -11.074  -0.028  17.649  0.00  0.00    +0.000 A 
ATOM     28  C   UNL     1     -10.489   1.131  17.142  0.00  0.00    +0.000 A 
ATOM     29  C   UNL     1      -9.948   2.084  17.988  0.00  0.00    +0.000 A 
ATOM     30  C   UNL     1      -9.971   1.892  19.370  0.00  0.00    +0.000 A 
ATOM     31  C   UNL     1     -10.532   0.713  19.913  0.00  0.00    +0.000 A 
ATOM     32  C   UNL     1     -12.058  -2.582  19.425  0.00  0.00    +0.000 C 
ATOM     33  C   UNL     1     -11.569  -3.107  18.091  0.00  0.00    +0.000 C 
ATOM     34  O   UNL     1     -11.727  -4.523  18.064  0.00  0.00    +0.000 OA
ATOM     35  C   UNL     1     -10.844  -5.111  17.118  0.00  0.00    +0.000 C 
ATOM     36  C   UNL     1     -10.199  -6.345  17.758  0.00  0.00    +0.000 C 
ATOM     37  H   UNL     1      -6.841  -6.408  17.419  0.00  0.00    +0.000 HD
ATOM     38  H   UNL     1      -7.595  -7.893  17.984  0.00  0.00    +0.000 HD
ATOM     39  H   UNL     1      -6.593  -6.950  19.815  0.00  0.00    +0.000 HD
ATOM     40  H   UNL     1      -8.313  -6.698  20.105  0.00  0.00    +0.000 HD
ATOM     41  H   UNL     1      -5.765  -5.258  21.212  0.00  0.00    +0.000 HD
ATOM     42  H   UNL     1      -7.442  -5.214  21.801  0.00  0.00    +0.000 HD
ATOM     43  H   UNL     1      -6.640  -2.701  20.454  0.00  0.00    +0.000 HD
ATOM     44  H   UNL     1      -5.483  -3.081  21.731  0.00  0.00    +0.000 HD
ATOM     45  H   UNL     1      -7.690  -0.827  21.203  0.00  0.00    +0.000 HD
ATOM     46  H   UNL     1      -9.690  -1.322  25.916  0.00  0.00    +0.000 HD
ATOM     47  H   UNL     1      -9.118  -3.279  27.280  0.00  0.00    +0.000 HD
ATOM     48  H   UNL     1      -7.541  -4.975  26.416  0.00  0.00    +0.000 HD
ATOM     49  H   UNL     1      -6.578  -4.806  24.133  0.00  0.00    +0.000 HD
ATOM     50  H   UNL     1     -10.299   3.065  24.765  0.00  0.00    +0.000 HD
ATOM     51  H   UNL     1     -11.554  -1.733  21.922  0.00  0.00    +0.000 HD
ATOM     52  H   UNL     1     -11.492  -0.741  16.950  0.00  0.00    +0.000 HD
ATOM     53  H   UNL     1     -10.458   1.289  16.063  0.00  0.00    +0.000 HD
ATOM     54  H   UNL     1      -9.506   2.989  17.579  0.00  0.00    +0.000 HD
ATOM     55  H   UNL     1      -9.566   2.654  20.028  0.00  0.00    +0.000 HD
ATOM     56  H   UNL     1     -13.148  -2.515  19.456  0.00  0.00    +0.000 HD
ATOM     57  H   UNL     1     -11.764  -3.303  20.202  0.00  0.00    +0.000 HD
ATOM     58  H   UNL     1     -10.513  -2.838  17.964  0.00  0.00    +0.000 HD
ATOM     59  H   UNL     1     -12.158  -2.697  17.267  0.00  0.00    +0.000 HD
ATOM     60  H   UNL     1     -10.058  -4.402  16.809  0.00  0.00    +0.000 HD
ATOM     61  H   UNL     1     -11.402  -5.364  16.212  0.00  0.00    +0.000 HD
ATOM     62  H   UNL     1     -10.830  -7.227  17.607  0.00  0.00    +0.000 HD
ATOM     63  H   UNL     1     -10.129  -6.196  18.841  0.00  0.00    +0.000 HD
ENDROOT
BRANCH   1  64
ATOM     64  C   UNL     1      -8.895  -7.186  15.845  0.00  0.00    +0.000 C 
ATOM     65  H   UNL     1      -7.896  -7.007  15.447  0.00  0.00    +0.000 HD
ATOM     66  H   UNL     1      -9.717  -6.696  15.326  0.00  0.00    +0.000 HD
BRANCH  64  67
ATOM     67  C   UNL     1      -9.103  -8.649  15.405  0.00  0.00    +0.000 C 
ATOM     68  H   UNL     1      -8.311  -9.011  14.739  0.00  0.00    +0.000 HD
ATOM     69  H   UNL     1     -10.015  -8.653  14.780  0.00  0.00    +0.000 HD
ATOM     70  H   UNL     1      -9.279  -9.363  16.209  0.00  0.00    +0.000 HD
ENDBRANCH  64  67
ENDBRANCH   1  64
TORSDOF 2
ENDMDL
MODEL 2
REMARK VINA RESULT:    -8.903      1.862      2.573
REMARK INTER + INTRA:          -9.723
REMARK INTER:                  -9.677
REMARK INTRA:                  -0.046
REMARK UNBOUND:                -0.039
REMARK  Name = 
REMARK  2 active torsions:
REMARK  status: ('A' for Active; 'I' for Inactive)
REMARK    1  A    between atoms: C_1  and  C_2
REMARK    2  A    between atoms: C_2  and  N_3
REMARK                            x       y       z     vdW  Elec       q    Type
REMARK                         _______ _______ _______ _____ _____    ______ ____
ROOT
ATOM      1  N   UNL     1      -9.162  -8.113  17.396  0.00  0.00    +0.000 NA
ATOM      2  C   UNL     1      -8.216  -8.139  18.549  0.00  0.00    +0.000 C 
ATOM      3  C   UNL     1      -8.276  -7.224  19.836  0.00  0.00    +0.000 C 
ATOM      4  O   UNL     1      -7.902  -5.840  19.667  0.00  0.00    +0.000 OA
ATOM      5  C   UNL     1      -7.743  -5.155  20.945  0.00  0.00    +0.000 C 
ATOM      6  C   UNL     1      -7.422  -3.652  20.763  0.00  0.00    +0.000 C 
ATOM      7  N   UNL     1      -8.377  -2.647  21.225  0.00  0.00    +0.000 N 
ATOM      8  C   UNL     1      -8.668  -1.544  20.458  0.00  0.00    +0.000 A 
ATOM      9  C   UNL     1      -9.583  -0.750  21.158  0.00  0.00    +0.000 A 
ATOM     10  C   UNL     1      -9.808  -1.364  22.397  0.00  0.00    +0.000 A 
ATOM     11  C   UNL     1     -10.652  -1.040  23.494  0.00  0.00    +0.000 A 
ATOM     12  C   UNL     1     -10.612  -1.812  24.650  0.00  0.00    +0.000 A 
ATOM     13  C   UNL     1      -9.756  -2.899  24.728  0.00  0.00    +0.000 A 
ATOM     14  C   UNL     1      -8.924  -3.276  23.667  0.00  0.00    +0.000 A 
ATOM     15  C   UNL     1      -8.992  -2.516  22.476  0.00  0.00    +0.000 A 
ATOM     16  C   UNL     1     -10.182   0.429  20.638  0.00  0.00    +0.000 C 
ATOM     17  C   UNL     1     -10.793   0.598  19.455  0.00  0.00    +0.000 C 
ATOM     18  C   UNL     1     -11.260   1.996  19.377  0.00  0.00    +0.000 C 
ATOM     19  O   UNL     1     -11.849   2.508  18.441  0.00  0.00    +0.000 OA
ATOM     20  N   UNL     1     -10.922   2.595  20.535  0.00  0.00    +0.000 N 
ATOM     21  C   UNL     1     -10.276   1.734  21.342  0.00  0.00    +0.000 C 
ATOM     22  O   UNL     1      -9.852   2.001  22.463  0.00  0.00    +0.000 OA
ATOM     23  C   UNL     1     -11.030  -0.359  18.436  0.00  0.00    +0.000 A 
ATOM     24  C   UNL     1     -11.753  -1.511  18.620  0.00  0.00    +0.000 A 
ATOM     25  N   UNL     1     -11.712  -2.234  17.451  0.00  0.00    +0.000 N 
ATOM     26  C   UNL     1     -10.994  -1.539  16.493  0.00  0.00    +0.000 A 
ATOM     27  C   UNL     1     -10.657  -1.829  15.155  0.00  0.00    +0.000 A 
ATOM     28  C   UNL     1      -9.850  -0.939  14.449  0.00  0.00    +0.000 A 
ATOM     29  C   UNL     1      -9.407   0.236  15.032  0.00  0.00    +0.000 A 
ATOM     30  C   UNL     1      -9.756   0.544  16.348  0.00  0.00    +0.000 A 
ATOM     31  C   UNL     1     -10.550  -0.353  17.098  0.00  0.00    +0.000 A 
ATOM     32  C   UNL     1     -12.286  -3.567  17.385  0.00  0.00    +0.000 C 
ATOM     33  C   UNL     1     -11.577  -4.541  16.468  0.00  0.00    +0.000 C 
ATOM     34  O   UNL     1     -11.881  -5.870  16.879  0.00  0.00    +0.000 OA
ATOM     35  C   UNL     1     -10.881  -6.778  16.433  0.00  0.00    +0.000 C 
ATOM     36  C   UNL     1     -10.534  -7.723  17.587  0.00  0.00    +0.000 C 
ATOM     37  H   UNL     1      -7.212  -7.992  18.125  0.00  0.00    +0.000 HD
ATOM     38  H   UNL     1      -8.232  -9.162  18.952  0.00  0.00    +0.000 HD
ATOM     39  H   UNL     1      -7.561  -7.662  20.547  0.00  0.00    +0.000 HD
ATOM     40  H   UNL     1      -9.264  -7.278  20.303  0.00  0.00    +0.000 HD
ATOM     41  H   UNL     1      -6.880  -5.610  21.454  0.00  0.00    +0.000 HD
ATOM     42  H   UNL     1      -8.630  -5.316  21.563  0.00  0.00    +0.000 HD
ATOM     43  H   UNL     1      -7.277  -3.461  19.691  0.00  0.00    +0.000 HD
ATOM     44  H   UNL     1      -6.480  -3.397  21.265  0.00  0.00    +0.000 HD
ATOM     45  H   UNL     1      -8.252  -1.416  19.486  0.00  0.00    +0.000 HD
ATOM     46  H   UNL     1     -11.285  -0.166  23.448  0.00  0.00    +0.000 HD
ATOM     47  H   UNL     1     -11.249  -1.531  25.485  0.00  0.00    +0.000 HD
ATOM     48  H   UNL     1      -9.718  -3.464  25.656  0.00  0.00    +0.000 HD
ATOM     49  H   UNL     1      -8.263  -4.137  23.759  0.00  0.00    +0.000 HD
ATOM     50  H   UNL     1     -11.135   3.550  20.781  0.00  0.00    +0.000 HD
ATOM     51  H   UNL     1     -12.255  -1.906  19.495  0.00  0.00    +0.000 HD
ATOM     52  H   UNL     1     -10.987  -2.731  14.656  0.00  0.00    +0.000 HD
ATOM     53  H   UNL     1      -9.564  -1.172  13.422  0.00  0.00    +0.000 HD
ATOM     54  H   UNL     1      -8.788   0.928  14.465  0.00  0.00    +0.000 HD
ATOM     55  H   UNL     1      -9.424   1.478  16.790  0.00  0.00    +0.000 HD
ATOM     56  H   UNL     1     -13.342  -3.463  17.123  0.00  0.00    +0.000 HD
ATOM     57  H   UNL     1     -12.253  -3.975  18.406  0.00  0.00    +0.000 HD
ATOM     58  H   UNL     1     -10.495  -4.362  16.521  0.00  0.00    +0.000 HD
ATOM     59  H   UNL     1     -11.919  -4.431  15.436  0.00  0.00    +0.000 HD
ATOM     60  H   UNL     1      -9.973  -6.244  16.107  0.00  0.00    +0.000 HD
ATOM     61  H   UNL     1     -11.250  -7.318  15.556  0.00  0.00    +0.000 HD
ATOM     62  H   UNL     1     -11.210  -8.585  17.590  0.00  0.00    +0.000 HD
ATOM     63  H   UNL     1     -10.689  -7.205  18.539  0.00  0.00    +0.000 HD
ENDROOT
BRANCH   1  64
ATOM     64  C   UNL     1      -8.941  -9.219  16.450  0.00  0.00    +0.000 C 
ATOM     65  H   UNL     1      -7.860  -9.362  16.442  0.00  0.00    +0.000 HD
ATOM     66  H   UNL     1      -9.382  -8.821  15.538  0.00  0.00    +0.000 HD
BRANCH  64  67
ATOM     67  C   UNL     1      -9.409 -10.687  16.383  0.00  0.00    +0.000 C 
ATOM     68  H   UNL     1      -8.577 -11.401  16.393  0.00  0.00    +0.000 HD
ATOM     69  H   UNL     1      -9.872 -10.815  15.387  0.00  0.00    +0.000 HD
ATOM     70  H   UNL     1     -10.165 -10.974  17.113  0.00  0.00    +0.000 HD
ENDBRANCH  64  67
ENDBRANCH   1  64
TORSDOF 2
ENDMDL
MODEL 3
REMARK VINA RESULT:    -8.872      0.757      5.684
REMARK INTER + INTRA:          -9.689
REMARK INTER:                  -9.663
REMARK INTRA:                  -0.026
REMARK UNBOUND:                -0.039
REMARK  Name = 
REMARK  2 active torsions:
REMARK  status: ('A' for Active; 'I' for Inactive)
REMARK    1  A    between atoms: C_1  and  C_2
REMARK    2  A    between atoms: C_2  and  N_3
REMARK                            x       y       z     vdW  Elec       q    Type
REMARK                         _______ _______ _______ _____ _____    ______ ____
ROOT
ATOM      1  N   UNL     1      -8.860  -7.097  18.434  0.00  0.00    +0.000 NA
ATOM      2  C   UNL     1     -10.129  -6.652  17.787  0.00  0.00    +0.000 C 
ATOM      3  C   UNL     1     -10.626  -5.161  17.620  0.00  0.00    +0.000 C 
ATOM      4  O   UNL     1     -11.097  -4.496  18.812  0.00  0.00    +0.000 OA
ATOM      5  C   UNL     1     -11.767  -3.236  18.508  0.00  0.00    +0.000 C 
ATOM      6  C   UNL     1     -12.200  -2.485  19.789  0.00  0.00    +0.000 C 
ATOM      7  N   UNL     1     -11.596  -1.193  20.110  0.00  0.00    +0.000 N 
ATOM      8  C   UNL     1     -11.209  -0.893  21.394  0.00  0.00    +0.000 A 
ATOM      9  C   UNL     1     -10.696   0.408  21.407  0.00  0.00    +0.000 A 
ATOM     10  C   UNL     1     -10.824   0.922  20.110  0.00  0.00    +0.000 A 
ATOM     11  C   UNL     1     -10.451   2.161  19.522  0.00  0.00    +0.000 A 
ATOM     12  C   UNL     1     -10.778   2.426  18.197  0.00  0.00    +0.000 A 
ATOM     13  C   UNL     1     -11.461   1.480  17.450  0.00  0.00    +0.000 A 
ATOM     14  C   UNL     1     -11.829   0.234  17.972  0.00  0.00    +0.000 A 
ATOM     15  C   UNL     1     -11.462  -0.053  19.308  0.00  0.00    +0.000 A 
ATOM     16  C   UNL     1     -10.115   1.029  22.545  0.00  0.00    +0.000 C 
ATOM     17  C   UNL     1      -9.167   0.544  23.364  0.00  0.00    +0.000 C 
ATOM     18  C   UNL     1      -8.887   1.562  24.394  0.00  0.00    +0.000 C 
ATOM     19  O   UNL     1      -8.089   1.461  25.309  0.00  0.00    +0.000 OA
ATOM     20  N   UNL     1      -9.672   2.625  24.129  0.00  0.00    +0.000 N 
ATOM     21  C   UNL     1     -10.435   2.391  23.045  0.00  0.00    +0.000 C 
ATOM     22  O   UNL     1     -11.243   3.182  22.568  0.00  0.00    +0.000 OA
ATOM     23  C   UNL     1      -8.478  -0.692  23.284  0.00  0.00    +0.000 A 
ATOM     24  C   UNL     1      -7.717  -1.078  22.209  0.00  0.00    +0.000 A 
ATOM     25  N   UNL     1      -7.265  -2.356  22.440  0.00  0.00    +0.000 N 
ATOM     26  C   UNL     1      -7.702  -2.793  23.680  0.00  0.00    +0.000 A 
ATOM     27  C   UNL     1      -7.526  -4.002  24.382  0.00  0.00    +0.000 A 
ATOM     28  C   UNL     1      -8.155  -4.170  25.615  0.00  0.00    +0.000 A 
ATOM     29  C   UNL     1      -8.918  -3.156  26.168  0.00  0.00    +0.000 A 
ATOM     30  C   UNL     1      -9.077  -1.946  25.491  0.00  0.00    +0.000 A 
ATOM     31  C   UNL     1      -8.474  -1.756  24.227  0.00  0.00    +0.000 A 
ATOM     32  C   UNL     1      -6.535  -3.079  21.414  0.00  0.00    +0.000 C 
ATOM     33  C   UNL     1      -6.760  -4.577  21.381  0.00  0.00    +0.000 C 
ATOM     34  O   UNL     1      -6.443  -5.066  20.082  0.00  0.00    +0.000 OA
ATOM     35  C   UNL     1      -7.107  -6.298  19.830  0.00  0.00    +0.000 C 
ATOM     36  C   UNL     1      -7.697  -6.251  18.417  0.00  0.00    +0.000 C 
ATOM     37  H   UNL     1     -10.940  -7.181  18.307  0.00  0.00    +0.000 HD
ATOM     38  H   UNL     1     -10.117  -7.043  16.759  0.00  0.00    +0.000 HD
ATOM     39  H   UNL     1     -11.476  -5.207  16.924  0.00  0.00    +0.000 HD
ATOM     40  H   UNL     1      -9.856  -4.548  17.143  0.00  0.00    +0.000 HD
ATOM     41  H   UNL     1     -12.684  -3.480  17.952  0.00  0.00    +0.000 HD
ATOM     42  H   UNL     1     -11.128  -2.624  17.867  0.00  0.00    +0.000 HD
ATOM     43  H   UNL     1     -11.997  -3.134  20.652  0.00  0.00    +0.000 HD
ATOM     44  H   UNL     1     -13.280  -2.296  19.777  0.00  0.00    +0.000 HD
ATOM     45  H   UNL     1     -11.285  -1.608  22.180  0.00  0.00    +0.000 HD
ATOM     46  H   UNL     1      -9.959   2.914  20.120  0.00  0.00    +0.000 HD
ATOM     47  H   UNL     1     -10.503   3.390  17.776  0.00  0.00    +0.000 HD
ATOM     48  H   UNL     1     -11.737   1.725  16.428  0.00  0.00    +0.000 HD
ATOM     49  H   UNL     1     -12.365  -0.489  17.359  0.00  0.00    +0.000 HD
ATOM     50  H   UNL     1      -9.679   3.488  24.652  0.00  0.00    +0.000 HD
ATOM     51  H   UNL     1      -7.492  -0.575  21.276  0.00  0.00    +0.000 HD
ATOM     52  H   UNL     1      -6.932  -4.819  23.992  0.00  0.00    +0.000 HD
ATOM     53  H   UNL     1      -8.044  -5.114  26.150  0.00  0.00    +0.000 HD
ATOM     54  H   UNL     1      -9.393  -3.296  27.136  0.00  0.00    +0.000 HD
ATOM     55  H   UNL     1      -9.657  -1.147  25.942  0.00  0.00    +0.000 HD
ATOM     56  H   UNL     1      -5.476  -2.834  21.522  0.00  0.00    +0.000 HD
ATOM     57  H   UNL     1      -6.858  -2.666  20.447  0.00  0.00    +0.000 HD
ATOM     58  H   UNL     1      -7.810  -4.788  21.623  0.00  0.00    +0.000 HD
ATOM     59  H   UNL     1      -6.107  -5.089  22.091  0.00  0.00    +0.000 HD
ATOM     60  H   UNL     1      -7.912  -6.475  20.561  0.00  0.00    +0.000 HD
ATOM     61  H   UNL     1      -6.396  -7.121  19.951  0.00  0.00    +0.000 HD
ATOM     62  H   UNL     1      -6.956  -6.585  17.683  0.00  0.00    +0.000 HD
ATOM     63  H   UNL     1      -7.941  -5.215  18.161  0.00  0.00    +0.000 HD
ENDROOT
BRANCH   1  64
ATOM     64  C   UNL     1      -8.603  -8.537  18.257  0.00  0.00    +0.000 C 
ATOM     65  H   UNL     1      -8.744  -8.965  19.250  0.00  0.00    +0.000 HD
ATOM     66  H   UNL     1      -7.585  -8.533  17.873  0.00  0.00    +0.000 HD
BRANCH  64  67
ATOM     67  C   UNL     1      -9.238  -9.643  17.392  0.00  0.00    +0.000 C 
ATOM     68  H   UNL     1      -8.785  -9.719  16.396  0.00  0.00    +0.000 HD
ATOM     69  H   UNL     1     -10.278  -9.322  17.200  0.00  0.00    +0.000 HD
ATOM     70  H   UNL     1      -9.301 -10.627  17.856  0.00  0.00    +0.000 HD
ENDBRANCH  64  67
ENDBRANCH   1  64
TORSDOF 2
ENDMDL
MODEL 4
REMARK VINA RESULT:    -8.806      3.028      7.505
REMARK INTER + INTRA:          -9.617
REMARK INTER:                  -9.588
REMARK INTRA:                  -0.029
REMARK UNBOUND:                -0.039
REMARK  Name = 
REMARK  2 active torsions:
REMARK  status: ('A' for Active; 'I' for Inactive)
REMARK    1  A    between atoms: C_1  and  C_2
REMARK    2  A    between atoms: C_2  and  N_3
REMARK                            x       y       z     vdW  Elec       q    Type
REMARK                         _______ _______ _______ _____ _____    ______ ____
ROOT
ATOM      1  N   UNL     1     -13.675   5.121  17.728  0.00  0.00    +0.000 NA
ATOM      2  C   UNL     1     -14.084   5.392  19.137  0.00  0.00    +0.000 C 
ATOM      3  C   UNL     1     -13.307   4.954  20.442  0.00  0.00    +0.000 C 
ATOM      4  O   UNL     1     -13.353   3.553  20.785  0.00  0.00    +0.000 OA
ATOM      5  C   UNL     1     -12.834   3.300  22.125  0.00  0.00    +0.000 C 
ATOM      6  C   UNL     1     -12.807   1.790  22.462  0.00  0.00    +0.000 C 
ATOM      7  N   UNL     1     -11.527   1.119  22.680  0.00  0.00    +0.000 N 
ATOM      8  C   UNL     1     -11.280  -0.123  22.147  0.00  0.00    +0.000 A 
ATOM      9  C   UNL     1      -9.999  -0.524  22.539  0.00  0.00    +0.000 A 
ATOM     10  C   UNL     1      -9.481   0.478  23.371  0.00  0.00    +0.000 A 
ATOM     11  C   UNL     1      -8.232   0.637  24.028  0.00  0.00    +0.000 A 
ATOM     12  C   UNL     1      -8.022   1.726  24.866  0.00  0.00    +0.000 A 
ATOM     13  C   UNL     1      -9.030   2.659  25.054  0.00  0.00    +0.000 A 
ATOM     14  C   UNL     1     -10.269   2.565  24.409  0.00  0.00    +0.000 A 
ATOM     15  C   UNL     1     -10.470   1.478  23.526  0.00  0.00    +0.000 A 
ATOM     16  C   UNL     1      -9.364  -1.719  22.103  0.00  0.00    +0.000 C 
ATOM     17  C   UNL     1      -9.229  -2.177  20.849  0.00  0.00    +0.000 C 
ATOM     18  C   UNL     1      -8.488  -3.452  20.905  0.00  0.00    +0.000 C 
ATOM     19  O   UNL     1      -8.192  -4.156  19.956  0.00  0.00    +0.000 OA
ATOM     20  N   UNL     1      -8.196  -3.687  22.200  0.00  0.00    +0.000 N 
ATOM     21  C   UNL     1      -8.681  -2.705  22.980  0.00  0.00    +0.000 C 
ATOM     22  O   UNL     1      -8.564  -2.651  24.201  0.00  0.00    +0.000 OA
ATOM     23  C   UNL     1      -9.649  -1.575  19.637  0.00  0.00    +0.000 A 
ATOM     24  C   UNL     1      -9.229  -0.341  19.207  0.00  0.00    +0.000 A 
ATOM     25  N   UNL     1      -9.894  -0.043  18.041  0.00  0.00    +0.000 N 
ATOM     26  C   UNL     1     -10.721  -1.097  17.689  0.00  0.00    +0.000 A 
ATOM     27  C   UNL     1     -11.604  -1.297  16.609  0.00  0.00    +0.000 A 
ATOM     28  C   UNL     1     -12.364  -2.464  16.560  0.00  0.00    +0.000 A 
ATOM     29  C   UNL     1     -12.238  -3.438  17.537  0.00  0.00    +0.000 A 
ATOM     30  C   UNL     1     -11.348  -3.258  18.597  0.00  0.00    +0.000 A 
ATOM     31  C   UNL     1     -10.584  -2.073  18.688  0.00  0.00    +0.000 A 
ATOM     32  C   UNL     1      -9.747   1.261  17.418  0.00  0.00    +0.000 C 
ATOM     33  C   UNL     1     -10.975   1.788  16.705  0.00  0.00    +0.000 C 
ATOM     34  O   UNL     1     -10.886   3.206  16.615  0.00  0.00    +0.000 OA
ATOM     35  C   UNL     1     -12.175   3.784  16.453  0.00  0.00    +0.000 C 
ATOM     36  C   UNL     1     -12.283   4.996  17.383  0.00  0.00    +0.000 C 
ATOM     37  H   UNL     1     -15.100   4.987  19.244  0.00  0.00    +0.000 HD
ATOM     38  H   UNL     1     -14.176   6.484  19.238  0.00  0.00    +0.000 HD
ATOM     39  H   UNL     1     -13.784   5.500  21.269  0.00  0.00    +0.000 HD
ATOM     40  H   UNL     1     -12.265   5.284  20.401  0.00  0.00    +0.000 HD
ATOM     41  H   UNL     1     -13.523   3.777  22.838  0.00  0.00    +0.000 HD
ATOM     42  H   UNL     1     -11.851   3.764  22.233  0.00  0.00    +0.000 HD
ATOM     43  H   UNL     1     -13.295   1.247  21.641  0.00  0.00    +0.000 HD
ATOM     44  H   UNL     1     -13.389   1.588  23.370  0.00  0.00    +0.000 HD
ATOM     45  H   UNL     1     -11.987  -0.610  21.517  0.00  0.00    +0.000 HD
ATOM     46  H   UNL     1      -7.464  -0.116  23.916  0.00  0.00    +0.000 HD
ATOM     47  H   UNL     1      -7.067   1.814  25.377  0.00  0.00    +0.000 HD
ATOM     48  H   UNL     1      -8.854   3.482  25.741  0.00  0.00    +0.000 HD
ATOM     49  H   UNL     1     -11.041   3.315  24.577  0.00  0.00    +0.000 HD
ATOM     50  H   UNL     1      -7.670  -4.477  22.544  0.00  0.00    +0.000 HD
ATOM     51  H   UNL     1      -8.549   0.376  19.652  0.00  0.00    +0.000 HD
ATOM     52  H   UNL     1     -11.729  -0.568  15.818  0.00  0.00    +0.000 HD
ATOM     53  H   UNL     1     -13.068  -2.613  15.740  0.00  0.00    +0.000 HD
ATOM     54  H   UNL     1     -12.828  -4.349  17.479  0.00  0.00    +0.000 HD
ATOM     55  H   UNL     1     -11.238  -4.036  19.346  0.00  0.00    +0.000 HD
ATOM     56  H   UNL     1      -8.882   1.217  16.752  0.00  0.00    +0.000 HD
ATOM     57  H   UNL     1      -9.492   1.967  18.222  0.00  0.00    +0.000 HD
ATOM     58  H   UNL     1     -11.871   1.496  17.268  0.00  0.00    +0.000 HD
ATOM     59  H   UNL     1     -11.035   1.399  15.686  0.00  0.00    +0.000 HD
ATOM     60  H   UNL     1     -12.970   3.060  16.695  0.00  0.00    +0.000 HD
ATOM     61  H   UNL     1     -12.318   4.058  15.404  0.00  0.00    +0.000 HD
ATOM     62  H   UNL     1     -11.900   5.894  16.887  0.00  0.00    +0.000 HD
ATOM     63  H   UNL     1     -11.652   4.835  18.263  0.00  0.00    +0.000 HD
ENDROOT
BRANCH   1  64
ATOM     64  C   UNL     1     -14.513   5.827  16.744  0.00  0.00    +0.000 C 
ATOM     65  H   UNL     1     -14.676   5.098  15.949  0.00  0.00    +0.000 HD
ATOM     66  H   UNL     1     -13.887   6.682  16.495  0.00  0.00    +0.000 HD
BRANCH  64  67
ATOM     67  C   UNL     1     -15.905   6.488  16.795  0.00  0.00    +0.000 C 
ATOM     68  H   UNL     1     -15.882   7.550  16.522  0.00  0.00    +0.000 HD
ATOM     69  H   UNL     1     -16.208   6.481  17.858  0.00  0.00    +0.000 HD
ATOM     70  H   UNL     1     -16.693   5.972  16.248  0.00  0.00    +0.000 HD
ENDBRANCH  64  67
ENDBRANCH   1  64
TORSDOF 2
ENDMDL
MODEL 5
REMARK VINA RESULT:    -8.708      2.948      7.757
REMARK INTER + INTRA:          -9.511
REMARK INTER:                  -9.463
REMARK INTRA:                  -0.049
REMARK UNBOUND:                -0.039
REMARK  Name = 
REMARK  2 active torsions:
REMARK  status: ('A' for Active; 'I' for Inactive)
REMARK    1  A    between atoms: C_1  and  C_2
REMARK    2  A    between atoms: C_2  and  N_3
REMARK                            x       y       z     vdW  Elec       q    Type
REMARK                         _______ _______ _______ _____ _____    ______ ____
ROOT
ATOM      1  N   UNL     1     -13.564   4.525  17.922  0.00  0.00    +0.000 NA
ATOM      2  C   UNL     1     -12.858   4.061  16.692  0.00  0.00    +0.000 C 
ATOM      3  C   UNL     1     -12.335   2.598  16.404  0.00  0.00    +0.000 C 
ATOM      4  O   UNL     1     -11.167   2.171  17.136  0.00  0.00    +0.000 OA
ATOM      5  C   UNL     1     -10.619   0.923  16.614  0.00  0.00    +0.000 C 
ATOM      6  C   UNL     1      -9.416   0.422  17.449  0.00  0.00    +0.000 C 
ATOM      7  N   UNL     1      -9.520  -0.835  18.187  0.00  0.00    +0.000 N 
ATOM      8  C   UNL     1      -9.040  -0.943  19.470  0.00  0.00    +0.000 A 
ATOM      9  C   UNL     1      -9.249  -2.254  19.909  0.00  0.00    +0.000 A 
ATOM     10  C   UNL     1      -9.822  -2.966  18.847  0.00  0.00    +0.000 A 
ATOM     11  C   UNL     1     -10.277  -4.306  18.719  0.00  0.00    +0.000 A 
ATOM     12  C   UNL     1     -10.746  -4.764  17.493  0.00  0.00    +0.000 A 
ATOM     13  C   UNL     1     -10.774  -3.913  16.400  0.00  0.00    +0.000 A 
ATOM     14  C   UNL     1     -10.362  -2.577  16.479  0.00  0.00    +0.000 A 
ATOM     15  C   UNL     1      -9.923  -2.098  17.735  0.00  0.00    +0.000 A 
ATOM     16  C   UNL     1      -8.960  -2.715  21.222  0.00  0.00    +0.000 C 
ATOM     17  C   UNL     1      -9.316  -2.163  22.393  0.00  0.00    +0.000 C 
ATOM     18  C   UNL     1      -8.790  -3.014  23.478  0.00  0.00    +0.000 C 
ATOM     19  O   UNL     1      -8.912  -2.814  24.674  0.00  0.00    +0.000 OA
ATOM     20  N   UNL     1      -8.157  -4.053  22.900  0.00  0.00    +0.000 N 
ATOM     21  C   UNL     1      -8.210  -3.953  21.559  0.00  0.00    +0.000 C 
ATOM     22  O   UNL     1      -7.722  -4.758  20.772  0.00  0.00    +0.000 OA
ATOM     23  C   UNL     1     -10.097  -1.004  22.624  0.00  0.00    +0.000 A 
ATOM     24  C   UNL     1     -11.389  -0.850  22.184  0.00  0.00    +0.000 A 
ATOM     25  N   UNL     1     -11.807   0.417  22.515  0.00  0.00    +0.000 N 
ATOM     26  C   UNL     1     -10.803   1.079  23.203  0.00  0.00    +0.000 A 
ATOM     27  C   UNL     1     -10.716   2.374  23.753  0.00  0.00    +0.000 A 
ATOM     28  C   UNL     1      -9.522   2.782  24.345  0.00  0.00    +0.000 A 
ATOM     29  C   UNL     1      -8.439   1.924  24.427  0.00  0.00    +0.000 A 
ATOM     30  C   UNL     1      -8.524   0.632  23.907  0.00  0.00    +0.000 A 
ATOM     31  C   UNL     1      -9.712   0.198  23.277  0.00  0.00    +0.000 A 
ATOM     32  C   UNL     1     -13.096   0.913  22.064  0.00  0.00    +0.000 C 
ATOM     33  C   UNL     1     -13.157   2.396  21.763  0.00  0.00    +0.000 C 
ATOM     34  O   UNL     1     -14.239   2.642  20.869  0.00  0.00    +0.000 OA
ATOM     35  C   UNL     1     -14.038   3.856  20.156  0.00  0.00    +0.000 C 
ATOM     36  C   UNL     1     -14.379   3.615  18.682  0.00  0.00    +0.000 C 
ATOM     37  H   UNL     1     -11.986   4.719  16.573  0.00  0.00    +0.000 HD
ATOM     38  H   UNL     1     -13.523   4.276  15.842  0.00  0.00    +0.000 HD
ATOM     39  H   UNL     1     -12.066   2.583  15.338  0.00  0.00    +0.000 HD
ATOM     40  H   UNL     1     -13.136   1.866  16.541  0.00  0.00    +0.000 HD
ATOM     41  H   UNL     1     -10.244   1.130  15.601  0.00  0.00    +0.000 HD
ATOM     42  H   UNL     1     -11.411   0.174  16.542  0.00  0.00    +0.000 HD
ATOM     43  H   UNL     1      -9.174   1.191  18.195  0.00  0.00    +0.000 HD
ATOM     44  H   UNL     1      -8.530   0.303  16.813  0.00  0.00    +0.000 HD
ATOM     45  H   UNL     1      -8.629  -0.105  19.983  0.00  0.00    +0.000 HD
ATOM     46  H   UNL     1     -10.212  -4.981  19.560  0.00  0.00    +0.000 HD
ATOM     47  H   UNL     1     -11.066  -5.800  17.412  0.00  0.00    +0.000 HD
ATOM     48  H   UNL     1     -11.110  -4.305  15.444  0.00  0.00    +0.000 HD
ATOM     49  H   UNL     1     -10.397  -1.932  15.602  0.00  0.00    +0.000 HD
ATOM     50  H   UNL     1      -7.718  -4.816  23.394  0.00  0.00    +0.000 HD
ATOM     51  H   UNL     1     -12.035  -1.514  21.622  0.00  0.00    +0.000 HD
ATOM     52  H   UNL     1     -11.540   3.076  23.719  0.00  0.00    +0.000 HD
ATOM     53  H   UNL     1      -9.441   3.793  24.748  0.00  0.00    +0.000 HD
ATOM     54  H   UNL     1      -7.517   2.252  24.903  0.00  0.00    +0.000 HD
ATOM     55  H   UNL     1      -7.678  -0.042  23.997  0.00  0.00    +0.000 HD
ATOM     56  H   UNL     1     -13.844   0.622  22.805  0.00  0.00    +0.000 HD
ATOM     57  H   UNL     1     -13.336   0.368  21.140  0.00  0.00    +0.000 HD
ATOM     58  H   UNL     1     -12.209   2.711  21.310  0.00  0.00    +0.000 HD
ATOM     59  H   UNL     1     -13.345   2.975  22.670  0.00  0.00    +0.000 HD
ATOM     60  H   UNL     1     -12.995   4.202  20.242  0.00  0.00    +0.000 HD
ATOM     61  H   UNL     1     -14.659   4.641  20.598  0.00  0.00    +0.000 HD
ATOM     62  H   UNL     1     -15.448   3.775  18.506  0.00  0.00    +0.000 HD
ATOM     63  H   UNL     1     -14.178   2.569  18.430  0.00  0.00    +0.000 HD
ENDROOT
BRANCH   1  64
ATOM     64  C   UNL     1     -14.088   5.896  17.798  0.00  0.00    +0.000 C 
ATOM     65  H   UNL     1     -13.383   6.400  17.136  0.00  0.00    +0.000 HD
ATOM     66  H   UNL     1     -14.096   6.224  18.836  0.00  0.00    +0.000 HD
BRANCH  64  67
ATOM     67  C   UNL     1     -15.413   6.499  17.291  0.00  0.00    +0.000 C 
ATOM     68  H   UNL     1     -16.291   6.094  17.809  0.00  0.00    +0.000 HD
ATOM     69  H   UNL     1     -15.525   6.157  16.246  0.00  0.00    +0.000 HD
ATOM     70  H   UNL     1     -15.456   7.587  17.264  0.00  0.00    +0.000 HD
ENDBRANCH  64  67
ENDBRANCH   1  64
TORSDOF 2
ENDMDL
MODEL 6
REMARK VINA RESULT:    -8.242      2.028      6.148
REMARK INTER + INTRA:          -9.004
REMARK INTER:                  -8.978
REMARK INTRA:                  -0.026
REMARK UNBOUND:                -0.039
REMARK  Name = 
REMARK  2 active torsions:
REMARK  status: ('A' for Active; 'I' for Inactive)
REMARK    1  A    between atoms: C_1  and  C_2
REMARK    2  A    between atoms: C_2  and  N_3
REMARK                            x       y       z     vdW  Elec       q    Type
REMARK                         _______ _______ _______ _____ _____    ______ ____
ROOT
ATOM      1  N   UNL     1      -9.068  -8.128  18.487  0.00  0.00    +0.000 NA
ATOM      2  C   UNL     1     -10.098  -7.980  17.417  0.00  0.00    +0.000 C 
ATOM      3  C   UNL     1     -10.472  -6.649  16.651  0.00  0.00    +0.000 C 
ATOM      4  O   UNL     1     -11.219  -5.661  17.393  0.00  0.00    +0.000 OA
ATOM      5  C   UNL     1     -11.733  -4.602  16.531  0.00  0.00    +0.000 C 
ATOM      6  C   UNL     1     -12.463  -3.501  17.337  0.00  0.00    +0.000 C 
ATOM      7  N   UNL     1     -11.917  -2.146  17.371  0.00  0.00    +0.000 N 
ATOM      8  C   UNL     1     -11.876  -1.430  18.543  0.00  0.00    +0.000 A 
ATOM      9  C   UNL     1     -11.335  -0.169  18.271  0.00  0.00    +0.000 A 
ATOM     10  C   UNL     1     -11.090  -0.106  16.892  0.00  0.00    +0.000 A 
ATOM     11  C   UNL     1     -10.524   0.895  16.058  0.00  0.00    +0.000 A 
ATOM     12  C   UNL     1     -10.473   0.702  14.682  0.00  0.00    +0.000 A 
ATOM     13  C   UNL     1     -10.968  -0.467  14.127  0.00  0.00    +0.000 A 
ATOM     14  C   UNL     1     -11.511  -1.496  14.906  0.00  0.00    +0.000 A 
ATOM     15  C   UNL     1     -11.528  -1.319  16.310  0.00  0.00    +0.000 A 
ATOM     16  C   UNL     1     -11.056   0.814  19.258  0.00  0.00    +0.000 C 
ATOM     17  C   UNL     1     -10.383   0.667  20.410  0.00  0.00    +0.000 C 
ATOM     18  C   UNL     1     -10.349   1.975  21.092  0.00  0.00    +0.000 C 
ATOM     19  O   UNL     1      -9.830   2.214  22.168  0.00  0.00    +0.000 OA
ATOM     20  N   UNL     1     -10.991   2.855  20.298  0.00  0.00    +0.000 N 
ATOM     21  C   UNL     1     -11.444   2.246  19.187  0.00  0.00    +0.000 C 
ATOM     22  O   UNL     1     -12.063   2.799  18.283  0.00  0.00    +0.000 OA
ATOM     23  C   UNL     1      -9.747  -0.493  20.922  0.00  0.00    +0.000 A 
ATOM     24  C   UNL     1      -8.741  -1.165  20.273  0.00  0.00    +0.000 A 
ATOM     25  N   UNL     1      -8.419  -2.276  21.016  0.00  0.00    +0.000 N 
ATOM     26  C   UNL     1      -9.189  -2.312  22.167  0.00  0.00    +0.000 A 
ATOM     27  C   UNL     1      -9.256  -3.220  23.242  0.00  0.00    +0.000 A 
ATOM     28  C   UNL     1     -10.199  -3.015  24.248  0.00  0.00    +0.000 A 
ATOM     29  C   UNL     1     -11.042  -1.916  24.220  0.00  0.00    +0.000 A 
ATOM     30  C   UNL     1     -10.965  -0.998  23.171  0.00  0.00    +0.000 A 
ATOM     31  C   UNL     1     -10.038  -1.195  22.123  0.00  0.00    +0.000 A 
ATOM     32  C   UNL     1      -7.469  -3.253  20.512  0.00  0.00    +0.000 C 
ATOM     33  C   UNL     1      -7.737  -4.690  20.907  0.00  0.00    +0.000 C 
ATOM     34  O   UNL     1      -7.102  -5.555  19.969  0.00  0.00    +0.000 OA
ATOM     35  C   UNL     1      -7.722  -6.835  19.962  0.00  0.00    +0.000 C 
ATOM     36  C   UNL     1      -7.910  -7.275  18.507  0.00  0.00    +0.000 C 
ATOM     37  H   UNL     1     -11.039  -8.354  17.844  0.00  0.00    +0.000 HD
ATOM     38  H   UNL     1      -9.826  -8.680  16.613  0.00  0.00    +0.000 HD
ATOM     39  H   UNL     1     -11.106  -6.960  15.807  0.00  0.00    +0.000 HD
ATOM     40  H   UNL     1      -9.579  -6.183  16.225  0.00  0.00    +0.000 HD
ATOM     41  H   UNL     1     -12.476  -5.057  15.860  0.00  0.00    +0.000 HD
ATOM     42  H   UNL     1     -10.921  -4.197  15.922  0.00  0.00    +0.000 HD
ATOM     43  H   UNL     1     -12.525  -3.827  18.384  0.00  0.00    +0.000 HD
ATOM     44  H   UNL     1     -13.492  -3.381  16.976  0.00  0.00    +0.000 HD
ATOM     45  H   UNL     1     -12.189  -1.856  19.468  0.00  0.00    +0.000 HD
ATOM     46  H   UNL     1     -10.181   1.824  16.488  0.00  0.00    +0.000 HD
ATOM     47  H   UNL     1     -10.057   1.492  14.061  0.00  0.00    +0.000 HD
ATOM     48  H   UNL     1     -10.949  -0.578  13.046  0.00  0.00    +0.000 HD
ATOM     49  H   UNL     1     -11.892  -2.404  14.441  0.00  0.00    +0.000 HD
ATOM     50  H   UNL     1     -11.105   3.838  20.492  0.00  0.00    +0.000 HD
ATOM     51  H   UNL     1      -8.255  -0.978  19.323  0.00  0.00    +0.000 HD
ATOM     52  H   UNL     1      -8.612  -4.088  23.310  0.00  0.00    +0.000 HD
ATOM     53  H   UNL     1     -10.273  -3.729  25.069  0.00  0.00    +0.000 HD
ATOM     54  H   UNL     1     -11.764  -1.761  25.017  0.00  0.00    +0.000 HD
ATOM     55  H   UNL     1     -11.613  -0.128  23.168  0.00  0.00    +0.000 HD
ATOM     56  H   UNL     1      -6.469  -2.933  20.813  0.00  0.00    +0.000 HD
ATOM     57  H   UNL     1      -7.505  -3.190  19.415  0.00  0.00    +0.000 HD
ATOM     58  H   UNL     1      -8.820  -4.866  20.916  0.00  0.00    +0.000 HD
ATOM     59  H   UNL     1      -7.318  -4.913  21.891  0.00  0.00    +0.000 HD
ATOM     60  H   UNL     1      -8.701  -6.807  20.469  0.00  0.00    +0.000 HD
ATOM     61  H   UNL     1      -7.104  -7.537  20.528  0.00  0.00    +0.000 HD
ATOM     62  H   UNL     1      -7.013  -7.789  18.145  0.00  0.00    +0.000 HD
ATOM     63  H   UNL     1      -8.035  -6.390  17.875  0.00  0.00    +0.000 HD
ENDROOT
BRANCH   1  64
ATOM     64  C   UNL     1      -8.830  -9.533  18.860  0.00  0.00    +0.000 C 
ATOM     65  H   UNL     1      -9.588  -9.749  19.612  0.00  0.00    +0.000 HD
ATOM     66  H   UNL     1      -7.799  -9.496  19.208  0.00  0.00    +0.000 HD
BRANCH  64  67
ATOM     67  C   UNL     1      -8.829 -10.866  18.085  0.00  0.00    +0.000 C 
ATOM     68  H   UNL     1      -8.599 -10.740  17.020  0.00  0.00    +0.000 HD
ATOM     69  H   UNL     1      -9.873 -11.230  18.102  0.00  0.00    +0.000 HD
ATOM     70  H   UNL     1      -8.220 -11.660  18.514  0.00  0.00    +0.000 HD
ENDBRANCH  64  67
ENDBRANCH   1  64
TORSDOF 2
ENDMDL
MODEL 7
REMARK VINA RESULT:    -7.825      2.338      9.076
REMARK INTER + INTRA:          -8.550
REMARK INTER:                  -8.494
REMARK INTRA:                  -0.056
REMARK UNBOUND:                -0.039
REMARK  Name = 
REMARK  2 active torsions:
REMARK  status: ('A' for Active; 'I' for Inactive)
REMARK    1  A    between atoms: C_1  and  C_2
REMARK    2  A    between atoms: C_2  and  N_3
REMARK                            x       y       z     vdW  Elec       q    Type
REMARK                         _______ _______ _______ _____ _____    ______ ____
ROOT
ATOM      1  N   UNL     1      -9.055   4.331  22.388  0.00  0.00    +0.000 NA
ATOM      2  C   UNL     1      -9.028   4.922  21.018  0.00  0.00    +0.000 C 
ATOM      3  C   UNL     1      -9.694   4.316  19.720  0.00  0.00    +0.000 C 
ATOM      4  O   UNL     1      -9.055   3.157  19.143  0.00  0.00    +0.000 OA
ATOM      5  C   UNL     1      -9.587   2.839  17.821  0.00  0.00    +0.000 C 
ATOM      6  C   UNL     1      -8.960   1.550  17.238  0.00  0.00    +0.000 C 
ATOM      7  N   UNL     1      -9.800   0.377  17.006  0.00  0.00    +0.000 N 
ATOM      8  C   UNL     1      -9.363  -0.883  17.340  0.00  0.00    +0.000 A 
ATOM      9  C   UNL     1     -10.354  -1.802  16.982  0.00  0.00    +0.000 A 
ATOM     10  C   UNL     1     -11.392  -1.084  16.372  0.00  0.00    +0.000 A 
ATOM     11  C   UNL     1     -12.653  -1.473  15.846  0.00  0.00    +0.000 A 
ATOM     12  C   UNL     1     -13.463  -0.531  15.222  0.00  0.00    +0.000 A 
ATOM     13  C   UNL     1     -13.042   0.786  15.119  0.00  0.00    +0.000 A 
ATOM     14  C   UNL     1     -11.821   1.226  15.644  0.00  0.00    +0.000 A 
ATOM     15  C   UNL     1     -11.014   0.277  16.315  0.00  0.00    +0.000 A 
ATOM     16  C   UNL     1     -10.292  -3.195  17.256  0.00  0.00    +0.000 C 
ATOM     17  C   UNL     1     -10.015  -3.801  18.422  0.00  0.00    +0.000 C 
ATOM     18  C   UNL     1     -10.079  -5.259  18.207  0.00  0.00    +0.000 C 
ATOM     19  O   UNL     1      -9.874  -6.121  19.044  0.00  0.00    +0.000 OA
ATOM     20  N   UNL     1     -10.415  -5.458  16.917  0.00  0.00    +0.000 N 
ATOM     21  C   UNL     1     -10.559  -4.282  16.280  0.00  0.00    +0.000 C 
ATOM     22  O   UNL     1     -10.865  -4.154  15.098  0.00  0.00    +0.000 OA
ATOM     23  C   UNL     1      -9.749  -3.212  19.684  0.00  0.00    +0.000 A 
ATOM     24  C   UNL     1     -10.626  -2.388  20.345  0.00  0.00    +0.000 A 
ATOM     25  N   UNL     1     -10.013  -1.941  21.492  0.00  0.00    +0.000 N 
ATOM     26  C   UNL     1      -8.750  -2.500  21.599  0.00  0.00    +0.000 A 
ATOM     27  C   UNL     1      -7.728  -2.373  22.561  0.00  0.00    +0.000 A 
ATOM     28  C   UNL     1      -6.516  -3.029  22.356  0.00  0.00    +0.000 A 
ATOM     29  C   UNL     1      -6.318  -3.826  21.241  0.00  0.00    +0.000 A 
ATOM     30  C   UNL     1      -7.333  -3.978  20.296  0.00  0.00    +0.000 A 
ATOM     31  C   UNL     1      -8.564  -3.303  20.462  0.00  0.00    +0.000 A 
ATOM     32  C   UNL     1     -10.655  -0.947  22.335  0.00  0.00    +0.000 C 
ATOM     33  C   UNL     1      -9.721   0.020  23.033  0.00  0.00    +0.000 C 
ATOM     34  O   UNL     1     -10.444   1.201  23.367  0.00  0.00    +0.000 OA
ATOM     35  C   UNL     1      -9.561   2.305  23.527  0.00  0.00    +0.000 C 
ATOM     36  C   UNL     1     -10.163   3.516  22.809  0.00  0.00    +0.000 C 
ATOM     37  H   UNL     1      -7.968   5.070  20.768  0.00  0.00    +0.000 HD
ATOM     38  H   UNL     1      -9.468   5.927  21.095  0.00  0.00    +0.000 HD
ATOM     39  H   UNL     1      -9.651   5.113  18.963  0.00  0.00    +0.000 HD
ATOM     40  H   UNL     1     -10.752   4.097  19.893  0.00  0.00    +0.000 HD
ATOM     41  H   UNL     1      -9.310   3.665  17.150  0.00  0.00    +0.000 HD
ATOM     42  H   UNL     1     -10.677   2.783  17.867  0.00  0.00    +0.000 HD
ATOM     43  H   UNL     1      -8.162   1.220  17.917  0.00  0.00    +0.000 HD
ATOM     44  H   UNL     1      -8.491   1.756  16.268  0.00  0.00    +0.000 HD
ATOM     45  H   UNL     1      -8.427  -1.037  17.824  0.00  0.00    +0.000 HD
ATOM     46  H   UNL     1     -12.959  -2.508  15.887  0.00  0.00    +0.000 HD
ATOM     47  H   UNL     1     -14.414  -0.856  14.806  0.00  0.00    +0.000 HD
ATOM     48  H   UNL     1     -13.677   1.495  14.595  0.00  0.00    +0.000 HD
ATOM     49  H   UNL     1     -11.518   2.268  15.548  0.00  0.00    +0.000 HD
ATOM     50  H   UNL     1     -10.559  -6.358  16.485  0.00  0.00    +0.000 HD
ATOM     51  H   UNL     1     -11.617  -2.040  20.079  0.00  0.00    +0.000 HD
ATOM     52  H   UNL     1      -7.841  -1.768  23.451  0.00  0.00    +0.000 HD
ATOM     53  H   UNL     1      -5.712  -2.913  23.084  0.00  0.00    +0.000 HD
ATOM     54  H   UNL     1      -5.371  -4.342  21.100  0.00  0.00    +0.000 HD
ATOM     55  H   UNL     1      -7.178  -4.623  19.437  0.00  0.00    +0.000 HD
ATOM     56  H   UNL     1     -11.293  -1.475  23.047  0.00  0.00    +0.000 HD
ATOM     57  H   UNL     1     -11.322  -0.365  21.682  0.00  0.00    +0.000 HD
ATOM     58  H   UNL     1      -8.885   0.260  22.364  0.00  0.00    +0.000 HD
ATOM     59  H   UNL     1      -9.340  -0.404  23.965  0.00  0.00    +0.000 HD
ATOM     60  H   UNL     1      -8.565   2.084  23.108  0.00  0.00    +0.000 HD
ATOM     61  H   UNL     1      -9.409   2.493  24.594  0.00  0.00    +0.000 HD
ATOM     62  H   UNL     1     -10.841   4.058  23.477  0.00  0.00    +0.000 HD
ATOM     63  H   UNL     1     -10.769   3.172  21.965  0.00  0.00    +0.000 HD
ENDROOT
BRANCH   1  64
ATOM     64  C   UNL     1      -8.506   5.237  23.411  0.00  0.00    +0.000 C 
ATOM     65  H   UNL     1      -8.319   6.170  22.880  0.00  0.00    +0.000 HD
ATOM     66  H   UNL     1      -7.627   4.686  23.744  0.00  0.00    +0.000 HD
BRANCH  64  67
ATOM     67  C   UNL     1      -9.030   5.788  24.752  0.00  0.00    +0.000 C 
ATOM     68  H   UNL     1      -8.603   5.273  25.621  0.00  0.00    +0.000 HD
ATOM     69  H   UNL     1     -10.107   5.540  24.784  0.00  0.00    +0.000 HD
ATOM     70  H   UNL     1      -8.960   6.868  24.878  0.00  0.00    +0.000 HD
ENDBRANCH  64  67
ENDBRANCH   1  64
TORSDOF 2
ENDMDL
MODEL 8
REMARK VINA RESULT:    -7.807      2.471      6.467
REMARK INTER + INTRA:          -8.531
REMARK INTER:                  -8.503
REMARK INTRA:                  -0.027
REMARK UNBOUND:                -0.039
REMARK  Name = 
REMARK  2 active torsions:
REMARK  status: ('A' for Active; 'I' for Inactive)
REMARK    1  A    between atoms: C_1  and  C_2
REMARK    2  A    between atoms: C_2  and  N_3
REMARK                            x       y       z     vdW  Elec       q    Type
REMARK                         _______ _______ _______ _____ _____    ______ ____
ROOT
ATOM      1  N   UNL     1      -9.053  -8.071  18.751  0.00  0.00    +0.000 NA
ATOM      2  C   UNL     1      -9.927  -8.104  17.543  0.00  0.00    +0.000 C 
ATOM      3  C   UNL     1     -10.220  -6.901  16.561  0.00  0.00    +0.000 C 
ATOM      4  O   UNL     1     -11.084  -5.855  17.056  0.00  0.00    +0.000 OA
ATOM      5  C   UNL     1     -11.496  -4.938  15.998  0.00  0.00    +0.000 C 
ATOM      6  C   UNL     1     -12.354  -3.771  16.542  0.00  0.00    +0.000 C 
ATOM      7  N   UNL     1     -11.848  -2.403  16.467  0.00  0.00    +0.000 N 
ATOM      8  C   UNL     1     -11.986  -1.539  17.527  0.00  0.00    +0.000 A 
ATOM      9  C   UNL     1     -11.439  -0.304  17.163  0.00  0.00    +0.000 A 
ATOM     10  C   UNL     1     -11.007  -0.412  15.834  0.00  0.00    +0.000 A 
ATOM     11  C   UNL     1     -10.352   0.493  14.956  0.00  0.00    +0.000 A 
ATOM     12  C   UNL     1     -10.106   0.125  13.638  0.00  0.00    +0.000 A 
ATOM     13  C   UNL     1     -10.494  -1.125  13.184  0.00  0.00    +0.000 A 
ATOM     14  C   UNL     1     -11.118  -2.064  14.015  0.00  0.00    +0.000 A 
ATOM     15  C   UNL     1     -11.333  -1.707  15.366  0.00  0.00    +0.000 A 
ATOM     16  C   UNL     1     -11.321   0.809  18.037  0.00  0.00    +0.000 C 
ATOM     17  C   UNL     1     -10.811   0.841  19.279  0.00  0.00    +0.000 C 
ATOM     18  C   UNL     1     -10.900   2.227  19.776  0.00  0.00    +0.000 C 
ATOM     19  O   UNL     1     -10.541   2.625  20.870  0.00  0.00    +0.000 OA
ATOM     20  N   UNL     1     -11.445   2.970  18.792  0.00  0.00    +0.000 N 
ATOM     21  C   UNL     1     -11.726   2.203  17.722  0.00  0.00    +0.000 C 
ATOM     22  O   UNL     1     -12.225   2.609  16.677  0.00  0.00    +0.000 OA
ATOM     23  C   UNL     1     -10.228  -0.216  20.023  0.00  0.00    +0.000 A 
ATOM     24  C   UNL     1      -9.127  -0.926  19.612  0.00  0.00    +0.000 A 
ATOM     25  N   UNL     1      -8.888  -1.918  20.534  0.00  0.00    +0.000 N 
ATOM     26  C   UNL     1      -9.809  -1.834  21.565  0.00  0.00    +0.000 A 
ATOM     27  C   UNL     1     -10.005  -2.596  22.734  0.00  0.00    +0.000 A 
ATOM     28  C   UNL     1     -11.082  -2.299  23.567  0.00  0.00    +0.000 A 
ATOM     29  C   UNL     1     -11.937  -1.248  23.278  0.00  0.00    +0.000 A 
ATOM     30  C   UNL     1     -11.735  -0.472  22.135  0.00  0.00    +0.000 A 
ATOM     31  C   UNL     1     -10.668  -0.767  21.257  0.00  0.00    +0.000 A 
ATOM     32  C   UNL     1      -7.856  -2.913  20.299  0.00  0.00    +0.000 C 
ATOM     33  C   UNL     1      -8.145  -4.296  20.844  0.00  0.00    +0.000 C 
ATOM     34  O   UNL     1      -7.368  -5.249  20.125  0.00  0.00    +0.000 OA
ATOM     35  C   UNL     1      -7.953  -6.543  20.207  0.00  0.00    +0.000 C 
ATOM     36  C   UNL     1      -7.927  -7.176  18.813  0.00  0.00    +0.000 C 
ATOM     37  H   UNL     1     -10.910  -8.456  17.885  0.00  0.00    +0.000 HD
ATOM     38  H   UNL     1      -9.531  -8.891  16.884  0.00  0.00    +0.000 HD
ATOM     39  H   UNL     1     -10.724  -7.344  15.689  0.00  0.00    +0.000 HD
ATOM     40  H   UNL     1      -9.287  -6.459  16.200  0.00  0.00    +0.000 HD
ATOM     41  H   UNL     1     -12.128  -5.506  15.301  0.00  0.00    +0.000 HD
ATOM     42  H   UNL     1     -10.616  -4.584  15.454  0.00  0.00    +0.000 HD
ATOM     43  H   UNL     1     -12.554  -3.961  17.605  0.00  0.00    +0.000 HD
ATOM     44  H   UNL     1     -13.326  -3.740  16.034  0.00  0.00    +0.000 HD
ATOM     45  H   UNL     1     -12.414  -1.853  18.450  0.00  0.00    +0.000 HD
ATOM     46  H   UNL     1     -10.091   1.484  15.300  0.00  0.00    +0.000 HD
ATOM     47  H   UNL     1      -9.625   0.844  12.979  0.00  0.00    +0.000 HD
ATOM     48  H   UNL     1     -10.323  -1.375  12.141  0.00  0.00    +0.000 HD
ATOM     49  H   UNL     1     -11.410  -3.040  13.629  0.00  0.00    +0.000 HD
ATOM     50  H   UNL     1     -11.606   3.965  18.835  0.00  0.00    +0.000 HD
ATOM     51  H   UNL     1      -8.518  -0.845  18.719  0.00  0.00    +0.000 HD
ATOM     52  H   UNL     1      -9.359  -3.421  23.004  0.00  0.00    +0.000 HD
ATOM     53  H   UNL     1     -11.255  -2.903  24.459  0.00  0.00    +0.000 HD
ATOM     54  H   UNL     1     -12.766  -1.019  23.942  0.00  0.00    +0.000 HD
ATOM     55  H   UNL     1     -12.395   0.364  21.928  0.00  0.00    +0.000 HD
ATOM     56  H   UNL     1      -6.915  -2.517  20.686  0.00  0.00    +0.000 HD
ATOM     57  H   UNL     1      -7.741  -2.995  19.208  0.00  0.00    +0.000 HD
ATOM     58  H   UNL     1      -9.215  -4.512  20.730  0.00  0.00    +0.000 HD
ATOM     59  H   UNL     1      -7.863  -4.372  21.897  0.00  0.00    +0.000 HD
ATOM     60  H   UNL     1      -8.993  -6.489  20.569  0.00  0.00    +0.000 HD
ATOM     61  H   UNL     1      -7.404  -7.141  20.940  0.00  0.00    +0.000 HD
ATOM     62  H   UNL     1      -6.978  -7.697  18.648  0.00  0.00    +0.000 HD
ATOM     63  H   UNL     1      -7.983  -6.387  18.056  0.00  0.00    +0.000 HD
ENDROOT
BRANCH   1  64
ATOM     64  C   UNL     1      -8.838  -9.404  19.339  0.00  0.00    +0.000 C 
ATOM     65  H   UNL     1      -9.775  -9.633  19.847  0.00  0.00    +0.000 HD
ATOM     66  H   UNL     1      -7.973  -9.228  19.975  0.00  0.00    +0.000 HD
BRANCH  64  67
ATOM     67  C   UNL     1      -8.497 -10.791  18.760  0.00  0.00    +0.000 C 
ATOM     68  H   UNL     1      -8.974 -11.612  19.309  0.00  0.00    +0.000 HD
ATOM     69  H   UNL     1      -7.414 -10.936  18.931  0.00  0.00    +0.000 HD
ATOM     70  H   UNL     1      -8.657 -10.908  17.689  0.00  0.00    +0.000 HD
ENDBRANCH  64  67
ENDBRANCH   1  64
TORSDOF 2
ENDMDL
MODEL 9
REMARK VINA RESULT:    -7.681      2.597      9.285
REMARK INTER + INTRA:          -8.394
REMARK INTER:                  -8.339
REMARK INTRA:                  -0.054
REMARK UNBOUND:                -0.039
REMARK  Name = 
REMARK  2 active torsions:
REMARK  status: ('A' for Active; 'I' for Inactive)
REMARK    1  A    between atoms: C_1  and  C_2
REMARK    2  A    between atoms: C_2  and  N_3
REMARK                            x       y       z     vdW  Elec       q    Type
REMARK                         _______ _______ _______ _____ _____    ______ ____
ROOT
ATOM      1  N   UNL     1      -9.554   3.920  21.554  0.00  0.00    +0.000 NA
ATOM      2  C   UNL     1      -9.296   4.546  20.225  0.00  0.00    +0.000 C 
ATOM      3  C   UNL     1      -9.824   4.033  18.826  0.00  0.00    +0.000 C 
ATOM      4  O   UNL     1      -9.204   2.843  18.294  0.00  0.00    +0.000 OA
ATOM      5  C   UNL     1      -9.573   2.608  16.902  0.00  0.00    +0.000 C 
ATOM      6  C   UNL     1      -8.975   1.289  16.357  0.00  0.00    +0.000 C 
ATOM      7  N   UNL     1      -9.864   0.197  15.969  0.00  0.00    +0.000 N 
ATOM      8  C   UNL     1      -9.575  -1.104  16.308  0.00  0.00    +0.000 A 
ATOM      9  C   UNL     1     -10.576  -1.928  15.784  0.00  0.00    +0.000 A 
ATOM     10  C   UNL     1     -11.463  -1.110  15.070  0.00  0.00    +0.000 A 
ATOM     11  C   UNL     1     -12.667  -1.378  14.366  0.00  0.00    +0.000 A 
ATOM     12  C   UNL     1     -13.309  -0.355  13.677  0.00  0.00    +0.000 A 
ATOM     13  C   UNL     1     -12.777   0.925  13.684  0.00  0.00    +0.000 A 
ATOM     14  C   UNL     1     -11.608   1.247  14.384  0.00  0.00    +0.000 A 
ATOM     15  C   UNL     1     -10.976   0.217  15.118  0.00  0.00    +0.000 A 
ATOM     16  C   UNL     1     -10.660  -3.329  16.009  0.00  0.00    +0.000 C 
ATOM     17  C   UNL     1     -10.592  -3.988  17.176  0.00  0.00    +0.000 C 
ATOM     18  C   UNL     1     -10.740  -5.430  16.897  0.00  0.00    +0.000 C 
ATOM     19  O   UNL     1     -10.718  -6.329  17.719  0.00  0.00    +0.000 OA
ATOM     20  N   UNL     1     -10.911  -5.563  15.567  0.00  0.00    +0.000 N 
ATOM     21  C   UNL     1     -10.876  -4.361  14.963  0.00  0.00    +0.000 C 
ATOM     22  O   UNL     1     -11.007  -4.175  13.757  0.00  0.00    +0.000 OA
ATOM     23  C   UNL     1     -10.456  -3.460  18.485  0.00  0.00    +0.000 A 
ATOM     24  C   UNL     1     -11.348  -2.586  19.055  0.00  0.00    +0.000 A 
ATOM     25  N   UNL     1     -10.865  -2.224  20.290  0.00  0.00    +0.000 N 
ATOM     26  C   UNL     1      -9.675  -2.888  20.543  0.00  0.00    +0.000 A 
ATOM     27  C   UNL     1      -8.787  -2.873  21.637  0.00  0.00    +0.000 A 
ATOM     28  C   UNL     1      -7.613  -3.621  21.569  0.00  0.00    +0.000 A 
ATOM     29  C   UNL     1      -7.327  -4.399  20.460  0.00  0.00    +0.000 A 
ATOM     30  C   UNL     1      -8.213  -4.439  19.383  0.00  0.00    +0.000 A 
ATOM     31  C   UNL     1      -9.399  -3.671  19.410  0.00  0.00    +0.000 A 
ATOM     32  C   UNL     1     -11.536  -1.206  21.079  0.00  0.00    +0.000 C 
ATOM     33  C   UNL     1     -10.635  -0.339  21.933  0.00  0.00    +0.000 C 
ATOM     34  O   UNL     1     -11.302   0.887  22.215  0.00  0.00    +0.000 OA
ATOM     35  C   UNL     1     -10.366   1.909  22.535  0.00  0.00    +0.000 C 
ATOM     36  C   UNL     1     -10.769   3.187  21.791  0.00  0.00    +0.000 C 
ATOM     37  H   UNL     1      -8.203   4.613  20.125  0.00  0.00    +0.000 HD
ATOM     38  H   UNL     1      -9.663   5.581  20.283  0.00  0.00    +0.000 HD
ATOM     39  H   UNL     1      -9.616   4.846  18.114  0.00  0.00    +0.000 HD
ATOM     40  H   UNL     1     -10.909   3.898  18.848  0.00  0.00    +0.000 HD
ATOM     41  H   UNL     1      -9.144   3.427  16.307  0.00  0.00    +0.000 HD
ATOM     42  H   UNL     1     -10.661   2.641  16.799  0.00  0.00    +0.000 HD
ATOM     43  H   UNL     1      -8.305   0.875  17.123  0.00  0.00    +0.000 HD
ATOM     44  H   UNL     1      -8.363   1.484  15.468  0.00  0.00    +0.000 HD
ATOM     45  H   UNL     1      -8.729  -1.349  16.906  0.00  0.00    +0.000 HD
ATOM     46  H   UNL     1     -13.055  -2.386  14.324  0.00  0.00    +0.000 HD
ATOM     47  H   UNL     1     -14.216  -0.589  13.125  0.00  0.00    +0.000 HD
ATOM     48  H   UNL     1     -13.278   1.698  13.108  0.00  0.00    +0.000 HD
ATOM     49  H   UNL     1     -11.215   2.263  14.371  0.00  0.00    +0.000 HD
ATOM     50  H   UNL     1     -11.064  -6.436  15.085  0.00  0.00    +0.000 HD
ATOM     51  H   UNL     1     -12.264  -2.151  18.673  0.00  0.00    +0.000 HD
ATOM     52  H   UNL     1      -8.973  -2.286  22.527  0.00  0.00    +0.000 HD
ATOM     53  H   UNL     1      -6.909  -3.591  22.403  0.00  0.00    +0.000 HD
ATOM     54  H   UNL     1      -6.413  -4.986  20.426  0.00  0.00    +0.000 HD
ATOM     55  H   UNL     1      -7.993  -5.070  18.527  0.00  0.00    +0.000 HD
ATOM     56  H   UNL     1     -12.305  -1.700  21.678  0.00  0.00    +0.000 HD
ATOM     57  H   UNL     1     -12.061  -0.552  20.367  0.00  0.00    +0.000 HD
ATOM     58  H   UNL     1      -9.699  -0.150  21.392  0.00  0.00    +0.000 HD
ATOM     59  H   UNL     1     -10.417  -0.820  22.890  0.00  0.00    +0.000 HD
ATOM     60  H   UNL     1      -9.343   1.620  22.244  0.00  0.00    +0.000 HD
ATOM     61  H   UNL     1     -10.347   2.054  23.619  0.00  0.00    +0.000 HD
ATOM     62  H   UNL     1     -11.488   3.762  22.383  0.00  0.00    +0.000 HD
ATOM     63  H   UNL     1     -11.279   2.918  20.860  0.00  0.00    +0.000 HD
ENDROOT
BRANCH   1  64
ATOM     64  C   UNL     1      -9.081   4.747  22.677  0.00  0.00    +0.000 C 
ATOM     65  H   UNL     1      -9.983   4.991  23.237  0.00  0.00    +0.000 HD
ATOM     66  H   UNL     1      -8.598   5.571  22.155  0.00  0.00    +0.000 HD
BRANCH  64  67
ATOM     67  C   UNL     1      -8.094   4.519  23.839  0.00  0.00    +0.000 C 
ATOM     68  H   UNL     1      -8.540   3.968  24.675  0.00  0.00    +0.000 HD
ATOM     69  H   UNL     1      -7.873   5.520  24.253  0.00  0.00    +0.000 HD
ATOM     70  H   UNL     1      -7.135   4.082  23.564  0.00  0.00    +0.000 HD
ENDBRANCH  64  67
ENDBRANCH   1  64
TORSDOF 2
ENDMDL
