MODEL 1
REMARK VINA RESULT:   -11.152      0.000      0.000
REMARK INTER + INTRA:         -12.221
REMARK INTER:                 -12.129
REMARK INTRA:                  -0.091
REMARK UNBOUND:                -0.091
REMARK  Name = 
REMARK  2 active torsions:
REMARK  status: ('A' for Active; 'I' for Inactive)
REMARK    1  A    between atoms: C_26  and  C_27
REMARK    2  A    between atoms: C_27  and  O_28
REMARK                            x       y       z     vdW  Elec       q    Type
REMARK                         _______ _______ _______ _____ _____    ______ ____
ROOT
ATOM      1  O   UNL     1      -8.701  -4.969  20.127  0.00  0.00    +0.000 OA
ATOM      2  C   UNL     1      -8.748  -6.174  19.916  0.00  0.00    +0.000 C 
ATOM      3  N   UNL     1      -8.414  -7.117  20.862  0.00  0.00    +0.000 N 
ATOM      4  C   UNL     1      -8.573  -8.439  20.520  0.00  0.00    +0.000 C 
ATOM      5  O   UNL     1      -8.479  -9.353  21.318  0.00  0.00    +0.000 OA
ATOM      6  C   UNL     1      -8.914  -8.346  19.133  0.00  0.00    +0.000 A 
ATOM      7  C   UNL     1      -9.115  -6.960  18.775  0.00  0.00    +0.000 A 
ATOM      8  C   UNL     1      -9.725  -6.656  17.513  0.00  0.00    +0.000 A 
ATOM      9  C   UNL     1     -10.153  -5.459  16.913  0.00  0.00    +0.000 A 
ATOM     10  C   UNL     1     -10.004  -4.061  17.017  0.00  0.00    +0.000 A 
ATOM     11  C   UNL     1     -10.722  -3.217  16.134  0.00  0.00    +0.000 A 
ATOM     12  C   UNL     1     -11.642  -3.725  15.216  0.00  0.00    +0.000 A 
ATOM     13  C   UNL     1     -11.793  -5.092  15.071  0.00  0.00    +0.000 A 
ATOM     14  C   UNL     1     -10.993  -5.912  15.869  0.00  0.00    +0.000 A 
ATOM     15  N   UNL     1     -10.873  -7.276  15.777  0.00  0.00    +0.000 N 
ATOM     16  C   UNL     1      -9.988  -7.711  16.703  0.00  0.00    +0.000 A 
ATOM     17  C   UNL     1      -9.502  -8.973  16.906  0.00  0.00    +0.000 A 
ATOM     18  C   UNL     1      -9.030  -9.336  18.124  0.00  0.00    +0.000 A 
ATOM     19  C   UNL     1      -8.759 -10.697  18.218  0.00  0.00    +0.000 A 
ATOM     20  C   UNL     1      -8.355 -11.661  19.157  0.00  0.00    +0.000 A 
ATOM     21  C   UNL     1      -8.196 -12.996  18.747  0.00  0.00    +0.000 A 
ATOM     22  C   UNL     1      -8.426 -13.385  17.425  0.00  0.00    +0.000 A 
ATOM     23  C   UNL     1      -8.818 -12.449  16.468  0.00  0.00    +0.000 A 
ATOM     24  C   UNL     1      -8.988 -11.133  16.904  0.00  0.00    +0.000 A 
ATOM     25  N   UNL     1      -9.371 -10.059  16.101  0.00  0.00    +0.000 N 
ATOM     26  C   UNL     1      -9.549 -10.236  14.658  0.00  0.00    +0.000 C 
ATOM     27  C   UNL     1      -8.837 -11.533  14.165  0.00  0.00    +0.000 C 
ATOM     28  C   UNL     1      -9.109 -12.770  15.035  0.00  0.00    +0.000 C 
ATOM     29  H   UNL     1      -8.172  -6.870  21.811  0.00  0.00    +0.000 HD
ATOM     30  H   UNL     1      -9.295  -3.617  17.712  0.00  0.00    +0.000 HD
ATOM     31  H   UNL     1     -10.566  -2.140  16.163  0.00  0.00    +0.000 HD
ATOM     32  H   UNL     1     -12.227  -3.061  14.585  0.00  0.00    +0.000 HD
ATOM     33  H   UNL     1     -12.481  -5.513  14.344  0.00  0.00    +0.000 HD
ATOM     34  H   UNL     1     -11.363  -7.849  15.107  0.00  0.00    +0.000 HD
ATOM     35  H   UNL     1      -8.175 -11.404  20.194  0.00  0.00    +0.000 HD
ATOM     36  H   UNL     1      -7.889 -13.740  19.479  0.00  0.00    +0.000 HD
ATOM     37  H   UNL     1      -8.288 -14.426  17.144  0.00  0.00    +0.000 HD
ATOM     38  H   UNL     1     -10.632 -10.349  14.521  0.00  0.00    +0.000 HD
ATOM     39  H   UNL     1      -7.752 -11.363  14.146  0.00  0.00    +0.000 HD
ATOM     40  H   UNL     1      -9.141 -11.743  13.132  0.00  0.00    +0.000 HD
ATOM     41  H   UNL     1      -8.473 -13.592  14.690  0.00  0.00    +0.000 HD
ATOM     42  H   UNL     1     -10.155 -13.076  14.938  0.00  0.00    +0.000 HD
ENDROOT
BRANCH  26  43
ATOM     43  C   UNL     1      -9.055  -9.074  13.761  0.00  0.00    +0.000 C 
ATOM     44  H   UNL     1      -7.974  -8.999  13.679  0.00  0.00    +0.000 HD
ATOM     45  H   UNL     1      -9.375  -8.124  14.205  0.00  0.00    +0.000 HD
BRANCH  43  46
ATOM     46  O   UNL     1      -9.588  -9.116  12.443  0.00  0.00    +0.000 OA
ATOM     47  H   UNL     1      -9.723 -10.052  12.210  0.00  0.00    +0.000 HD
ENDBRANCH  43  46
ENDBRANCH  26  43
TORSDOF 2
ENDMDL
MODEL 2
REMARK VINA RESULT:   -11.005      2.181      5.199
REMARK INTER + INTRA:         -12.061
REMARK INTER:                 -11.967
REMARK INTRA:                  -0.094
REMARK UNBOUND:                -0.091
REMARK  Name = 
REMARK  2 active torsions:
REMARK  status: ('A' for Active; 'I' for Inactive)
REMARK    1  A    between atoms: C_26  and  C_27
REMARK    2  A    between atoms: C_27  and  O_28
REMARK                            x       y       z     vdW  Elec       q    Type
REMARK                         _______ _______ _______ _____ _____    ______ ____
ROOT
ATOM      1  O   UNL     1     -10.644  -2.336  17.940  0.00  0.00    +0.000 OA
ATOM      2  C   UNL     1     -10.463  -3.450  17.465  0.00  0.00    +0.000 C 
ATOM      3  N   UNL     1     -10.943  -3.828  16.231  0.00  0.00    +0.000 N 
ATOM      4  C   UNL     1     -10.614  -5.085  15.783  0.00  0.00    +0.000 C 
ATOM      5  O   UNL     1     -10.829  -5.470  14.648  0.00  0.00    +0.000 OA
ATOM      6  C   UNL     1      -9.961  -5.645  16.928  0.00  0.00    +0.000 A 
ATOM      7  C   UNL     1      -9.780  -4.621  17.931  0.00  0.00    +0.000 A 
ATOM      8  C   UNL     1      -8.912  -4.890  19.041  0.00  0.00    +0.000 A 
ATOM      9  C   UNL     1      -8.441  -4.105  20.108  0.00  0.00    +0.000 A 
ATOM     10  C   UNL     1      -8.710  -2.902  20.793  0.00  0.00    +0.000 A 
ATOM     11  C   UNL     1      -7.865  -2.504  21.858  0.00  0.00    +0.000 A 
ATOM     12  C   UNL     1      -6.720  -3.226  22.198  0.00  0.00    +0.000 A 
ATOM     13  C   UNL     1      -6.442  -4.423  21.564  0.00  0.00    +0.000 A 
ATOM     14  C   UNL     1      -7.348  -4.859  20.595  0.00  0.00    +0.000 A 
ATOM     15  N   UNL     1      -7.345  -6.077  19.963  0.00  0.00    +0.000 N 
ATOM     16  C   UNL     1      -8.390  -6.140  19.107  0.00  0.00    +0.000 A 
ATOM     17  C   UNL     1      -8.820  -7.190  18.345  0.00  0.00    +0.000 A 
ATOM     18  C   UNL     1      -9.540  -6.968  17.217  0.00  0.00    +0.000 A 
ATOM     19  C   UNL     1      -9.728  -8.117  16.457  0.00  0.00    +0.000 A 
ATOM     20  C   UNL     1     -10.273  -8.530  15.230  0.00  0.00    +0.000 A 
ATOM     21  C   UNL     1     -10.234  -9.892  14.883  0.00  0.00    +0.000 A 
ATOM     22  C   UNL     1      -9.671 -10.845  15.735  0.00  0.00    +0.000 A 
ATOM     23  C   UNL     1      -9.131 -10.467  16.964  0.00  0.00    +0.000 A 
ATOM     24  C   UNL     1      -9.164  -9.106  17.277  0.00  0.00    +0.000 A 
ATOM     25  N   UNL     1      -8.679  -8.537  18.454  0.00  0.00    +0.000 N 
ATOM     26  C   UNL     1      -8.152  -9.383  19.528  0.00  0.00    +0.000 C 
ATOM     27  C   UNL     1      -8.633 -10.856  19.360  0.00  0.00    +0.000 C 
ATOM     28  C   UNL     1      -8.487 -11.409  17.935  0.00  0.00    +0.000 C 
ATOM     29  H   UNL     1     -11.419  -3.185  15.615  0.00  0.00    +0.000 HD
ATOM     30  H   UNL     1      -9.592  -2.309  20.568  0.00  0.00    +0.000 HD
ATOM     31  H   UNL     1      -8.100  -1.611  22.434  0.00  0.00    +0.000 HD
ATOM     32  H   UNL     1      -6.051  -2.877  22.980  0.00  0.00    +0.000 HD
ATOM     33  H   UNL     1      -5.573  -5.018  21.830  0.00  0.00    +0.000 HD
ATOM     34  H   UNL     1      -6.671  -6.808  20.133  0.00  0.00    +0.000 HD
ATOM     35  H   UNL     1     -10.711  -7.822  14.536  0.00  0.00    +0.000 HD
ATOM     36  H   UNL     1     -10.652 -10.206  13.929  0.00  0.00    +0.000 HD
ATOM     37  H   UNL     1      -9.665 -11.890  15.434  0.00  0.00    +0.000 HD
ATOM     38  H   UNL     1      -7.062  -9.346  19.405  0.00  0.00    +0.000 HD
ATOM     39  H   UNL     1      -9.692 -10.924  19.645  0.00  0.00    +0.000 HD
ATOM     40  H   UNL     1      -8.079 -11.499  20.057  0.00  0.00    +0.000 HD
ATOM     41  H   UNL     1      -8.964 -12.394  17.886  0.00  0.00    +0.000 HD
ATOM     42  H   UNL     1      -7.429 -11.522  17.681  0.00  0.00    +0.000 HD
ENDROOT
BRANCH  26  43
ATOM     43  C   UNL     1      -8.501  -8.949  20.973  0.00  0.00    +0.000 C 
ATOM     44  H   UNL     1      -9.279  -8.193  21.038  0.00  0.00    +0.000 HD
ATOM     45  H   UNL     1      -7.615  -8.488  21.427  0.00  0.00    +0.000 HD
BRANCH  43  46
ATOM     46  O   UNL     1      -8.880 -10.034  21.811  0.00  0.00    +0.000 OA
ATOM     47  H   UNL     1      -8.073 -10.364  22.247  0.00  0.00    +0.000 HD
ENDBRANCH  43  46
ENDBRANCH  26  43
TORSDOF 2
ENDMDL
MODEL 3
REMARK VINA RESULT:   -10.764      3.103      7.535
REMARK INTER + INTRA:         -11.799
REMARK INTER:                 -11.661
REMARK INTRA:                  -0.138
REMARK UNBOUND:                -0.091
REMARK  Name = 
REMARK  2 active torsions:
REMARK  status: ('A' for Active; 'I' for Inactive)
REMARK    1  A    between atoms: C_26  and  C_27
REMARK    2  A    between atoms: C_27  and  O_28
REMARK                            x       y       z     vdW  Elec       q    Type
REMARK                         _______ _______ _______ _____ _____    ______ ____
ROOT
ATOM      1  O   UNL     1     -11.894  -5.275  15.402  0.00  0.00    +0.000 OA
ATOM      2  C   UNL     1     -11.485  -4.706  16.405  0.00  0.00    +0.000 C 
ATOM      3  N   UNL     1     -11.987  -3.501  16.843  0.00  0.00    +0.000 N 
ATOM      4  C   UNL     1     -11.487  -2.998  18.021  0.00  0.00    +0.000 C 
ATOM      5  O   UNL     1     -11.966  -2.039  18.598  0.00  0.00    +0.000 OA
ATOM      6  C   UNL     1     -10.427  -3.917  18.308  0.00  0.00    +0.000 A 
ATOM      7  C   UNL     1     -10.477  -5.020  17.375  0.00  0.00    +0.000 A 
ATOM      8  C   UNL     1      -9.685  -6.186  17.642  0.00  0.00    +0.000 A 
ATOM      9  C   UNL     1      -9.580  -7.443  17.022  0.00  0.00    +0.000 A 
ATOM     10  C   UNL     1      -9.889  -8.105  15.817  0.00  0.00    +0.000 A 
ATOM     11  C   UNL     1      -9.587  -9.482  15.682  0.00  0.00    +0.000 A 
ATOM     12  C   UNL     1      -9.067 -10.229  16.740  0.00  0.00    +0.000 A 
ATOM     13  C   UNL     1      -8.728  -9.604  17.926  0.00  0.00    +0.000 A 
ATOM     14  C   UNL     1      -8.925  -8.225  18.003  0.00  0.00    +0.000 A 
ATOM     15  N   UNL     1      -8.518  -7.395  19.018  0.00  0.00    +0.000 N 
ATOM     16  C   UNL     1      -8.870  -6.123  18.725  0.00  0.00    +0.000 A 
ATOM     17  C   UNL     1      -8.587  -4.971  19.404  0.00  0.00    +0.000 A 
ATOM     18  C   UNL     1      -9.388  -3.884  19.272  0.00  0.00    +0.000 A 
ATOM     19  C   UNL     1      -9.081  -2.869  20.171  0.00  0.00    +0.000 A 
ATOM     20  C   UNL     1      -9.542  -1.609  20.585  0.00  0.00    +0.000 A 
ATOM     21  C   UNL     1      -8.844  -0.915  21.589  0.00  0.00    +0.000 A 
ATOM     22  C   UNL     1      -7.698  -1.450  22.181  0.00  0.00    +0.000 A 
ATOM     23  C   UNL     1      -7.210  -2.696  21.785  0.00  0.00    +0.000 A 
ATOM     24  C   UNL     1      -7.932  -3.373  20.800  0.00  0.00    +0.000 A 
ATOM     25  N   UNL     1      -7.603  -4.622  20.273  0.00  0.00    +0.000 N 
ATOM     26  C   UNL     1      -6.370  -5.300  20.680  0.00  0.00    +0.000 C 
ATOM     27  C   UNL     1      -5.372  -4.294  21.330  0.00  0.00    +0.000 C 
ATOM     28  C   UNL     1      -6.005  -3.362  22.373  0.00  0.00    +0.000 C 
ATOM     29  H   UNL     1     -12.771  -3.047  16.397  0.00  0.00    +0.000 HD
ATOM     30  H   UNL     1     -10.290  -7.566  14.962  0.00  0.00    +0.000 HD
ATOM     31  H   UNL     1      -9.763  -9.988  14.734  0.00  0.00    +0.000 HD
ATOM     32  H   UNL     1      -8.894 -11.297  16.639  0.00  0.00    +0.000 HD
ATOM     33  H   UNL     1      -8.295 -10.157  18.755  0.00  0.00    +0.000 HD
ATOM     34  H   UNL     1      -8.021  -7.700  19.840  0.00  0.00    +0.000 HD
ATOM     35  H   UNL     1     -10.432  -1.161  20.158  0.00  0.00    +0.000 HD
ATOM     36  H   UNL     1      -9.209   0.058  21.910  0.00  0.00    +0.000 HD
ATOM     37  H   UNL     1      -7.181  -0.882  22.952  0.00  0.00    +0.000 HD
ATOM     38  H   UNL     1      -6.688  -6.028  21.438  0.00  0.00    +0.000 HD
ATOM     39  H   UNL     1      -4.926  -3.670  20.543  0.00  0.00    +0.000 HD
ATOM     40  H   UNL     1      -4.547  -4.851  21.793  0.00  0.00    +0.000 HD
ATOM     41  H   UNL     1      -5.264  -2.615  22.677  0.00  0.00    +0.000 HD
ATOM     42  H   UNL     1      -6.303  -3.935  23.258  0.00  0.00    +0.000 HD
ENDROOT
BRANCH  26  43
ATOM     43  C   UNL     1      -5.603  -6.052  19.565  0.00  0.00    +0.000 C 
ATOM     44  H   UNL     1      -6.240  -6.590  18.868  0.00  0.00    +0.000 HD
ATOM     45  H   UNL     1      -4.971  -6.819  20.027  0.00  0.00    +0.000 HD
BRANCH  43  46
ATOM     46  O   UNL     1      -4.745  -5.209  18.806  0.00  0.00    +0.000 OA
ATOM     47  H   UNL     1      -3.870  -5.637  18.769  0.00  0.00    +0.000 HD
ENDBRANCH  43  46
ENDBRANCH  26  43
TORSDOF 2
ENDMDL
MODEL 4
REMARK VINA RESULT:    -9.862      3.130      7.871
REMARK INTER + INTRA:         -10.819
REMARK INTER:                 -10.715
REMARK INTRA:                  -0.104
REMARK UNBOUND:                -0.091
REMARK  Name = 
REMARK  2 active torsions:
REMARK  status: ('A' for Active; 'I' for Inactive)
REMARK    1  A    between atoms: C_26  and  C_27
REMARK    2  A    between atoms: C_27  and  O_28
REMARK                            x       y       z     vdW  Elec       q    Type
REMARK                         _______ _______ _______ _____ _____    ______ ____
ROOT
ATOM      1  O   UNL     1     -11.425  -4.960  14.502  0.00  0.00    +0.000 OA
ATOM      2  C   UNL     1     -11.242  -4.344  15.544  0.00  0.00    +0.000 C 
ATOM      3  N   UNL     1     -11.825  -3.124  15.808  0.00  0.00    +0.000 N 
ATOM      4  C   UNL     1     -11.592  -2.566  17.043  0.00  0.00    +0.000 C 
ATOM      5  O   UNL     1     -12.182  -1.586  17.458  0.00  0.00    +0.000 OA
ATOM      6  C   UNL     1     -10.622  -3.464  17.594  0.00  0.00    +0.000 A 
ATOM      7  C   UNL     1     -10.471  -4.607  16.723  0.00  0.00    +0.000 A 
ATOM      8  C   UNL     1      -9.759  -5.754  17.209  0.00  0.00    +0.000 A 
ATOM      9  C   UNL     1      -9.524  -7.036  16.683  0.00  0.00    +0.000 A 
ATOM     10  C   UNL     1      -9.566  -7.754  15.470  0.00  0.00    +0.000 A 
ATOM     11  C   UNL     1      -9.245  -9.134  15.467  0.00  0.00    +0.000 A 
ATOM     12  C   UNL     1      -8.969  -9.828  16.645  0.00  0.00    +0.000 A 
ATOM     13  C   UNL     1      -8.895  -9.149  17.847  0.00  0.00    +0.000 A 
ATOM     14  C   UNL     1      -9.101  -7.769  17.817  0.00  0.00    +0.000 A 
ATOM     15  N   UNL     1      -8.922  -6.893  18.858  0.00  0.00    +0.000 N 
ATOM     16  C   UNL     1      -9.198  -5.637  18.438  0.00  0.00    +0.000 A 
ATOM     17  C   UNL     1      -9.068  -4.454  19.111  0.00  0.00    +0.000 A 
ATOM     18  C   UNL     1      -9.817  -3.380  18.758  0.00  0.00    +0.000 A 
ATOM     19  C   UNL     1      -9.711  -2.324  19.657  0.00  0.00    +0.000 A 
ATOM     20  C   UNL     1     -10.248  -1.050  19.903  0.00  0.00    +0.000 A 
ATOM     21  C   UNL     1      -9.784  -0.308  21.003  0.00  0.00    +0.000 A 
ATOM     22  C   UNL     1      -8.795  -0.807  21.854  0.00  0.00    +0.000 A 
ATOM     23  C   UNL     1      -8.235  -2.065  21.630  0.00  0.00    +0.000 A 
ATOM     24  C   UNL     1      -8.728  -2.791  20.543  0.00  0.00    +0.000 A 
ATOM     25  N   UNL     1      -8.295  -4.059  20.156  0.00  0.00    +0.000 N 
ATOM     26  C   UNL     1      -7.182  -4.710  20.852  0.00  0.00    +0.000 C 
ATOM     27  C   UNL     1      -6.346  -3.669  21.657  0.00  0.00    +0.000 C 
ATOM     28  C   UNL     1      -7.189  -2.697  22.495  0.00  0.00    +0.000 C 
ATOM     29  H   UNL     1     -12.492  -2.696  15.182  0.00  0.00    +0.000 HD
ATOM     30  H   UNL     1      -9.769  -7.256  14.525  0.00  0.00    +0.000 HD
ATOM     31  H   UNL     1      -9.212  -9.682  14.527  0.00  0.00    +0.000 HD
ATOM     32  H   UNL     1      -8.781 -10.898  16.632  0.00  0.00    +0.000 HD
ATOM     33  H   UNL     1      -8.654  -9.662  18.774  0.00  0.00    +0.000 HD
ATOM     34  H   UNL     1      -8.616  -7.157  19.781  0.00  0.00    +0.000 HD
ATOM     35  H   UNL     1     -11.023  -0.628  19.273  0.00  0.00    +0.000 HD
ATOM     36  H   UNL     1     -10.207   0.676  21.193  0.00  0.00    +0.000 HD
ATOM     37  H   UNL     1      -8.457  -0.202  22.692  0.00  0.00    +0.000 HD
ATOM     38  H   UNL     1      -7.659  -5.406  21.554  0.00  0.00    +0.000 HD
ATOM     39  H   UNL     1      -5.739  -3.077  20.959  0.00  0.00    +0.000 HD
ATOM     40  H   UNL     1      -5.643  -4.199  22.313  0.00  0.00    +0.000 HD
ATOM     41  H   UNL     1      -6.530  -1.931  22.919  0.00  0.00    +0.000 HD
ATOM     42  H   UNL     1      -7.674  -3.231  23.318  0.00  0.00    +0.000 HD
ENDROOT
BRANCH  26  43
ATOM     43  C   UNL     1      -6.193  -5.505  19.965  0.00  0.00    +0.000 C 
ATOM     44  H   UNL     1      -6.547  -5.691  18.955  0.00  0.00    +0.000 HD
ATOM     45  H   UNL     1      -6.044  -6.498  20.404  0.00  0.00    +0.000 HD
BRANCH  43  46
ATOM     46  O   UNL     1      -4.910  -4.897  19.869  0.00  0.00    +0.000 OA
ATOM     47  H   UNL     1      -4.358  -5.463  19.298  0.00  0.00    +0.000 HD
ENDBRANCH  43  46
ENDBRANCH  26  43
TORSDOF 2
ENDMDL
MODEL 5
REMARK VINA RESULT:    -9.304      3.884      6.660
REMARK INTER + INTRA:         -10.212
REMARK INTER:                 -10.034
REMARK INTRA:                  -0.177
REMARK UNBOUND:                -0.091
REMARK  Name = 
REMARK  2 active torsions:
REMARK  status: ('A' for Active; 'I' for Inactive)
REMARK    1  A    between atoms: C_26  and  C_27
REMARK    2  A    between atoms: C_27  and  O_28
REMARK                            x       y       z     vdW  Elec       q    Type
REMARK                         _______ _______ _______ _____ _____    ______ ____
ROOT
ATOM      1  O   UNL     1      -5.100  -3.256  22.237  0.00  0.00    +0.000 OA
ATOM      2  C   UNL     1      -5.743  -3.906  21.423  0.00  0.00    +0.000 C 
ATOM      3  N   UNL     1      -5.254  -5.037  20.809  0.00  0.00    +0.000 N 
ATOM      4  C   UNL     1      -6.101  -5.714  19.964  0.00  0.00    +0.000 C 
ATOM      5  O   UNL     1      -5.850  -6.812  19.500  0.00  0.00    +0.000 OA
ATOM      6  C   UNL     1      -7.230  -4.835  19.911  0.00  0.00    +0.000 A 
ATOM      7  C   UNL     1      -7.060  -3.771  20.874  0.00  0.00    +0.000 A 
ATOM      8  C   UNL     1      -8.184  -2.935  21.183  0.00  0.00    +0.000 A 
ATOM      9  C   UNL     1      -8.393  -1.908  22.119  0.00  0.00    +0.000 A 
ATOM     10  C   UNL     1      -7.687  -1.023  22.960  0.00  0.00    +0.000 A 
ATOM     11  C   UNL     1      -8.405  -0.136  23.797  0.00  0.00    +0.000 A 
ATOM     12  C   UNL     1      -9.798  -0.166  23.879  0.00  0.00    +0.000 A 
ATOM     13  C   UNL     1     -10.522  -1.003  23.050  0.00  0.00    +0.000 A 
ATOM     14  C   UNL     1      -9.803  -1.789  22.148  0.00  0.00    +0.000 A 
ATOM     15  N   UNL     1     -10.324  -2.564  21.143  0.00  0.00    +0.000 N 
ATOM     16  C   UNL     1      -9.314  -3.159  20.467  0.00  0.00    +0.000 A 
ATOM     17  C   UNL     1      -9.368  -3.938  19.344  0.00  0.00    +0.000 A 
ATOM     18  C   UNL     1      -8.382  -4.831  19.084  0.00  0.00    +0.000 A 
ATOM     19  C   UNL     1      -8.680  -5.676  18.021  0.00  0.00    +0.000 A 
ATOM     20  C   UNL     1      -8.162  -6.791  17.341  0.00  0.00    +0.000 A 
ATOM     21  C   UNL     1      -8.868  -7.319  16.245  0.00  0.00    +0.000 A 
ATOM     22  C   UNL     1     -10.070  -6.754  15.813  0.00  0.00    +0.000 A 
ATOM     23  C   UNL     1     -10.605  -5.641  16.462  0.00  0.00    +0.000 A 
ATOM     24  C   UNL     1      -9.896  -5.148  17.559  0.00  0.00    +0.000 A 
ATOM     25  N   UNL     1     -10.266  -4.047  18.331  0.00  0.00    +0.000 N 
ATOM     26  C   UNL     1     -11.438  -3.246  17.971  0.00  0.00    +0.000 C 
ATOM     27  C   UNL     1     -11.848  -3.497  16.487  0.00  0.00    +0.000 C 
ATOM     28  C   UNL     1     -11.896  -4.979  16.089  0.00  0.00    +0.000 C 
ATOM     29  H   UNL     1      -4.356  -5.436  21.044  0.00  0.00    +0.000 HD
ATOM     30  H   UNL     1      -6.602  -0.958  22.928  0.00  0.00    +0.000 HD
ATOM     31  H   UNL     1      -7.871   0.594  24.402  0.00  0.00    +0.000 HD
ATOM     32  H   UNL     1     -10.331   0.482  24.569  0.00  0.00    +0.000 HD
ATOM     33  H   UNL     1     -11.607  -1.025  23.074  0.00  0.00    +0.000 HD
ATOM     34  H   UNL     1     -11.307  -2.653  20.941  0.00  0.00    +0.000 HD
ATOM     35  H   UNL     1      -7.237  -7.265  17.649  0.00  0.00    +0.000 HD
ATOM     36  H   UNL     1      -8.465  -8.186  15.726  0.00  0.00    +0.000 HD
ATOM     37  H   UNL     1     -10.585  -7.187  14.958  0.00  0.00    +0.000 HD
ATOM     38  H   UNL     1     -12.239  -3.609  18.629  0.00  0.00    +0.000 HD
ATOM     39  H   UNL     1     -11.132  -2.991  15.825  0.00  0.00    +0.000 HD
ATOM     40  H   UNL     1     -12.827  -3.039  16.299  0.00  0.00    +0.000 HD
ATOM     41  H   UNL     1     -12.065  -5.051  15.009  0.00  0.00    +0.000 HD
ATOM     42  H   UNL     1     -12.721  -5.482  16.604  0.00  0.00    +0.000 HD
ENDROOT
BRANCH  26  43
ATOM     43  C   UNL     1     -11.303  -1.715  18.156  0.00  0.00    +0.000 C 
ATOM     44  H   UNL     1     -11.174  -1.398  19.187  0.00  0.00    +0.000 HD
ATOM     45  H   UNL     1     -12.231  -1.235  17.823  0.00  0.00    +0.000 HD
BRANCH  43  46
ATOM     46  O   UNL     1     -10.246  -1.147  17.392  0.00  0.00    +0.000 OA
ATOM     47  H   UNL     1     -10.108  -1.715  16.612  0.00  0.00    +0.000 HD
ENDBRANCH  43  46
ENDBRANCH  26  43
TORSDOF 2
ENDMDL
MODEL 6
REMARK VINA RESULT:    -9.253      1.946      6.594
REMARK INTER + INTRA:         -10.156
REMARK INTER:                 -10.067
REMARK INTRA:                  -0.089
REMARK UNBOUND:                -0.091
REMARK  Name = 
REMARK  2 active torsions:
REMARK  status: ('A' for Active; 'I' for Inactive)
REMARK    1  A    between atoms: C_26  and  C_27
REMARK    2  A    between atoms: C_27  and  O_28
REMARK                            x       y       z     vdW  Elec       q    Type
REMARK                         _______ _______ _______ _____ _____    ______ ____
ROOT
ATOM      1  O   UNL     1      -8.694  -9.117  20.153  0.00  0.00    +0.000 OA
ATOM      2  C   UNL     1      -8.712  -7.907  19.968  0.00  0.00    +0.000 C 
ATOM      3  N   UNL     1      -8.376  -6.992  20.942  0.00  0.00    +0.000 N 
ATOM      4  C   UNL     1      -8.373  -5.664  20.587  0.00  0.00    +0.000 C 
ATOM      5  O   UNL     1      -7.932  -4.781  21.300  0.00  0.00    +0.000 OA
ATOM      6  C   UNL     1      -8.912  -5.711  19.262  0.00  0.00    +0.000 A 
ATOM      7  C   UNL     1      -9.036  -7.087  18.838  0.00  0.00    +0.000 A 
ATOM      8  C   UNL     1      -9.296  -7.361  17.454  0.00  0.00    +0.000 A 
ATOM      9  C   UNL     1      -9.367  -8.547  16.703  0.00  0.00    +0.000 A 
ATOM     10  C   UNL     1      -9.506  -9.941  16.857  0.00  0.00    +0.000 A 
ATOM     11  C   UNL     1      -9.487 -10.774  15.711  0.00  0.00    +0.000 A 
ATOM     12  C   UNL     1      -9.250 -10.263  14.435  0.00  0.00    +0.000 A 
ATOM     13  C   UNL     1      -9.136  -8.898  14.245  0.00  0.00    +0.000 A 
ATOM     14  C   UNL     1      -9.271  -8.082  15.370  0.00  0.00    +0.000 A 
ATOM     15  N   UNL     1      -9.346  -6.712  15.382  0.00  0.00    +0.000 N 
ATOM     16  C   UNL     1      -9.497  -6.283  16.656  0.00  0.00    +0.000 A 
ATOM     17  C   UNL     1      -9.702  -5.013  17.120  0.00  0.00    +0.000 A 
ATOM     18  C   UNL     1      -9.352  -4.684  18.388  0.00  0.00    +0.000 A 
ATOM     19  C   UNL     1      -9.440  -3.319  18.640  0.00  0.00    +0.000 A 
ATOM     20  C   UNL     1      -9.165  -2.381  19.648  0.00  0.00    +0.000 A 
ATOM     21  C   UNL     1      -9.458  -1.024  19.425  0.00  0.00    +0.000 A 
ATOM     22  C   UNL     1     -10.022  -0.589  18.224  0.00  0.00    +0.000 A 
ATOM     23  C   UNL     1     -10.316  -1.498  17.207  0.00  0.00    +0.000 A 
ATOM     24  C   UNL     1      -9.997  -2.837  17.445  0.00  0.00    +0.000 A 
ATOM     25  N   UNL     1     -10.217  -3.889  16.557  0.00  0.00    +0.000 N 
ATOM     26  C   UNL     1     -10.906  -3.658  15.285  0.00  0.00    +0.000 C 
ATOM     27  C   UNL     1     -11.696  -2.315  15.318  0.00  0.00    +0.000 C 
ATOM     28  C   UNL     1     -10.900  -1.128  15.879  0.00  0.00    +0.000 C 
ATOM     29  H   UNL     1      -8.032  -7.270  21.849  0.00  0.00    +0.000 HD
ATOM     30  H   UNL     1      -9.699 -10.386  17.831  0.00  0.00    +0.000 HD
ATOM     31  H   UNL     1      -9.657 -11.844  15.814  0.00  0.00    +0.000 HD
ATOM     32  H   UNL     1      -9.182 -10.922  13.573  0.00  0.00    +0.000 HD
ATOM     33  H   UNL     1      -8.980  -8.473  13.258  0.00  0.00    +0.000 HD
ATOM     34  H   UNL     1      -9.308  -6.130  14.560  0.00  0.00    +0.000 HD
ATOM     35  H   UNL     1      -8.720  -2.675  20.592  0.00  0.00    +0.000 HD
ATOM     36  H   UNL     1      -9.237  -0.301  20.207  0.00  0.00    +0.000 HD
ATOM     37  H   UNL     1     -10.240   0.468  18.089  0.00  0.00    +0.000 HD
ATOM     38  H   UNL     1     -10.102  -3.582  14.541  0.00  0.00    +0.000 HD
ATOM     39  H   UNL     1     -12.596  -2.442  15.936  0.00  0.00    +0.000 HD
ATOM     40  H   UNL     1     -12.043  -2.074  14.305  0.00  0.00    +0.000 HD
ATOM     41  H   UNL     1     -11.570  -0.268  15.981  0.00  0.00    +0.000 HD
ATOM     42  H   UNL     1     -10.092  -0.858  15.191  0.00  0.00    +0.000 HD
ENDROOT
BRANCH  26  43
ATOM     43  C   UNL     1     -11.894  -4.761  14.833  0.00  0.00    +0.000 C 
ATOM     44  H   UNL     1     -12.798  -4.826  15.433  0.00  0.00    +0.000 HD
ATOM     45  H   UNL     1     -11.408  -5.738  14.942  0.00  0.00    +0.000 HD
BRANCH  43  46
ATOM     46  O   UNL     1     -12.286  -4.642  13.471  0.00  0.00    +0.000 OA
ATOM     47  H   UNL     1     -12.238  -3.698  13.233  0.00  0.00    +0.000 HD
ENDBRANCH  43  46
ENDBRANCH  26  43
TORSDOF 2
ENDMDL
MODEL 7
REMARK VINA RESULT:    -9.016      4.621      7.883
REMARK INTER + INTRA:          -9.898
REMARK INTER:                  -9.501
REMARK INTRA:                  -0.397
REMARK UNBOUND:                -0.091
REMARK  Name = 
REMARK  2 active torsions:
REMARK  status: ('A' for Active; 'I' for Inactive)
REMARK    1  A    between atoms: C_26  and  C_27
REMARK    2  A    between atoms: C_27  and  O_28
REMARK                            x       y       z     vdW  Elec       q    Type
REMARK                         _______ _______ _______ _____ _____    ______ ____
ROOT
ATOM      1  O   UNL     1      -6.166  -3.984  22.122  0.00  0.00    +0.000 OA
ATOM      2  C   UNL     1      -6.946  -4.213  21.206  0.00  0.00    +0.000 C 
ATOM      3  N   UNL     1      -6.894  -5.359  20.445  0.00  0.00    +0.000 N 
ATOM      4  C   UNL     1      -7.868  -5.527  19.489  0.00  0.00    +0.000 C 
ATOM      5  O   UNL     1      -8.033  -6.565  18.875  0.00  0.00    +0.000 OA
ATOM      6  C   UNL     1      -8.550  -4.269  19.538  0.00  0.00    +0.000 A 
ATOM      7  C   UNL     1      -8.053  -3.492  20.650  0.00  0.00    +0.000 A 
ATOM      8  C   UNL     1      -8.777  -2.321  21.051  0.00  0.00    +0.000 A 
ATOM      9  C   UNL     1      -8.640  -1.422  22.123  0.00  0.00    +0.000 A 
ATOM     10  C   UNL     1      -7.712  -1.009  23.102  0.00  0.00    +0.000 A 
ATOM     11  C   UNL     1      -8.088  -0.020  24.043  0.00  0.00    +0.000 A 
ATOM     12  C   UNL     1      -9.382   0.503  24.085  0.00  0.00    +0.000 A 
ATOM     13  C   UNL     1     -10.307   0.139  23.124  0.00  0.00    +0.000 A 
ATOM     14  C   UNL     1      -9.885  -0.751  22.134  0.00  0.00    +0.000 A 
ATOM     15  N   UNL     1     -10.586  -1.119  21.013  0.00  0.00    +0.000 N 
ATOM     16  C   UNL     1      -9.842  -1.980  20.282  0.00  0.00    +0.000 A 
ATOM     17  C   UNL     1     -10.107  -2.525  19.057  0.00  0.00    +0.000 A 
ATOM     18  C   UNL     1      -9.535  -3.699  18.692  0.00  0.00    +0.000 A 
ATOM     19  C   UNL     1     -10.055  -4.213  17.509  0.00  0.00    +0.000 A 
ATOM     20  C   UNL     1      -9.965  -5.347  16.686  0.00  0.00    +0.000 A 
ATOM     21  C   UNL     1     -10.729  -5.405  15.507  0.00  0.00    +0.000 A 
ATOM     22  C   UNL     1     -11.572  -4.356  15.134  0.00  0.00    +0.000 A 
ATOM     23  C   UNL     1     -11.676  -3.212  15.925  0.00  0.00    +0.000 A 
ATOM     24  C   UNL     1     -10.922  -3.187  17.101  0.00  0.00    +0.000 A 
ATOM     25  N   UNL     1     -10.889  -2.136  18.016  0.00  0.00    +0.000 N 
ATOM     26  C   UNL     1     -11.616  -0.893  17.749  0.00  0.00    +0.000 C 
ATOM     27  C   UNL     1     -11.970  -0.771  16.235  0.00  0.00    +0.000 C 
ATOM     28  C   UNL     1     -12.566  -2.046  15.622  0.00  0.00    +0.000 C 
ATOM     29  H   UNL     1      -6.249  -6.111  20.640  0.00  0.00    +0.000 HD
ATOM     30  H   UNL     1      -6.691  -1.382  23.106  0.00  0.00    +0.000 HD
ATOM     31  H   UNL     1      -7.360   0.352  24.762  0.00  0.00    +0.000 HD
ATOM     32  H   UNL     1      -9.670   1.219  24.849  0.00  0.00    +0.000 HD
ATOM     33  H   UNL     1     -11.311   0.552  23.118  0.00  0.00    +0.000 HD
ATOM     34  H   UNL     1     -11.505  -0.779  20.776  0.00  0.00    +0.000 HD
ATOM     35  H   UNL     1      -9.330  -6.187  16.943  0.00  0.00    +0.000 HD
ATOM     36  H   UNL     1     -10.661  -6.289  14.876  0.00  0.00    +0.000 HD
ATOM     37  H   UNL     1     -12.144  -4.435  14.212  0.00  0.00    +0.000 HD
ATOM     38  H   UNL     1     -12.546  -0.983  18.327  0.00  0.00    +0.000 HD
ATOM     39  H   UNL     1     -11.060  -0.517  15.673  0.00  0.00    +0.000 HD
ATOM     40  H   UNL     1     -12.670   0.062  16.093  0.00  0.00    +0.000 HD
ATOM     41  H   UNL     1     -12.661  -1.909  14.539  0.00  0.00    +0.000 HD
ATOM     42  H   UNL     1     -13.561  -2.235  16.037  0.00  0.00    +0.000 HD
ENDROOT
BRANCH  26  43
ATOM     43  C   UNL     1     -10.903   0.418  18.161  0.00  0.00    +0.000 C 
ATOM     44  H   UNL     1     -10.814   1.149  17.361  0.00  0.00    +0.000 HD
ATOM     45  H   UNL     1      -9.872   0.184  18.451  0.00  0.00    +0.000 HD
BRANCH  43  46
ATOM     46  O   UNL     1     -11.511   1.064  19.273  0.00  0.00    +0.000 OA
ATOM     47  H   UNL     1     -11.504   2.022  19.096  0.00  0.00    +0.000 HD
ENDBRANCH  43  46
ENDBRANCH  26  43
TORSDOF 2
ENDMDL
MODEL 8
REMARK VINA RESULT:    -8.813      3.716      8.942
REMARK INTER + INTRA:          -9.677
REMARK INTER:                  -9.288
REMARK INTRA:                  -0.388
REMARK UNBOUND:                -0.091
REMARK  Name = 
REMARK  2 active torsions:
REMARK  status: ('A' for Active; 'I' for Inactive)
REMARK    1  A    between atoms: C_26  and  C_27
REMARK    2  A    between atoms: C_27  and  O_28
REMARK                            x       y       z     vdW  Elec       q    Type
REMARK                         _______ _______ _______ _____ _____    ______ ____
ROOT
ATOM      1  O   UNL     1     -10.929  -4.433  13.884  0.00  0.00    +0.000 OA
ATOM      2  C   UNL     1     -11.136  -3.625  14.780  0.00  0.00    +0.000 C 
ATOM      3  N   UNL     1     -11.806  -2.439  14.583  0.00  0.00    +0.000 N 
ATOM      4  C   UNL     1     -12.032  -1.650  15.686  0.00  0.00    +0.000 C 
ATOM      5  O   UNL     1     -12.756  -0.671  15.673  0.00  0.00    +0.000 OA
ATOM      6  C   UNL     1     -11.292  -2.339  16.699  0.00  0.00    +0.000 A 
ATOM      7  C   UNL     1     -10.817  -3.600  16.177  0.00  0.00    +0.000 A 
ATOM      8  C   UNL     1     -10.289  -4.570  17.093  0.00  0.00    +0.000 A 
ATOM      9  C   UNL     1      -9.852  -5.898  16.946  0.00  0.00    +0.000 A 
ATOM     10  C   UNL     1      -9.450  -6.821  15.959  0.00  0.00    +0.000 A 
ATOM     11  C   UNL     1      -9.112  -8.143  16.340  0.00  0.00    +0.000 A 
ATOM     12  C   UNL     1      -9.245  -8.587  17.656  0.00  0.00    +0.000 A 
ATOM     13  C   UNL     1      -9.612  -7.700  18.651  0.00  0.00    +0.000 A 
ATOM     14  C   UNL     1      -9.831  -6.373  18.278  0.00  0.00    +0.000 A 
ATOM     15  N   UNL     1     -10.049  -5.312  19.120  0.00  0.00    +0.000 N 
ATOM     16  C   UNL     1     -10.195  -4.183  18.390  0.00  0.00    +0.000 A 
ATOM     17  C   UNL     1     -10.338  -2.892  18.816  0.00  0.00    +0.000 A 
ATOM     18  C   UNL     1     -10.946  -1.973  18.024  0.00  0.00    +0.000 A 
ATOM     19  C   UNL     1     -11.187  -0.769  18.676  0.00  0.00    +0.000 A 
ATOM     20  C   UNL     1     -11.809   0.473  18.466  0.00  0.00    +0.000 A 
ATOM     21  C   UNL     1     -11.777   1.440  19.486  0.00  0.00    +0.000 A 
ATOM     22  C   UNL     1     -11.133   1.195  20.701  0.00  0.00    +0.000 A 
ATOM     23  C   UNL     1     -10.498  -0.024  20.935  0.00  0.00    +0.000 A 
ATOM     24  C   UNL     1     -10.562  -0.975  19.915  0.00  0.00    +0.000 A 
ATOM     25  N   UNL     1      -9.988  -2.246  19.959  0.00  0.00    +0.000 N 
ATOM     26  C   UNL     1      -9.170  -2.654  21.103  0.00  0.00    +0.000 C 
ATOM     27  C   UNL     1      -8.695  -1.412  21.917  0.00  0.00    +0.000 C 
ATOM     28  C   UNL     1      -9.802  -0.389  22.210  0.00  0.00    +0.000 C 
ATOM     29  H   UNL     1     -12.224  -2.194  13.697  0.00  0.00    +0.000 HD
ATOM     30  H   UNL     1      -9.324  -6.522  14.921  0.00  0.00    +0.000 HD
ATOM     31  H   UNL     1      -8.739  -8.845  15.596  0.00  0.00    +0.000 HD
ATOM     32  H   UNL     1      -9.036  -9.620  17.921  0.00  0.00    +0.000 HD
ATOM     33  H   UNL     1      -9.696  -8.014  19.688  0.00  0.00    +0.000 HD
ATOM     34  H   UNL     1     -10.077  -5.377  20.126  0.00  0.00    +0.000 HD
ATOM     35  H   UNL     1     -12.327   0.701  17.542  0.00  0.00    +0.000 HD
ATOM     36  H   UNL     1     -12.265   2.398  19.322  0.00  0.00    +0.000 HD
ATOM     37  H   UNL     1     -11.124   1.970  21.465  0.00  0.00    +0.000 HD
ATOM     38  H   UNL     1      -9.844  -3.255  21.729  0.00  0.00    +0.000 HD
ATOM     39  H   UNL     1      -7.898  -0.900  21.360  0.00  0.00    +0.000 HD
ATOM     40  H   UNL     1      -8.251  -1.748  22.863  0.00  0.00    +0.000 HD
ATOM     41  H   UNL     1      -9.352   0.498  22.669  0.00  0.00    +0.000 HD
ATOM     42  H   UNL     1     -10.529  -0.811  22.911  0.00  0.00    +0.000 HD
ENDROOT
BRANCH  26  43
ATOM     43  C   UNL     1      -7.913  -3.498  20.779  0.00  0.00    +0.000 C 
ATOM     44  H   UNL     1      -6.998  -3.130  21.233  0.00  0.00    +0.000 HD
ATOM     45  H   UNL     1      -7.732  -3.461  19.698  0.00  0.00    +0.000 HD
BRANCH  43  46
ATOM     46  O   UNL     1      -8.050  -4.870  21.130  0.00  0.00    +0.000 OA
ATOM     47  H   UNL     1      -7.395  -5.373  20.613  0.00  0.00    +0.000 HD
ENDBRANCH  43  46
ENDBRANCH  26  43
TORSDOF 2
ENDMDL
MODEL 9
REMARK VINA RESULT:    -8.798      5.001      9.226
REMARK INTER + INTRA:          -9.661
REMARK INTER:                  -9.264
REMARK INTRA:                  -0.397
REMARK UNBOUND:                -0.091
REMARK  Name = 
REMARK  2 active torsions:
REMARK  status: ('A' for Active; 'I' for Inactive)
REMARK    1  A    between atoms: C_26  and  C_27
REMARK    2  A    between atoms: C_27  and  O_28
REMARK                            x       y       z     vdW  Elec       q    Type
REMARK                         _______ _______ _______ _____ _____    ______ ____
ROOT
ATOM      1  O   UNL     1     -11.879   0.314  16.257  0.00  0.00    +0.000 OA
ATOM      2  C   UNL     1     -11.621   0.333  17.453  0.00  0.00    +0.000 C 
ATOM      3  N   UNL     1     -11.806   1.445  18.244  0.00  0.00    +0.000 N 
ATOM      4  C   UNL     1     -11.540   1.317  19.587  0.00  0.00    +0.000 C 
ATOM      5  O   UNL     1     -11.826   2.166  20.411  0.00  0.00    +0.000 OA
ATOM      6  C   UNL     1     -10.976   0.003  19.652  0.00  0.00    +0.000 A 
ATOM      7  C   UNL     1     -11.107  -0.645  18.367  0.00  0.00    +0.000 A 
ATOM      8  C   UNL     1     -10.858  -2.054  18.276  0.00  0.00    +0.000 A 
ATOM      9  C   UNL     1     -10.992  -2.993  17.238  0.00  0.00    +0.000 A 
ATOM     10  C   UNL     1     -11.131  -3.072  15.837  0.00  0.00    +0.000 A 
ATOM     11  C   UNL     1     -11.273  -4.341  15.223  0.00  0.00    +0.000 A 
ATOM     12  C   UNL     1     -11.363  -5.515  15.971  0.00  0.00    +0.000 A 
ATOM     13  C   UNL     1     -11.205  -5.474  17.345  0.00  0.00    +0.000 A 
ATOM     14  C   UNL     1     -10.951  -4.229  17.923  0.00  0.00    +0.000 A 
ATOM     15  N   UNL     1     -10.614  -3.990  19.231  0.00  0.00    +0.000 N 
ATOM     16  C   UNL     1     -10.425  -2.662  19.409  0.00  0.00    +0.000 A 
ATOM     17  C   UNL     1      -9.995  -1.992  20.521  0.00  0.00    +0.000 A 
ATOM     18  C   UNL     1     -10.317  -0.687  20.701  0.00  0.00    +0.000 A 
ATOM     19  C   UNL     1      -9.974  -0.212  21.962  0.00  0.00    +0.000 A 
ATOM     20  C   UNL     1     -10.097   0.938  22.759  0.00  0.00    +0.000 A 
ATOM     21  C   UNL     1      -9.540   0.944  24.050  0.00  0.00    +0.000 A 
ATOM     22  C   UNL     1      -8.862  -0.167  24.555  0.00  0.00    +0.000 A 
ATOM     23  C   UNL     1      -8.715  -1.320  23.785  0.00  0.00    +0.000 A 
ATOM     24  C   UNL     1      -9.295  -1.309  22.514  0.00  0.00    +0.000 A 
ATOM     25  N   UNL     1      -9.253  -2.360  21.598  0.00  0.00    +0.000 N 
ATOM     26  C   UNL     1      -8.490  -3.575  21.893  0.00  0.00    +0.000 C 
ATOM     27  C   UNL     1      -7.456  -3.318  23.032  0.00  0.00    +0.000 C 
ATOM     28  C   UNL     1      -8.026  -2.568  24.244  0.00  0.00    +0.000 C 
ATOM     29  H   UNL     1     -12.228   2.293  17.896  0.00  0.00    +0.000 HD
ATOM     30  H   UNL     1     -11.061  -2.186  15.211  0.00  0.00    +0.000 HD
ATOM     31  H   UNL     1     -11.316  -4.418  14.138  0.00  0.00    +0.000 HD
ATOM     32  H   UNL     1     -11.528  -6.474  15.489  0.00  0.00    +0.000 HD
ATOM     33  H   UNL     1     -11.242  -6.377  17.947  0.00  0.00    +0.000 HD
ATOM     34  H   UNL     1     -10.511  -4.704  19.935  0.00  0.00    +0.000 HD
ATOM     35  H   UNL     1     -10.622   1.819  22.408  0.00  0.00    +0.000 HD
ATOM     36  H   UNL     1      -9.642   1.835  24.665  0.00  0.00    +0.000 HD
ATOM     37  H   UNL     1      -8.439  -0.123  25.557  0.00  0.00    +0.000 HD
ATOM     38  H   UNL     1      -9.238  -4.297  22.247  0.00  0.00    +0.000 HD
ATOM     39  H   UNL     1      -6.619  -2.729  22.631  0.00  0.00    +0.000 HD
ATOM     40  H   UNL     1      -7.035  -4.276  23.362  0.00  0.00    +0.000 HD
ATOM     41  H   UNL     1      -7.206  -2.323  24.928  0.00  0.00    +0.000 HD
ATOM     42  H   UNL     1      -8.744  -3.202  24.776  0.00  0.00    +0.000 HD
ENDROOT
BRANCH  26  43
ATOM     43  C   UNL     1      -7.719  -4.203  20.707  0.00  0.00    +0.000 C 
ATOM     44  H   UNL     1      -6.663  -4.371  20.898  0.00  0.00    +0.000 HD
ATOM     45  H   UNL     1      -7.750  -3.509  19.859  0.00  0.00    +0.000 HD
BRANCH  43  46
ATOM     46  O   UNL     1      -8.280  -5.431  20.258  0.00  0.00    +0.000 OA
ATOM     47  H   UNL     1      -8.699  -5.265  19.394  0.00  0.00    +0.000 HD
ENDBRANCH  43  46
ENDBRANCH  26  43
TORSDOF 2
ENDMDL
