REMARK  Name = 
REMARK  9 active torsions:
REMARK  status: ('A' for Active; 'I' for Inactive)
REMARK    1  A    between atoms: C_1  and  O_2
REMARK    2  A    between atoms: O_2  and  C_3
REMARK    3  A    between atoms: N_17  and  C_18
REMARK    4  A    between atoms: N_21  and  C_22
REMARK    5  A    between atoms: C_22  and  C_23
REMARK    6  A    between atoms: C_23  and  N_24
REMARK    7  A    between atoms: N_24  and  C_25
REMARK    8  A    between atoms: C_25  and  C_26
REMARK    9  A    between atoms: C_26  and  O_27
REMARK                            x       y       z     vdW  Elec       q    Type
REMARK                         _______ _______ _______ _____ _____    ______ ____
ROOT
ATOM      1  C   UNL     1      -3.493   1.433   2.299  0.00  0.00    +0.000 A 
ATOM      2  C   UNL     1      -3.908   1.819   1.030  0.00  0.00    +0.000 A 
ATOM      3  C   UNL     1      -3.285   1.303  -0.113  0.00  0.00    +0.000 A 
ATOM      4  C   UNL     1      -2.212   0.391   0.019  0.00  0.00    +0.000 A 
ATOM      5  C   UNL     1      -1.405  -0.385  -0.810  0.00  0.00    +0.000 A 
ATOM      6  C   UNL     1      -1.448  -0.286  -2.210  0.00  0.00    +0.000 A 
ATOM      7  C   UNL     1      -0.700  -1.241  -2.916  0.00  0.00    +0.000 A 
ATOM      8  C   UNL     1       0.357  -1.953  -2.345  0.00  0.00    +0.000 A 
ATOM      9  C   UNL     1       0.516  -1.890  -0.936  0.00  0.00    +0.000 A 
ATOM     10  C   UNL     1       1.748  -2.260  -0.371  0.00  0.00    +0.000 A 
ATOM     11  C   UNL     1       2.904  -2.119  -1.152  0.00  0.00    +0.000 A 
ATOM     12  C   UNL     1       2.695  -1.781  -2.486  0.00  0.00    +0.000 A 
ATOM     13  C   UNL     1       2.987  -0.606  -3.288  0.00  0.00    +0.000 A 
ATOM     14  C   UNL     1       2.326  -0.771  -4.496  0.00  0.00    +0.000 A 
ATOM     15  N   UNL     1       1.932  -2.104  -4.426  0.00  0.00    +0.000 N 
ATOM     16  C   UNL     1       1.525  -2.251  -3.105  0.00  0.00    +0.000 A 
ATOM     17  C   UNL     1      -0.459  -1.179  -0.179  0.00  0.00    +0.000 A 
ATOM     18  N   UNL     1      -0.667  -0.817   1.165  0.00  0.00    +0.000 N 
ATOM     19  C   UNL     1      -1.770   0.045   1.300  0.00  0.00    +0.000 A 
ATOM     20  C   UNL     1      -2.409   0.563   2.447  0.00  0.00    +0.000 A 
ATOM     21  C   UNL     1      -0.966  -1.041  -4.309  0.00  0.00    +0.000 C 
ATOM     22  O   UNL     1      -0.843  -1.750  -5.299  0.00  0.00    +0.000 OA
ATOM     23  N   UNL     1      -1.502   0.212  -4.346  0.00  0.00    +0.000 N 
ATOM     24  C   UNL     1      -1.882   0.720  -3.125  0.00  0.00    +0.000 C 
ATOM     25  O   UNL     1      -2.301   1.863  -2.998  0.00  0.00    +0.000 OA
ATOM     26  H   UNL     1      -4.731   2.510   0.879  0.00  0.00    +0.000 HD
ATOM     27  H   UNL     1      -3.655   1.606  -1.084  0.00  0.00    +0.000 HD
ATOM     28  H   UNL     1       1.893  -2.384   0.695  0.00  0.00    +0.000 HD
ATOM     29  H   UNL     1       3.874  -2.013  -0.680  0.00  0.00    +0.000 HD
ATOM     30  H   UNL     1       3.478   0.296  -2.958  0.00  0.00    +0.000 HD
ATOM     31  H   UNL     1       2.204  -0.180  -5.395  0.00  0.00    +0.000 HD
ATOM     32  H   UNL     1      -2.079   0.290   3.443  0.00  0.00    +0.000 HD
ATOM     33  H   UNL     1      -1.085   0.872  -4.979  0.00  0.00    +0.000 HD
ENDROOT
BRANCH  15  34
ATOM     34  C   UNL     1       2.782  -3.083  -5.113  0.00  0.00    +0.000 C 
ATOM     35  H   UNL     1       2.656  -2.981  -6.193  0.00  0.00    +0.000 HD
ATOM     36  H   UNL     1       2.534  -4.087  -4.768  0.00  0.00    +0.000 HD
ATOM     37  H   UNL     1       3.824  -2.855  -4.847  0.00  0.00    +0.000 HD
ENDBRANCH  15  34
BRANCH  18  38
ATOM     38  C   UNL     1       0.086  -1.328   2.310  0.00  0.00    +0.000 C 
ATOM     39  H   UNL     1       0.285  -2.389   2.103  0.00  0.00    +0.000 HD
ATOM     40  H   UNL     1      -0.573  -1.327   3.183  0.00  0.00    +0.000 HD
BRANCH  38  41
ATOM     41  C   UNL     1       1.386  -0.572   2.636  0.00  0.00    +0.000 C 
ATOM     42  H   UNL     1       2.014  -0.500   1.744  0.00  0.00    +0.000 HD
ATOM     43  H   UNL     1       1.924  -1.179   3.371  0.00  0.00    +0.000 HD
BRANCH  41  44
ATOM     44  N   UNL     1       1.231   0.786   3.185  0.00  0.00    +0.000 NA
ATOM     45  H   UNL     1       0.681   0.747   4.043  0.00  0.00    +0.000 HD
BRANCH  44  46
ATOM     46  C   UNL     1       2.559   1.352   3.503  0.00  0.00    +0.000 C 
ATOM     47  H   UNL     1       3.199   1.348   2.613  0.00  0.00    +0.000 HD
ATOM     48  H   UNL     1       3.035   0.732   4.273  0.00  0.00    +0.000 HD
BRANCH  46  49
ATOM     49  C   UNL     1       2.464   2.789   4.025  0.00  0.00    +0.000 C 
ATOM     50  H   UNL     1       2.031   3.463   3.278  0.00  0.00    +0.000 HD
ATOM     51  H   UNL     1       3.464   3.161   4.275  0.00  0.00    +0.000 HD
BRANCH  49  52
ATOM     52  O   UNL     1       1.667   2.839   5.205  0.00  0.00    +0.000 OA
ATOM     53  H   UNL     1       0.752   2.716   4.909  0.00  0.00    +0.000 HD
ENDBRANCH  49  52
ENDBRANCH  46  49
ENDBRANCH  44  46
ENDBRANCH  41  44
ENDBRANCH  38  41
ENDBRANCH  18  38
BRANCH   1  54
ATOM     54  O   UNL     1      -4.064   1.839   3.475  0.00  0.00    +0.000 OA
BRANCH  54  55
ATOM     55  C   UNL     1      -5.172   2.727   3.378  0.00  0.00    +0.000 C 
ATOM     56  H   UNL     1      -5.555   2.902   4.389  0.00  0.00    +0.000 HD
ATOM     57  H   UNL     1      -5.988   2.293   2.789  0.00  0.00    +0.000 HD
ATOM     58  H   UNL     1      -4.859   3.693   2.967  0.00  0.00    +0.000 HD
ENDBRANCH  54  55
ENDBRANCH   1  54
TORSDOF 9
