REMARK  Name = 
REMARK  5 active torsions:
REMARK  status: ('A' for Active; 'I' for Inactive)
REMARK    1  A    between atoms: N_1  and  C_2
REMARK    2  A    between atoms: C_2  and  C_3
REMARK    3  A    between atoms: C_2  and  C_10
REMARK    4  A    between atoms: C_3  and  C_4
REMARK    5  A    between atoms: C_13  and  C_14
REMARK                            x       y       z     vdW  Elec       q    Type
REMARK                         _______ _______ _______ _____ _____    ______ ____
ROOT
ATOM      1  C   UNL     1      -0.705   0.060  -0.441  0.00  0.00    +0.000 A 
ATOM      2  C   UNL     1      -1.019   1.270  -1.082  0.00  0.00    +0.000 A 
ATOM      3  C   UNL     1      -0.673   2.503  -0.518  0.00  0.00    +0.000 A 
ATOM      4  C   UNL     1      -0.004   2.579   0.711  0.00  0.00    +0.000 A 
ATOM      5  C   UNL     1       0.255   1.374   1.376  0.00  0.00    +0.000 A 
ATOM      6  C   UNL     1      -0.090   0.141   0.816  0.00  0.00    +0.000 A 
ATOM      7  H   UNL     1      -1.531   1.265  -2.043  0.00  0.00    +0.000 HD
ATOM      8  H   UNL     1      -0.913   3.414  -1.064  0.00  0.00    +0.000 HD
ATOM      9  H   UNL     1       0.743   1.373   2.350  0.00  0.00    +0.000 HD
ATOM     10  H   UNL     1       0.146  -0.743   1.400  0.00  0.00    +0.000 HD
ENDROOT
BRANCH   4  11
ATOM     11  C   UNL     1       0.424   3.869   1.254  0.00  0.00    +0.000 A 
ATOM     12  N   UNL     1      -0.318   4.982   0.972  0.00  0.00    +0.000 NA
ATOM     13  C   UNL     1       0.115   6.173   1.432  0.00  0.00    +0.000 A 
ATOM     14  N   UNL     1       1.227   6.437   2.145  0.00  0.00    +0.000 NA
ATOM     15  C   UNL     1       1.919   5.314   2.382  0.00  0.00    +0.000 A 
ATOM     16  N   UNL     1       3.107   5.213   3.045  0.00  0.00    +0.000 N 
ATOM     17  C   UNL     1       3.466   3.894   3.048  0.00  0.00    +0.000 A 
ATOM     18  N   UNL     1       2.583   3.145   2.426  0.00  0.00    +0.000 NA
ATOM     19  C   UNL     1       1.604   4.023   1.994  0.00  0.00    +0.000 A 
ATOM     20  H   UNL     1      -0.511   7.028   1.190  0.00  0.00    +0.000 HD
ATOM     21  H   UNL     1       3.621   5.983   3.439  0.00  0.00    +0.000 HD
ATOM     22  H   UNL     1       4.379   3.541   3.509  0.00  0.00    +0.000 HD
ENDBRANCH   4  11
BRANCH   1  23
ATOM     23  C   UNL     1      -1.103  -1.276  -1.066  0.00  0.00    +0.000 C 
ATOM     24  H   UNL     1      -2.142  -1.454  -0.760  0.00  0.00    +0.000 HD
BRANCH  23  25
ATOM     25  N   UNL     1      -1.092  -1.195  -2.540  0.00  0.00    +0.000 NA
ATOM     26  H   UNL     1      -1.355  -2.105  -2.920  0.00  0.00    +0.000 HD
ATOM     27  H   UNL     1      -0.135  -1.030  -2.848  0.00  0.00    +0.000 HD
ENDBRANCH  23  25
BRANCH  23  28
ATOM     28  C   UNL     1      -0.223  -2.467  -0.593  0.00  0.00    +0.000 C 
ATOM     29  H   UNL     1      -0.228  -2.547   0.500  0.00  0.00    +0.000 HD
ATOM     30  H   UNL     1       0.823  -2.285  -0.876  0.00  0.00    +0.000 HD
BRANCH  28  31
ATOM     31  C   UNL     1      -0.666  -3.825  -1.087  0.00  0.00    +0.000 A 
ATOM     32  C   UNL     1       0.184  -4.604  -1.883  0.00  0.00    +0.000 A 
ATOM     33  C   UNL     1      -0.212  -5.876  -2.294  0.00  0.00    +0.000 A 
ATOM     34  C   UNL     1      -1.455  -6.379  -1.916  0.00  0.00    +0.000 A 
ATOM     35  C   UNL     1      -2.307  -5.610  -1.127  0.00  0.00    +0.000 A 
ATOM     36  C   UNL     1      -1.915  -4.339  -0.712  0.00  0.00    +0.000 A 
ATOM     37  H   UNL     1       1.162  -4.230  -2.177  0.00  0.00    +0.000 HD
ATOM     38  H   UNL     1       0.456  -6.479  -2.905  0.00  0.00    +0.000 HD
ATOM     39  H   UNL     1      -1.758  -7.374  -2.230  0.00  0.00    +0.000 HD
ATOM     40  H   UNL     1      -3.275  -6.002  -0.826  0.00  0.00    +0.000 HD
ATOM     41  H   UNL     1      -2.585  -3.757  -0.082  0.00  0.00    +0.000 HD
ENDBRANCH  28  31
ENDBRANCH  23  28
ENDBRANCH   1  23
TORSDOF 5
