MODEL 1
REMARK VINA RESULT:    -6.761      0.000      0.000
REMARK INTER + INTRA:         -10.953
REMARK INTER:                 -10.318
REMARK INTRA:                  -0.634
REMARK UNBOUND:                -0.634
REMARK  Name = 
REMARK  12 active torsions:
REMARK  status: ('A' for Active; 'I' for Inactive)
REMARK    1  A    between atoms: C_1  and  C_2
REMARK    2  A    between atoms: C_2  and  C_3
REMARK    3  A    between atoms: C_3  and  C_4
REMARK    4  A    between atoms: C_4  and  C_5
REMARK    5  A    between atoms: C_5  and  O_6
REMARK    6  A    between atoms: C_5  and  C_7
REMARK    7  A    between atoms: C_7  and  N_8
REMARK    8  A    between atoms: N_8  and  C_9
REMARK    9  A    between atoms: N_8  and  C_10
REMARK   10  A    between atoms: C_14  and  C_15
REMARK   11  A    between atoms: C_16  and  O_17
REMARK   12  A    between atoms: O_17  and  C_18
REMARK                            x       y       z     vdW  Elec       q    Type
REMARK                         _______ _______ _______ _____ _____    ______ ____
ROOT
ATOM      1  C   UNL     1     -10.142  -3.567  14.279  0.00  0.00    +0.000 C 
ATOM      2  C   UNL     1     -11.639  -3.321  13.934  0.00  0.00    +0.000 C 
ATOM      3  C   UNL     1     -11.693  -2.070  13.126  0.00  0.00    +0.000 C 
ATOM      4  O   UNL     1     -10.635  -2.538  12.205  0.00  0.00    +0.000 OA
ATOM      5  C   UNL     1      -9.867  -1.432  12.435  0.00  0.00    +0.000 C 
ATOM      6  C   UNL     1      -9.719  -1.916  14.328  0.00  0.00    +0.000 C 
ATOM      7  N   UNL     1     -10.872  -0.719  11.351  0.00  0.00    +0.000 N 
ATOM      8  C   UNL     1     -11.332  -1.125  10.030  0.00  0.00    +0.000 A 
ATOM      9  C   UNL     1     -10.870  -2.112   9.151  0.00  0.00    +0.000 A 
ATOM     10  C   UNL     1     -11.501  -2.245   7.902  0.00  0.00    +0.000 A 
ATOM     11  C   UNL     1     -12.539  -1.405   7.487  0.00  0.00    +0.000 A 
ATOM     12  C   UNL     1     -13.126  -0.514   8.369  0.00  0.00    +0.000 A 
ATOM     13  C   UNL     1     -12.641  -0.470   9.675  0.00  0.00    +0.000 A 
ATOM     14  C   UNL     1     -13.268  -0.033  10.832  0.00  0.00    +0.000 A 
ATOM     15  C   UNL     1     -14.355   0.832  11.169  0.00  0.00    +0.000 A 
ATOM     16  C   UNL     1     -13.817   2.036  11.808  0.00  0.00    +0.000 A 
ATOM     17  C   UNL     1     -12.819   1.583  12.782  0.00  0.00    +0.000 A 
ATOM     18  C   UNL     1     -11.474   1.970  12.573  0.00  0.00    +0.000 A 
ATOM     19  C   UNL     1     -10.845   2.626  11.468  0.00  0.00    +0.000 A 
ATOM     20  C   UNL     1      -9.470   2.630  11.334  0.00  0.00    +0.000 A 
ATOM     21  C   UNL     1      -8.724   2.166  12.412  0.00  0.00    +0.000 A 
ATOM     22  C   UNL     1      -9.299   1.384  13.470  0.00  0.00    +0.000 A 
ATOM     23  C   UNL     1     -10.661   0.981  13.395  0.00  0.00    +0.000 A 
ATOM     24  N   UNL     1     -11.546  -0.373  13.625  0.00  0.00    +0.000 N 
ATOM     25  C   UNL     1     -12.471   0.231  12.925  0.00  0.00    +0.000 A 
ATOM     26  C   UNL     1     -12.153  -0.238  11.638  0.00  0.00    +0.000 A 
ATOM     27  C   UNL     1     -14.908   2.810  12.344  0.00  0.00    +0.000 C 
ATOM     28  O   UNL     1     -15.005   3.982  12.686  0.00  0.00    +0.000 OA
ATOM     29  N   UNL     1     -15.894   1.855  12.535  0.00  0.00    +0.000 N 
ATOM     30  C   UNL     1     -15.521   0.505  12.113  0.00  0.00    +0.000 C 
ATOM     31  H   UNL     1      -9.517  -3.993  13.481  0.00  0.00    +0.000 HD
ATOM     32  H   UNL     1     -11.929  -4.108  13.215  0.00  0.00    +0.000 HD
ATOM     33  H   UNL     1     -12.359  -3.333  14.755  0.00  0.00    +0.000 HD
ATOM     34  H   UNL     1     -12.684  -2.109  12.648  0.00  0.00    +0.000 HD
ATOM     35  H   UNL     1      -8.694  -1.773  14.678  0.00  0.00    +0.000 HD
ATOM     36  H   UNL     1     -10.095  -2.809   9.452  0.00  0.00    +0.000 HD
ATOM     37  H   UNL     1     -11.180  -3.036   7.230  0.00  0.00    +0.000 HD
ATOM     38  H   UNL     1     -12.960  -1.503   6.494  0.00  0.00    +0.000 HD
ATOM     39  H   UNL     1     -14.029   0.033   8.105  0.00  0.00    +0.000 HD
ATOM     40  H   UNL     1     -11.456   2.963  10.626  0.00  0.00    +0.000 HD
ATOM     41  H   UNL     1      -9.012   3.053  10.441  0.00  0.00    +0.000 HD
ATOM     42  H   UNL     1      -7.669   2.416  12.411  0.00  0.00    +0.000 HD
ATOM     43  H   UNL     1      -8.705   1.238  14.366  0.00  0.00    +0.000 HD
ATOM     44  H   UNL     1     -16.614   2.074  13.211  0.00  0.00    +0.000 HD
ATOM     45  H   UNL     1     -16.368  -0.037  11.699  0.00  0.00    +0.000 HD
ATOM     46  H   UNL     1     -15.168  -0.007  13.029  0.00  0.00    +0.000 HD
ENDROOT
BRANCH   5  47
ATOM     47  C   UNL     1      -8.380  -1.419  12.046  0.00  0.00    +0.000 C 
ATOM     48  H   UNL     1      -8.004  -2.452  11.965  0.00  0.00    +0.000 HD
ATOM     49  H   UNL     1      -8.241  -1.011  11.035  0.00  0.00    +0.000 HD
ATOM     50  H   UNL     1      -7.716  -0.888  12.725  0.00  0.00    +0.000 HD
ENDBRANCH   5  47
BRANCH   1  51
ATOM     51  N   UNL     1     -10.318  -4.662  15.286  0.00  0.00    +0.000 NA
BRANCH  51  52
ATOM     52  C   UNL     1     -11.752  -5.018  15.477  0.00  0.00    +0.000 C 
ATOM     53  H   UNL     1     -11.938  -5.526  16.429  0.00  0.00    +0.000 HD
ATOM     54  H   UNL     1     -12.163  -5.681  14.709  0.00  0.00    +0.000 HD
ATOM     55  H   UNL     1     -12.391  -4.131  15.400  0.00  0.00    +0.000 HD
ENDBRANCH  51  52
BRANCH  51  56
ATOM     56  C   UNL     1      -9.531  -5.881  15.122  0.00  0.00    +0.000 C 
ATOM     57  H   UNL     1     -10.079  -6.566  14.467  0.00  0.00    +0.000 HD
ATOM     58  H   UNL     1      -8.640  -5.580  14.547  0.00  0.00    +0.000 HD
BRANCH  56  59
ATOM     59  C   UNL     1      -9.021  -6.644  16.378  0.00  0.00    +0.000 C 
ATOM     60  H   UNL     1      -9.671  -6.426  17.231  0.00  0.00    +0.000 HD
BRANCH  59  61
ATOM     61  C   UNL     1      -9.016  -8.143  16.067  0.00  0.00    +0.000 C 
ATOM     62  H   UNL     1      -8.054  -8.410  15.609  0.00  0.00    +0.000 HD
ATOM     63  H   UNL     1      -9.801  -8.369  15.336  0.00  0.00    +0.000 HD
BRANCH  61  64
ATOM     64  C   UNL     1      -9.206  -9.008  17.311  0.00  0.00    +0.000 C 
ATOM     65  H   UNL     1      -8.276  -9.058  17.890  0.00  0.00    +0.000 HD
ATOM     66  H   UNL     1      -9.969  -8.559  17.960  0.00  0.00    +0.000 HD
BRANCH  64  67
ATOM     67  C   UNL     1      -9.623 -10.419  16.904  0.00  0.00    +0.000 C 
ATOM     68  H   UNL     1     -10.702 -10.546  17.047  0.00  0.00    +0.000 HD
ATOM     69  H   UNL     1      -9.420 -10.565  15.836  0.00  0.00    +0.000 HD
BRANCH  67  70
ATOM     70  C   UNL     1      -8.884 -11.477  17.702  0.00  0.00    +0.000 C 
ATOM     71  H   UNL     1      -9.474 -11.805  18.564  0.00  0.00    +0.000 HD
ATOM     72  H   UNL     1      -8.665 -12.350  17.080  0.00  0.00    +0.000 HD
ATOM     73  H   UNL     1      -7.936 -11.074  18.070  0.00  0.00    +0.000 HD
ENDBRANCH  67  70
ENDBRANCH  64  67
ENDBRANCH  61  64
ENDBRANCH  59  61
BRANCH  59  74
ATOM     74  O   UNL     1      -7.685  -6.295  16.757  0.00  0.00    +0.000 OA
ATOM     75  H   UNL     1      -7.702  -5.983  17.678  0.00  0.00    +0.000 HD
ENDBRANCH  59  74
ENDBRANCH  56  59
ENDBRANCH  51  56
ENDBRANCH   1  51
BRANCH   6  76
ATOM     76  O   UNL     1     -10.627  -1.703  15.483  0.00  0.00    +0.000 OA
BRANCH  76  77
ATOM     77  C   UNL     1     -10.480  -1.181  16.784  0.00  0.00    +0.000 C 
ATOM     78  H   UNL     1     -11.285  -1.462  17.454  0.00  0.00    +0.000 HD
ATOM     79  H   UNL     1     -10.436  -0.087  16.691  0.00  0.00    +0.000 HD
ATOM     80  H   UNL     1      -9.495  -1.380  17.231  0.00  0.00    +0.000 HD
ENDBRANCH  76  77
ENDBRANCH   6  76
TORSDOF 12
ENDMDL
MODEL 2
REMARK VINA RESULT:    -6.645      4.380      7.118
REMARK INTER + INTRA:         -10.775
REMARK INTER:                  -9.814
REMARK INTRA:                  -0.961
REMARK UNBOUND:                -0.634
REMARK  Name = 
REMARK  12 active torsions:
REMARK  status: ('A' for Active; 'I' for Inactive)
REMARK    1  A    between atoms: C_1  and  C_2
REMARK    2  A    between atoms: C_2  and  C_3
REMARK    3  A    between atoms: C_3  and  C_4
REMARK    4  A    between atoms: C_4  and  C_5
REMARK    5  A    between atoms: C_5  and  O_6
REMARK    6  A    between atoms: C_5  and  C_7
REMARK    7  A    between atoms: C_7  and  N_8
REMARK    8  A    between atoms: N_8  and  C_9
REMARK    9  A    between atoms: N_8  and  C_10
REMARK   10  A    between atoms: C_14  and  C_15
REMARK   11  A    between atoms: C_16  and  O_17
REMARK   12  A    between atoms: O_17  and  C_18
REMARK                            x       y       z     vdW  Elec       q    Type
REMARK                         _______ _______ _______ _____ _____    ______ ____
ROOT
ATOM      1  C   UNL     1      -9.979  -5.288  18.234  0.00  0.00    +0.000 C 
ATOM      2  C   UNL     1      -8.862  -4.221  18.418  0.00  0.00    +0.000 C 
ATOM      3  C   UNL     1      -9.500  -2.891  18.206  0.00  0.00    +0.000 C 
ATOM      4  O   UNL     1     -10.603  -3.194  19.144  0.00  0.00    +0.000 OA
ATOM      5  C   UNL     1     -11.554  -2.932  18.200  0.00  0.00    +0.000 C 
ATOM      6  C   UNL     1     -10.867  -4.391  17.088  0.00  0.00    +0.000 C 
ATOM      7  N   UNL     1     -11.279  -1.366  18.604  0.00  0.00    +0.000 N 
ATOM      8  C   UNL     1     -11.206  -0.685  19.890  0.00  0.00    +0.000 A 
ATOM      9  C   UNL     1     -11.601  -1.084  21.172  0.00  0.00    +0.000 A 
ATOM     10  C   UNL     1     -11.440  -0.178  22.235  0.00  0.00    +0.000 A 
ATOM     11  C   UNL     1     -10.943   1.117  22.054  0.00  0.00    +0.000 A 
ATOM     12  C   UNL     1     -10.405   1.507  20.840  0.00  0.00    +0.000 A 
ATOM     13  C   UNL     1     -10.389   0.578  19.801  0.00  0.00    +0.000 A 
ATOM     14  C   UNL     1      -9.574   0.524  18.682  0.00  0.00    +0.000 A 
ATOM     15  C   UNL     1      -8.780   1.438  17.922  0.00  0.00    +0.000 A 
ATOM     16  C   UNL     1      -9.418   1.646  16.619  0.00  0.00    +0.000 A 
ATOM     17  C   UNL     1      -9.809   0.321  16.127  0.00  0.00    +0.000 A 
ATOM     18  C   UNL     1     -11.190   0.066  15.953  0.00  0.00    +0.000 A 
ATOM     19  C   UNL     1     -12.341   0.834  16.316  0.00  0.00    +0.000 A 
ATOM     20  C   UNL     1     -13.598   0.263  16.335  0.00  0.00    +0.000 A 
ATOM     21  C   UNL     1     -13.728  -1.008  15.787  0.00  0.00    +0.000 A 
ATOM     22  C   UNL     1     -12.601  -1.861  15.539  0.00  0.00    +0.000 A 
ATOM     23  C   UNL     1     -11.299  -1.451  15.938  0.00  0.00    +0.000 A 
ATOM     24  N   UNL     1     -10.002  -2.084  16.707  0.00  0.00    +0.000 N 
ATOM     25  C   UNL     1      -9.629  -0.844  16.889  0.00  0.00    +0.000 A 
ATOM     26  C   UNL     1     -10.207  -0.593  18.147  0.00  0.00    +0.000 A 
ATOM     27  C   UNL     1      -8.521   2.388  15.771  0.00  0.00    +0.000 C 
ATOM     28  O   UNL     1      -8.693   3.041  14.749  0.00  0.00    +0.000 OA
ATOM     29  N   UNL     1      -7.278   2.097  16.312  0.00  0.00    +0.000 N 
ATOM     30  C   UNL     1      -7.318   1.238  17.495  0.00  0.00    +0.000 C 
ATOM     31  H   UNL     1     -10.671  -5.427  19.077  0.00  0.00    +0.000 HD
ATOM     32  H   UNL     1      -8.604  -4.218  19.492  0.00  0.00    +0.000 HD
ATOM     33  H   UNL     1      -7.939  -4.348  17.850  0.00  0.00    +0.000 HD
ATOM     34  H   UNL     1      -8.784  -2.182  18.648  0.00  0.00    +0.000 HD
ATOM     35  H   UNL     1     -11.692  -4.973  16.671  0.00  0.00    +0.000 HD
ATOM     36  H   UNL     1     -11.953  -2.093  21.360  0.00  0.00    +0.000 HD
ATOM     37  H   UNL     1     -11.701  -0.492  23.241  0.00  0.00    +0.000 HD
ATOM     38  H   UNL     1     -10.888   1.805  22.890  0.00  0.00    +0.000 HD
ATOM     39  H   UNL     1      -9.880   2.453  20.731  0.00  0.00    +0.000 HD
ATOM     40  H   UNL     1     -12.206   1.823  16.762  0.00  0.00    +0.000 HD
ATOM     41  H   UNL     1     -14.451   0.834  16.701  0.00  0.00    +0.000 HD
ATOM     42  H   UNL     1     -14.737  -1.335  15.562  0.00  0.00    +0.000 HD
ATOM     43  H   UNL     1     -12.762  -2.743  14.927  0.00  0.00    +0.000 HD
ATOM     44  H   UNL     1      -6.479   2.208  15.701  0.00  0.00    +0.000 HD
ATOM     45  H   UNL     1      -6.543   1.499  18.211  0.00  0.00    +0.000 HD
ATOM     46  H   UNL     1      -7.143   0.209  17.123  0.00  0.00    +0.000 HD
ENDROOT
BRANCH   5  47
ATOM     47  C   UNL     1     -13.003  -3.408  18.398  0.00  0.00    +0.000 C 
ATOM     48  H   UNL     1     -13.699  -2.689  17.935  0.00  0.00    +0.000 HD
ATOM     49  H   UNL     1     -13.188  -4.341  17.849  0.00  0.00    +0.000 HD
ATOM     50  H   UNL     1     -13.321  -3.545  19.429  0.00  0.00    +0.000 HD
ENDBRANCH   5  47
BRANCH   1  51
ATOM     51  N   UNL     1      -9.119  -6.514  18.207  0.00  0.00    +0.000 NA
BRANCH  51  52
ATOM     52  C   UNL     1      -8.275  -6.631  19.430  0.00  0.00    +0.000 C 
ATOM     53  H   UNL     1      -7.581  -7.477  19.385  0.00  0.00    +0.000 HD
ATOM     54  H   UNL     1      -8.838  -6.764  20.359  0.00  0.00    +0.000 HD
ATOM     55  H   UNL     1      -7.719  -5.705  19.613  0.00  0.00    +0.000 HD
ENDBRANCH  51  52
BRANCH  51  56
ATOM     56  C   UNL     1      -9.758  -7.798  17.932  0.00  0.00    +0.000 C 
ATOM     57  H   UNL     1      -9.182  -8.589  18.423  0.00  0.00    +0.000 HD
ATOM     58  H   UNL     1     -10.722  -7.767  18.467  0.00  0.00    +0.000 HD
BRANCH  56  59
ATOM     59  C   UNL     1     -10.072  -8.204  16.464  0.00  0.00    +0.000 C 
ATOM     60  H   UNL     1      -9.327  -7.765  15.793  0.00  0.00    +0.000 HD
BRANCH  59  61
ATOM     61  C   UNL     1     -10.054  -9.732  16.369  0.00  0.00    +0.000 C 
ATOM     62  H   UNL     1      -9.637 -10.024  15.395  0.00  0.00    +0.000 HD
ATOM     63  H   UNL     1     -11.079 -10.115  16.416  0.00  0.00    +0.000 HD
BRANCH  61  64
ATOM     64  C   UNL     1      -9.210 -10.385  17.462  0.00  0.00    +0.000 C 
ATOM     65  H   UNL     1      -8.307  -9.793  17.655  0.00  0.00    +0.000 HD
ATOM     66  H   UNL     1      -9.781 -10.420  18.398  0.00  0.00    +0.000 HD
BRANCH  64  67
ATOM     67  C   UNL     1      -8.808 -11.795  17.034  0.00  0.00    +0.000 C 
ATOM     68  H   UNL     1      -7.932 -12.123  17.606  0.00  0.00    +0.000 HD
ATOM     69  H   UNL     1      -9.622 -12.492  17.263  0.00  0.00    +0.000 HD
BRANCH  67  70
ATOM     70  C   UNL     1      -8.493 -11.864  15.551  0.00  0.00    +0.000 C 
ATOM     71  H   UNL     1      -9.409 -11.843  14.952  0.00  0.00    +0.000 HD
ATOM     72  H   UNL     1      -7.863 -11.022  15.249  0.00  0.00    +0.000 HD
ATOM     73  H   UNL     1      -7.957 -12.791  15.324  0.00  0.00    +0.000 HD
ENDBRANCH  67  70
ENDBRANCH  64  67
ENDBRANCH  61  64
ENDBRANCH  59  61
BRANCH  59  74
ATOM     74  O   UNL     1     -11.361  -7.776  16.012  0.00  0.00    +0.000 OA
ATOM     75  H   UNL     1     -11.600  -6.967  16.496  0.00  0.00    +0.000 HD
ENDBRANCH  59  74
ENDBRANCH  56  59
ENDBRANCH  51  56
ENDBRANCH   1  51
BRANCH   6  76
ATOM     76  O   UNL     1      -9.733  -4.464  16.132  0.00  0.00    +0.000 OA
BRANCH  76  77
ATOM     77  C   UNL     1      -9.577  -4.902  14.801  0.00  0.00    +0.000 C 
ATOM     78  H   UNL     1      -8.678  -4.524  14.327  0.00  0.00    +0.000 HD
ATOM     79  H   UNL     1     -10.462  -4.566  14.244  0.00  0.00    +0.000 HD
ATOM     80  H   UNL     1      -9.669  -5.990  14.681  0.00  0.00    +0.000 HD
ENDBRANCH  76  77
ENDBRANCH   6  76
TORSDOF 12
ENDMDL
MODEL 3
REMARK VINA RESULT:    -6.636      4.351      6.978
REMARK INTER + INTRA:         -10.762
REMARK INTER:                 -10.235
REMARK INTRA:                  -0.527
REMARK UNBOUND:                -0.634
REMARK  Name = 
REMARK  12 active torsions:
REMARK  status: ('A' for Active; 'I' for Inactive)
REMARK    1  A    between atoms: C_1  and  C_2
REMARK    2  A    between atoms: C_2  and  C_3
REMARK    3  A    between atoms: C_3  and  C_4
REMARK    4  A    between atoms: C_4  and  C_5
REMARK    5  A    between atoms: C_5  and  O_6
REMARK    6  A    between atoms: C_5  and  C_7
REMARK    7  A    between atoms: C_7  and  N_8
REMARK    8  A    between atoms: N_8  and  C_9
REMARK    9  A    between atoms: N_8  and  C_10
REMARK   10  A    between atoms: C_14  and  C_15
REMARK   11  A    between atoms: C_16  and  O_17
REMARK   12  A    between atoms: O_17  and  C_18
REMARK                            x       y       z     vdW  Elec       q    Type
REMARK                         _______ _______ _______ _____ _____    ______ ____
ROOT
ATOM      1  C   UNL     1      -9.695  -1.596  19.910  0.00  0.00    +0.000 C 
ATOM      2  C   UNL     1      -9.197  -2.525  18.765  0.00  0.00    +0.000 C 
ATOM      3  C   UNL     1      -9.705  -1.945  17.490  0.00  0.00    +0.000 C 
ATOM      4  O   UNL     1      -9.198  -0.596  17.823  0.00  0.00    +0.000 OA
ATOM      5  C   UNL     1     -10.431  -0.031  17.664  0.00  0.00    +0.000 C 
ATOM      6  C   UNL     1     -11.135  -1.134  19.123  0.00  0.00    +0.000 C 
ATOM      7  N   UNL     1     -10.058  -0.074  16.067  0.00  0.00    +0.000 N 
ATOM      8  C   UNL     1      -8.874   0.346  15.328  0.00  0.00    +0.000 A 
ATOM      9  C   UNL     1      -7.790   1.153  15.696  0.00  0.00    +0.000 A 
ATOM     10  C   UNL     1      -6.799   1.421  14.736  0.00  0.00    +0.000 A 
ATOM     11  C   UNL     1      -6.875   0.951  13.420  0.00  0.00    +0.000 A 
ATOM     12  C   UNL     1      -7.845   0.035  13.049  0.00  0.00    +0.000 A 
ATOM     13  C   UNL     1      -8.750  -0.391  14.020  0.00  0.00    +0.000 A 
ATOM     14  C   UNL     1      -9.505  -1.552  14.070  0.00  0.00    +0.000 A 
ATOM     15  C   UNL     1      -9.992  -2.522  13.140  0.00  0.00    +0.000 A 
ATOM     16  C   UNL     1     -11.447  -2.380  13.030  0.00  0.00    +0.000 A 
ATOM     17  C   UNL     1     -11.959  -2.249  14.398  0.00  0.00    +0.000 A 
ATOM     18  C   UNL     1     -12.592  -1.033  14.749  0.00  0.00    +0.000 A 
ATOM     19  C   UNL     1     -12.708   0.205  14.043  0.00  0.00    +0.000 A 
ATOM     20  C   UNL     1     -13.097   1.359  14.693  0.00  0.00    +0.000 A 
ATOM     21  C   UNL     1     -13.573   1.228  15.993  0.00  0.00    +0.000 A 
ATOM     22  C   UNL     1     -13.353   0.049  16.781  0.00  0.00    +0.000 A 
ATOM     23  C   UNL     1     -12.548  -1.006  16.270  0.00  0.00    +0.000 A 
ATOM     24  N   UNL     1     -11.333  -1.972  16.783  0.00  0.00    +0.000 N 
ATOM     25  C   UNL     1     -11.110  -2.200  15.515  0.00  0.00    +0.000 A 
ATOM     26  C   UNL     1     -10.156  -1.202  15.248  0.00  0.00    +0.000 A 
ATOM     27  C   UNL     1     -11.970  -3.486  12.269  0.00  0.00    +0.000 C 
ATOM     28  O   UNL     1     -13.027  -3.658  11.674  0.00  0.00    +0.000 OA
ATOM     29  N   UNL     1     -11.008  -4.467  12.455  0.00  0.00    +0.000 N 
ATOM     30  C   UNL     1      -9.863  -4.048  13.263  0.00  0.00    +0.000 C 
ATOM     31  H   UNL     1      -9.142  -0.657  20.056  0.00  0.00    +0.000 HD
ATOM     32  H   UNL     1      -8.104  -2.384  18.698  0.00  0.00    +0.000 HD
ATOM     33  H   UNL     1      -9.394  -3.595  18.857  0.00  0.00    +0.000 HD
ATOM     34  H   UNL     1      -9.085  -2.424  16.718  0.00  0.00    +0.000 HD
ATOM     35  H   UNL     1     -11.778  -0.538  19.774  0.00  0.00    +0.000 HD
ATOM     36  H   UNL     1      -7.675   1.502  16.717  0.00  0.00    +0.000 HD
ATOM     37  H   UNL     1      -5.932   2.008  15.022  0.00  0.00    +0.000 HD
ATOM     38  H   UNL     1      -6.120   1.228  12.695  0.00  0.00    +0.000 HD
ATOM     39  H   UNL     1      -7.822  -0.451  12.077  0.00  0.00    +0.000 HD
ATOM     40  H   UNL     1     -12.307   0.282  13.028  0.00  0.00    +0.000 HD
ATOM     41  H   UNL     1     -13.091   2.311  14.163  0.00  0.00    +0.000 HD
ATOM     42  H   UNL     1     -14.118   2.076  16.394  0.00  0.00    +0.000 HD
ATOM     43  H   UNL     1     -13.926  -0.058  17.696  0.00  0.00    +0.000 HD
ATOM     44  H   UNL     1     -11.304  -5.424  12.320  0.00  0.00    +0.000 HD
ATOM     45  H   UNL     1      -8.938  -4.505  12.921  0.00  0.00    +0.000 HD
ATOM     46  H   UNL     1     -10.083  -4.390  14.293  0.00  0.00    +0.000 HD
ENDROOT
BRANCH   5  47
ATOM     47  C   UNL     1     -10.727   1.370  18.224  0.00  0.00    +0.000 C 
ATOM     48  H   UNL     1     -11.177   1.286  19.227  0.00  0.00    +0.000 HD
ATOM     49  H   UNL     1      -9.796   1.927  18.402  0.00  0.00    +0.000 HD
ATOM     50  H   UNL     1     -11.390   1.990  17.626  0.00  0.00    +0.000 HD
ENDBRANCH   5  47
BRANCH   1  51
ATOM     51  N   UNL     1      -9.339  -2.465  21.077  0.00  0.00    +0.000 NA
BRANCH  51  52
ATOM     52  C   UNL     1      -8.027  -3.145  20.887  0.00  0.00    +0.000 C 
ATOM     53  H   UNL     1      -7.324  -2.942  21.702  0.00  0.00    +0.000 HD
ATOM     54  H   UNL     1      -7.498  -2.865  19.970  0.00  0.00    +0.000 HD
ATOM     55  H   UNL     1      -8.159  -4.226  20.772  0.00  0.00    +0.000 HD
ENDBRANCH  51  52
BRANCH  51  56
ATOM     56  C   UNL     1      -9.394  -1.878  22.413  0.00  0.00    +0.000 C 
ATOM     57  H   UNL     1      -8.372  -1.706  22.764  0.00  0.00    +0.000 HD
ATOM     58  H   UNL     1      -9.826  -0.873  22.276  0.00  0.00    +0.000 HD
BRANCH  56  59
ATOM     59  C   UNL     1     -10.225  -2.576  23.528  0.00  0.00    +0.000 C 
ATOM     60  H   UNL     1      -9.903  -3.617  23.631  0.00  0.00    +0.000 HD
BRANCH  59  61
ATOM     61  C   UNL     1     -10.020  -1.812  24.838  0.00  0.00    +0.000 C 
ATOM     62  H   UNL     1     -10.957  -1.827  25.411  0.00  0.00    +0.000 HD
ATOM     63  H   UNL     1      -9.786  -0.764  24.618  0.00  0.00    +0.000 HD
BRANCH  61  64
ATOM     64  C   UNL     1      -8.919  -2.413  25.710  0.00  0.00    +0.000 C 
ATOM     65  H   UNL     1      -9.091  -3.486  25.861  0.00  0.00    +0.000 HD
ATOM     66  H   UNL     1      -7.950  -2.308  25.206  0.00  0.00    +0.000 HD
BRANCH  64  67
ATOM     67  C   UNL     1      -8.890  -1.711  27.066  0.00  0.00    +0.000 C 
ATOM     68  H   UNL     1      -8.522  -0.686  26.948  0.00  0.00    +0.000 HD
ATOM     69  H   UNL     1      -9.909  -1.644  27.464  0.00  0.00    +0.000 HD
BRANCH  67  70
ATOM     70  C   UNL     1      -8.013  -2.448  28.061  0.00  0.00    +0.000 C 
ATOM     71  H   UNL     1      -8.081  -1.997  29.057  0.00  0.00    +0.000 HD
ATOM     72  H   UNL     1      -8.310  -3.498  28.136  0.00  0.00    +0.000 HD
ATOM     73  H   UNL     1      -6.968  -2.410  27.740  0.00  0.00    +0.000 HD
ENDBRANCH  67  70
ENDBRANCH  64  67
ENDBRANCH  61  64
ENDBRANCH  59  61
BRANCH  59  74
ATOM     74  O   UNL     1     -11.634  -2.588  23.271  0.00  0.00    +0.000 OA
ATOM     75  H   UNL     1     -11.858  -3.431  22.842  0.00  0.00    +0.000 HD
ENDBRANCH  59  74
ENDBRANCH  56  59
ENDBRANCH  51  56
ENDBRANCH   1  51
BRANCH   6  76
ATOM     76  O   UNL     1     -11.623  -2.536  19.164  0.00  0.00    +0.000 OA
BRANCH  76  77
ATOM     77  C   UNL     1     -12.549  -3.247  19.953  0.00  0.00    +0.000 C 
ATOM     78  H   UNL     1     -13.462  -2.694  20.148  0.00  0.00    +0.000 HD
ATOM     79  H   UNL     1     -12.049  -3.487  20.902  0.00  0.00    +0.000 HD
ATOM     80  H   UNL     1     -12.762  -4.258  19.581  0.00  0.00    +0.000 HD
ENDBRANCH  76  77
ENDBRANCH   6  76
TORSDOF 12
ENDMDL
MODEL 4
REMARK VINA RESULT:    -6.548      2.291      2.999
REMARK INTER + INTRA:         -10.628
REMARK INTER:                 -10.034
REMARK INTRA:                  -0.594
REMARK UNBOUND:                -0.634
REMARK  Name = 
REMARK  12 active torsions:
REMARK  status: ('A' for Active; 'I' for Inactive)
REMARK    1  A    between atoms: C_1  and  C_2
REMARK    2  A    between atoms: C_2  and  C_3
REMARK    3  A    between atoms: C_3  and  C_4
REMARK    4  A    between atoms: C_4  and  C_5
REMARK    5  A    between atoms: C_5  and  O_6
REMARK    6  A    between atoms: C_5  and  C_7
REMARK    7  A    between atoms: C_7  and  N_8
REMARK    8  A    between atoms: N_8  and  C_9
REMARK    9  A    between atoms: N_8  and  C_10
REMARK   10  A    between atoms: C_14  and  C_15
REMARK   11  A    between atoms: C_16  and  O_17
REMARK   12  A    between atoms: O_17  and  C_18
REMARK                            x       y       z     vdW  Elec       q    Type
REMARK                         _______ _______ _______ _____ _____    ______ ____
ROOT
ATOM      1  C   UNL     1     -10.551  -3.675  16.573  0.00  0.00    +0.000 C 
ATOM      2  C   UNL     1     -12.024  -3.172  16.567  0.00  0.00    +0.000 C 
ATOM      3  C   UNL     1     -12.013  -1.825  15.930  0.00  0.00    +0.000 C 
ATOM      4  O   UNL     1     -11.234  -2.305  14.768  0.00  0.00    +0.000 OA
ATOM      5  C   UNL     1     -10.263  -1.363  14.958  0.00  0.00    +0.000 C 
ATOM      6  C   UNL     1      -9.855  -2.126  16.717  0.00  0.00    +0.000 C 
ATOM      7  N   UNL     1     -11.314  -0.369  14.186  0.00  0.00    +0.000 N 
ATOM      8  C   UNL     1     -12.069  -0.514  12.948  0.00  0.00    +0.000 A 
ATOM      9  C   UNL     1     -11.947  -1.424  11.891  0.00  0.00    +0.000 A 
ATOM     10  C   UNL     1     -12.808  -1.288  10.788  0.00  0.00    +0.000 A 
ATOM     11  C   UNL     1     -13.748  -0.258  10.687  0.00  0.00    +0.000 A 
ATOM     12  C   UNL     1     -14.007   0.575  11.762  0.00  0.00    +0.000 A 
ATOM     13  C   UNL     1     -13.292   0.365  12.940  0.00  0.00    +0.000 A 
ATOM     14  C   UNL     1     -13.615   0.719  14.240  0.00  0.00    +0.000 A 
ATOM     15  C   UNL     1     -14.462   1.675  14.883  0.00  0.00    +0.000 A 
ATOM     16  C   UNL     1     -13.622   2.688  15.530  0.00  0.00    +0.000 A 
ATOM     17  C   UNL     1     -12.554   1.964  16.226  0.00  0.00    +0.000 A 
ATOM     18  C   UNL     1     -11.224   2.180  15.793  0.00  0.00    +0.000 A 
ATOM     19  C   UNL     1     -10.706   2.888  14.663  0.00  0.00    +0.000 A 
ATOM     20  C   UNL     1      -9.397   2.714  14.255  0.00  0.00    +0.000 A 
ATOM     21  C   UNL     1      -8.556   2.001  15.102  0.00  0.00    +0.000 A 
ATOM     22  C   UNL     1      -9.051   1.168  16.161  0.00  0.00    +0.000 A 
ATOM     23  C   UNL     1     -10.452   0.979  16.320  0.00  0.00    +0.000 A 
ATOM     24  N   UNL     1     -11.495  -0.254  16.573  0.00  0.00    +0.000 N 
ATOM     25  C   UNL     1     -12.418   0.569  16.145  0.00  0.00    +0.000 A 
ATOM     26  C   UNL     1     -12.423   0.245  14.776  0.00  0.00    +0.000 A 
ATOM     27  C   UNL     1     -14.451   3.526  16.357  0.00  0.00    +0.000 C 
ATOM     28  O   UNL     1     -14.287   4.641  16.839  0.00  0.00    +0.000 OA
ATOM     29  N   UNL     1     -15.533   2.705  16.637  0.00  0.00    +0.000 N 
ATOM     30  C   UNL     1     -15.475   1.389  16.001  0.00  0.00    +0.000 C 
ATOM     31  H   UNL     1     -10.162  -4.070  15.623  0.00  0.00    +0.000 HD
ATOM     32  H   UNL     1     -12.568  -3.800  15.839  0.00  0.00    +0.000 HD
ATOM     33  H   UNL     1     -12.573  -3.196  17.510  0.00  0.00    +0.000 HD
ATOM     34  H   UNL     1     -13.067  -1.654  15.660  0.00  0.00    +0.000 HD
ATOM     35  H   UNL     1      -8.775  -2.181  16.867  0.00  0.00    +0.000 HD
ATOM     36  H   UNL     1     -11.258  -2.260  11.950  0.00  0.00    +0.000 HD
ATOM     37  H   UNL     1     -12.753  -2.014   9.982  0.00  0.00    +0.000 HD
ATOM     38  H   UNL     1     -14.354  -0.154   9.794  0.00  0.00    +0.000 HD
ATOM     39  H   UNL     1     -14.838   1.277  11.748  0.00  0.00    +0.000 HD
ATOM     40  H   UNL     1     -11.395   3.424  14.005  0.00  0.00    +0.000 HD
ATOM     41  H   UNL     1      -9.045   3.188  13.340  0.00  0.00    +0.000 HD
ATOM     42  H   UNL     1      -7.492   2.095  14.916  0.00  0.00    +0.000 HD
ATOM     43  H   UNL     1      -8.337   0.814  16.898  0.00  0.00    +0.000 HD
ATOM     44  H   UNL     1     -16.070   2.928  17.464  0.00  0.00    +0.000 HD
ATOM     45  H   UNL     1     -16.461   1.037  15.710  0.00  0.00    +0.000 HD
ATOM     46  H   UNL     1     -15.051   0.707  16.765  0.00  0.00    +0.000 HD
ENDROOT
BRANCH   5  47
ATOM     47  C   UNL     1      -8.890  -1.509  14.281  0.00  0.00    +0.000 C 
ATOM     48  H   UNL     1      -8.763  -0.720  13.521  0.00  0.00    +0.000 HD
ATOM     49  H   UNL     1      -8.077  -1.316  14.995  0.00  0.00    +0.000 HD
ATOM     50  H   UNL     1      -8.701  -2.461  13.792  0.00  0.00    +0.000 HD
ENDBRANCH   5  47
BRANCH   1  51
ATOM     51  N   UNL     1     -10.723  -4.864  17.468  0.00  0.00    +0.000 NA
BRANCH  51  52
ATOM     52  C   UNL     1     -11.667  -5.864  16.893  0.00  0.00    +0.000 C 
ATOM     53  H   UNL     1     -11.821  -6.725  17.551  0.00  0.00    +0.000 HD
ATOM     54  H   UNL     1     -11.355  -6.283  15.932  0.00  0.00    +0.000 HD
ATOM     55  H   UNL     1     -12.631  -5.401  16.656  0.00  0.00    +0.000 HD
ENDBRANCH  51  52
BRANCH  51  56
ATOM     56  C   UNL     1      -9.522  -5.546  17.943  0.00  0.00    +0.000 C 
ATOM     57  H   UNL     1      -8.801  -5.602  17.121  0.00  0.00    +0.000 HD
ATOM     58  H   UNL     1      -9.068  -4.863  18.680  0.00  0.00    +0.000 HD
BRANCH  56  59
ATOM     59  C   UNL     1      -9.646  -6.935  18.634  0.00  0.00    +0.000 C 
ATOM     60  H   UNL     1     -10.699  -7.230  18.680  0.00  0.00    +0.000 HD
BRANCH  59  61
ATOM     61  C   UNL     1      -8.831  -7.951  17.830  0.00  0.00    +0.000 C 
ATOM     62  H   UNL     1      -7.773  -7.658  17.853  0.00  0.00    +0.000 HD
ATOM     63  H   UNL     1      -9.154  -7.935  16.783  0.00  0.00    +0.000 HD
BRANCH  61  64
ATOM     64  C   UNL     1      -8.944  -9.372  18.382  0.00  0.00    +0.000 C 
ATOM     65  H   UNL     1      -8.015  -9.662  18.888  0.00  0.00    +0.000 HD
ATOM     66  H   UNL     1      -9.747  -9.415  19.128  0.00  0.00    +0.000 HD
BRANCH  64  67
ATOM     67  C   UNL     1      -9.225 -10.349  17.243  0.00  0.00    +0.000 C 
ATOM     68  H   UNL     1     -10.275 -10.274  16.938  0.00  0.00    +0.000 HD
ATOM     69  H   UNL     1      -8.616 -10.081  16.373  0.00  0.00    +0.000 HD
BRANCH  67  70
ATOM     70  C   UNL     1      -8.921 -11.781  17.644  0.00  0.00    +0.000 C 
ATOM     71  H   UNL     1      -9.054 -11.927  18.720  0.00  0.00    +0.000 HD
ATOM     72  H   UNL     1      -9.578 -12.479  17.116  0.00  0.00    +0.000 HD
ATOM     73  H   UNL     1      -7.885 -12.029  17.391  0.00  0.00    +0.000 HD
ENDBRANCH  67  70
ENDBRANCH  64  67
ENDBRANCH  61  64
ENDBRANCH  59  61
BRANCH  59  74
ATOM     74  O   UNL     1      -9.135  -6.958  19.971  0.00  0.00    +0.000 OA
ATOM     75  H   UNL     1      -9.889  -7.009  20.584  0.00  0.00    +0.000 HD
ENDBRANCH  59  74
ENDBRANCH  56  59
ENDBRANCH  51  56
ENDBRANCH   1  51
BRANCH   6  76
ATOM     76  O   UNL     1     -10.489  -1.950  18.049  0.00  0.00    +0.000 OA
BRANCH  76  77
ATOM     77  C   UNL     1     -10.022  -1.645  19.343  0.00  0.00    +0.000 C 
ATOM     78  H   UNL     1      -9.546  -2.485  19.837  0.00  0.00    +0.000 HD
ATOM     79  H   UNL     1     -10.888  -1.308  19.929  0.00  0.00    +0.000 HD
ATOM     80  H   UNL     1      -9.394  -0.744  19.384  0.00  0.00    +0.000 HD
ENDBRANCH  76  77
ENDBRANCH   6  76
TORSDOF 12
ENDMDL
MODEL 5
REMARK VINA RESULT:    -6.418      3.824      6.201
REMARK INTER + INTRA:         -10.429
REMARK INTER:                  -9.736
REMARK INTRA:                  -0.693
REMARK UNBOUND:                -0.634
REMARK  Name = 
REMARK  12 active torsions:
REMARK  status: ('A' for Active; 'I' for Inactive)
REMARK    1  A    between atoms: C_1  and  C_2
REMARK    2  A    between atoms: C_2  and  C_3
REMARK    3  A    between atoms: C_3  and  C_4
REMARK    4  A    between atoms: C_4  and  C_5
REMARK    5  A    between atoms: C_5  and  O_6
REMARK    6  A    between atoms: C_5  and  C_7
REMARK    7  A    between atoms: C_7  and  N_8
REMARK    8  A    between atoms: N_8  and  C_9
REMARK    9  A    between atoms: N_8  and  C_10
REMARK   10  A    between atoms: C_14  and  C_15
REMARK   11  A    between atoms: C_16  and  O_17
REMARK   12  A    between atoms: O_17  and  C_18
REMARK                            x       y       z     vdW  Elec       q    Type
REMARK                         _______ _______ _______ _____ _____    ______ ____
ROOT
ATOM      1  C   UNL     1      -9.439  -0.651  19.965  0.00  0.00    +0.000 C 
ATOM      2  C   UNL     1      -8.855  -1.664  18.938  0.00  0.00    +0.000 C 
ATOM      3  C   UNL     1      -9.430  -1.309  17.610  0.00  0.00    +0.000 C 
ATOM      4  O   UNL     1      -9.064   0.117  17.757  0.00  0.00    +0.000 OA
ATOM      5  C   UNL     1     -10.351   0.527  17.553  0.00  0.00    +0.000 C 
ATOM      6  C   UNL     1     -10.925  -0.445  19.155  0.00  0.00    +0.000 C 
ATOM      7  N   UNL     1      -9.986   0.317  15.968  0.00  0.00    +0.000 N 
ATOM      8  C   UNL     1      -8.858   0.757  15.157  0.00  0.00    +0.000 A 
ATOM      9  C   UNL     1      -7.863   1.712  15.396  0.00  0.00    +0.000 A 
ATOM     10  C   UNL     1      -6.912   1.954  14.390  0.00  0.00    +0.000 A 
ATOM     11  C   UNL     1      -6.948   1.313  13.147  0.00  0.00    +0.000 A 
ATOM     12  C   UNL     1      -7.819   0.262  12.915  0.00  0.00    +0.000 A 
ATOM     13  C   UNL     1      -8.667  -0.126  13.951  0.00  0.00    +0.000 A 
ATOM     14  C   UNL     1      -9.296  -1.342  14.164  0.00  0.00    +0.000 A 
ATOM     15  C   UNL     1      -9.686  -2.470  13.376  0.00  0.00    +0.000 A 
ATOM     16  C   UNL     1     -11.148  -2.493  13.279  0.00  0.00    +0.000 A 
ATOM     17  C   UNL     1     -11.661  -2.241  14.630  0.00  0.00    +0.000 A 
ATOM     18  C   UNL     1     -12.416  -1.061  14.836  0.00  0.00    +0.000 A 
ATOM     19  C   UNL     1     -12.666   0.057  13.979  0.00  0.00    +0.000 A 
ATOM     20  C   UNL     1     -13.169   1.240  14.485  0.00  0.00    +0.000 A 
ATOM     21  C   UNL     1     -13.619   1.229  15.800  0.00  0.00    +0.000 A 
ATOM     22  C   UNL     1     -13.272   0.191  16.727  0.00  0.00    +0.000 A 
ATOM     23  C   UNL     1     -12.364  -0.834  16.339  0.00  0.00    +0.000 A 
ATOM     24  N   UNL     1     -11.051  -1.595  16.946  0.00  0.00    +0.000 N 
ATOM     25  C   UNL     1     -10.814  -1.960  15.713  0.00  0.00    +0.000 A 
ATOM     26  C   UNL     1      -9.972  -0.912  15.301  0.00  0.00    +0.000 A 
ATOM     27  C   UNL     1     -11.558  -3.736  12.677  0.00  0.00    +0.000 C 
ATOM     28  O   UNL     1     -12.595  -4.091  12.130  0.00  0.00    +0.000 OA
ATOM     29  N   UNL     1     -10.497  -4.580  12.967  0.00  0.00    +0.000 N 
ATOM     30  C   UNL     1      -9.396  -3.945  13.691  0.00  0.00    +0.000 C 
ATOM     31  H   UNL     1      -8.986   0.351  19.979  0.00  0.00    +0.000 HD
ATOM     32  H   UNL     1      -7.783  -1.421  18.832  0.00  0.00    +0.000 HD
ATOM     33  H   UNL     1      -8.938  -2.728  19.170  0.00  0.00    +0.000 HD
ATOM     34  H   UNL     1      -8.768  -1.818  16.893  0.00  0.00    +0.000 HD
ATOM     35  H   UNL     1     -11.622   0.160  19.738  0.00  0.00    +0.000 HD
ATOM     36  H   UNL     1      -7.778   2.200  16.361  0.00  0.00    +0.000 HD
ATOM     37  H   UNL     1      -6.109   2.660  14.580  0.00  0.00    +0.000 HD
ATOM     38  H   UNL     1      -6.231   1.571  12.376  0.00  0.00    +0.000 HD
ATOM     39  H   UNL     1      -7.752  -0.341  12.013  0.00  0.00    +0.000 HD
ATOM     40  H   UNL     1     -12.282   0.044  12.955  0.00  0.00    +0.000 HD
ATOM     41  H   UNL     1     -13.267   2.110  13.837  0.00  0.00    +0.000 HD
ATOM     42  H   UNL     1     -14.247   2.061  16.101  0.00  0.00    +0.000 HD
ATOM     43  H   UNL     1     -13.823   0.145  17.661  0.00  0.00    +0.000 HD
ATOM     44  H   UNL     1     -10.692  -5.573  12.961  0.00  0.00    +0.000 HD
ATOM     45  H   UNL     1      -8.431  -4.345  13.390  0.00  0.00    +0.000 HD
ATOM     46  H   UNL     1      -9.573  -4.172  14.760  0.00  0.00    +0.000 HD
ENDROOT
BRANCH   5  47
ATOM     47  C   UNL     1     -10.788   1.951  17.936  0.00  0.00    +0.000 C 
ATOM     48  H   UNL     1     -10.572   2.644  17.106  0.00  0.00    +0.000 HD
ATOM     49  H   UNL     1     -11.879   2.010  18.048  0.00  0.00    +0.000 HD
ATOM     50  H   UNL     1     -10.327   2.365  18.829  0.00  0.00    +0.000 HD
ENDBRANCH   5  47
BRANCH   1  51
ATOM     51  N   UNL     1      -8.985  -1.320  21.226  0.00  0.00    +0.000 NA
BRANCH  51  52
ATOM     52  C   UNL     1     -10.019  -1.253  22.297  0.00  0.00    +0.000 C 
ATOM     53  H   UNL     1     -10.241  -2.233  22.731  0.00  0.00    +0.000 HD
ATOM     54  H   UNL     1     -10.984  -0.852  21.972  0.00  0.00    +0.000 HD
ATOM     55  H   UNL     1      -9.719  -0.556  23.087  0.00  0.00    +0.000 HD
ENDBRANCH  51  52
BRANCH  51  56
ATOM     56  C   UNL     1      -8.467  -2.682  21.134  0.00  0.00    +0.000 C 
ATOM     57  H   UNL     1      -9.276  -3.382  21.369  0.00  0.00    +0.000 HD
ATOM     58  H   UNL     1      -8.247  -2.842  20.066  0.00  0.00    +0.000 HD
BRANCH  56  59
ATOM     59  C   UNL     1      -7.184  -3.074  21.921  0.00  0.00    +0.000 C 
ATOM     60  H   UNL     1      -7.461  -3.471  22.903  0.00  0.00    +0.000 HD
BRANCH  59  61
ATOM     61  C   UNL     1      -6.417  -4.121  21.110  0.00  0.00    +0.000 C 
ATOM     62  H   UNL     1      -5.832  -4.747  21.797  0.00  0.00    +0.000 HD
ATOM     63  H   UNL     1      -5.710  -3.619  20.439  0.00  0.00    +0.000 HD
BRANCH  61  64
ATOM     64  C   UNL     1      -7.335  -5.034  20.299  0.00  0.00    +0.000 C 
ATOM     65  H   UNL     1      -7.786  -5.797  20.946  0.00  0.00    +0.000 HD
ATOM     66  H   UNL     1      -8.156  -4.446  19.871  0.00  0.00    +0.000 HD
BRANCH  64  67
ATOM     67  C   UNL     1      -6.539  -5.719  19.190  0.00  0.00    +0.000 C 
ATOM     68  H   UNL     1      -6.881  -6.752  19.068  0.00  0.00    +0.000 HD
ATOM     69  H   UNL     1      -6.721  -5.204  18.240  0.00  0.00    +0.000 HD
BRANCH  67  70
ATOM     70  C   UNL     1      -5.050  -5.715  19.483  0.00  0.00    +0.000 C 
ATOM     71  H   UNL     1      -4.744  -6.637  19.986  0.00  0.00    +0.000 HD
ATOM     72  H   UNL     1      -4.474  -5.619  18.557  0.00  0.00    +0.000 HD
ATOM     73  H   UNL     1      -4.798  -4.871  20.132  0.00  0.00    +0.000 HD
ENDBRANCH  67  70
ENDBRANCH  64  67
ENDBRANCH  61  64
ENDBRANCH  59  61
BRANCH  59  74
ATOM     74  O   UNL     1      -6.288  -1.980  22.139  0.00  0.00    +0.000 OA
ATOM     75  H   UNL     1      -5.697  -1.911  21.370  0.00  0.00    +0.000 HD
ENDBRANCH  59  74
ENDBRANCH  56  59
ENDBRANCH  51  56
ENDBRANCH   1  51
BRANCH   6  76
ATOM     76  O   UNL     1     -11.263  -1.873  19.385  0.00  0.00    +0.000 OA
BRANCH  76  77
ATOM     77  C   UNL     1     -12.265  -2.558  20.102  0.00  0.00    +0.000 C 
ATOM     78  H   UNL     1     -13.199  -2.010  20.165  0.00  0.00    +0.000 HD
ATOM     79  H   UNL     1     -11.872  -2.742  21.111  0.00  0.00    +0.000 HD
ATOM     80  H   UNL     1     -12.425  -3.590  19.761  0.00  0.00    +0.000 HD
ENDBRANCH  76  77
ENDBRANCH   6  76
TORSDOF 12
ENDMDL
MODEL 6
REMARK VINA RESULT:    -6.388      3.150      6.170
REMARK INTER + INTRA:         -10.384
REMARK INTER:                  -9.808
REMARK INTRA:                  -0.576
REMARK UNBOUND:                -0.634
REMARK  Name = 
REMARK  12 active torsions:
REMARK  status: ('A' for Active; 'I' for Inactive)
REMARK    1  A    between atoms: C_1  and  C_2
REMARK    2  A    between atoms: C_2  and  C_3
REMARK    3  A    between atoms: C_3  and  C_4
REMARK    4  A    between atoms: C_4  and  C_5
REMARK    5  A    between atoms: C_5  and  O_6
REMARK    6  A    between atoms: C_5  and  C_7
REMARK    7  A    between atoms: C_7  and  N_8
REMARK    8  A    between atoms: N_8  and  C_9
REMARK    9  A    between atoms: N_8  and  C_10
REMARK   10  A    between atoms: C_14  and  C_15
REMARK   11  A    between atoms: C_16  and  O_17
REMARK   12  A    between atoms: O_17  and  C_18
REMARK                            x       y       z     vdW  Elec       q    Type
REMARK                         _______ _______ _______ _____ _____    ______ ____
ROOT
ATOM      1  C   UNL     1     -10.959  -4.234  17.025  0.00  0.00    +0.000 C 
ATOM      2  C   UNL     1      -9.682  -3.437  17.420  0.00  0.00    +0.000 C 
ATOM      3  C   UNL     1      -9.875  -2.045  16.924  0.00  0.00    +0.000 C 
ATOM      4  O   UNL     1     -11.215  -1.938  17.541  0.00  0.00    +0.000 OA
ATOM      5  C   UNL     1     -11.799  -1.613  16.350  0.00  0.00    +0.000 C 
ATOM      6  C   UNL     1     -11.266  -3.344  15.604  0.00  0.00    +0.000 C 
ATOM      7  N   UNL     1     -11.231  -0.109  16.677  0.00  0.00    +0.000 N 
ATOM      8  C   UNL     1     -11.302   0.726  17.869  0.00  0.00    +0.000 A 
ATOM      9  C   UNL     1     -12.093   0.631  19.020  0.00  0.00    +0.000 A 
ATOM     10  C   UNL     1     -11.968   1.628  20.003  0.00  0.00    +0.000 A 
ATOM     11  C   UNL     1     -11.119   2.731  19.856  0.00  0.00    +0.000 A 
ATOM     12  C   UNL     1     -10.214   2.795  18.811  0.00  0.00    +0.000 A 
ATOM     13  C   UNL     1     -10.187   1.738  17.902  0.00  0.00    +0.000 A 
ATOM     14  C   UNL     1      -9.164   1.326  17.063  0.00  0.00    +0.000 A 
ATOM     15  C   UNL     1      -7.994   1.905  16.478  0.00  0.00    +0.000 A 
ATOM     16  C   UNL     1      -8.211   2.052  15.036  0.00  0.00    +0.000 A 
ATOM     17  C   UNL     1      -8.803   0.793  14.572  0.00  0.00    +0.000 A 
ATOM     18  C   UNL     1     -10.115   0.839  14.043  0.00  0.00    +0.000 A 
ATOM     19  C   UNL     1     -11.076   1.898  14.002  0.00  0.00    +0.000 A 
ATOM     20  C   UNL     1     -12.403   1.640  13.720  0.00  0.00    +0.000 A 
ATOM     21  C   UNL     1     -12.722   0.365  13.270  0.00  0.00    +0.000 A 
ATOM     22  C   UNL     1     -11.834  -0.753  13.420  0.00  0.00    +0.000 A 
ATOM     23  C   UNL     1     -10.611  -0.597  14.129  0.00  0.00    +0.000 A 
ATOM     24  N   UNL     1      -9.759  -1.385  15.280  0.00  0.00    +0.000 N 
ATOM     25  C   UNL     1      -9.130  -0.251  15.451  0.00  0.00    +0.000 A 
ATOM     26  C   UNL     1      -9.915   0.316  16.471  0.00  0.00    +0.000 A 
ATOM     27  C   UNL     1      -6.970   2.428  14.411  0.00  0.00    +0.000 C 
ATOM     28  O   UNL     1      -6.706   2.937  13.328  0.00  0.00    +0.000 OA
ATOM     29  N   UNL     1      -6.022   1.945  15.300  0.00  0.00    +0.000 N 
ATOM     30  C   UNL     1      -6.578   1.311  16.495  0.00  0.00    +0.000 C 
ATOM     31  H   UNL     1     -11.849  -4.079  17.651  0.00  0.00    +0.000 HD
ATOM     32  H   UNL     1      -9.707  -3.328  18.519  0.00  0.00    +0.000 HD
ATOM     33  H   UNL     1      -8.714  -3.859  17.145  0.00  0.00    +0.000 HD
ATOM     34  H   UNL     1      -9.130  -1.461  17.485  0.00  0.00    +0.000 HD
ATOM     35  H   UNL     1     -12.085  -3.777  15.026  0.00  0.00    +0.000 HD
ATOM     36  H   UNL     1     -12.733  -0.229  19.188  0.00  0.00    +0.000 HD
ATOM     37  H   UNL     1     -12.544   1.542  20.920  0.00  0.00    +0.000 HD
ATOM     38  H   UNL     1     -11.095   3.508  20.611  0.00  0.00    +0.000 HD
ATOM     39  H   UNL     1      -9.449   3.566  18.771  0.00  0.00    +0.000 HD
ATOM     40  H   UNL     1     -10.801   2.886  14.381  0.00  0.00    +0.000 HD
ATOM     41  H   UNL     1     -13.138   2.442  13.783  0.00  0.00    +0.000 HD
ATOM     42  H   UNL     1     -13.694   0.248  12.801  0.00  0.00    +0.000 HD
ATOM     43  H   UNL     1     -12.065  -1.657  12.866  0.00  0.00    +0.000 HD
ATOM     44  H   UNL     1      -5.096   1.774  14.929  0.00  0.00    +0.000 HD
ATOM     45  H   UNL     1      -5.964   1.494  17.373  0.00  0.00    +0.000 HD
ATOM     46  H   UNL     1      -6.593   0.225  16.276  0.00  0.00    +0.000 HD
ENDROOT
BRANCH   5  47
ATOM     47  C   UNL     1     -13.324  -1.706  16.177  0.00  0.00    +0.000 C 
ATOM     48  H   UNL     1     -13.689  -2.666  16.578  0.00  0.00    +0.000 HD
ATOM     49  H   UNL     1     -13.837  -0.954  16.792  0.00  0.00    +0.000 HD
ATOM     50  H   UNL     1     -13.692  -1.624  15.156  0.00  0.00    +0.000 HD
ENDBRANCH   5  47
BRANCH   1  51
ATOM     51  N   UNL     1     -10.472  -5.614  17.345  0.00  0.00    +0.000 NA
BRANCH  51  52
ATOM     52  C   UNL     1     -10.707  -5.972  18.772  0.00  0.00    +0.000 C 
ATOM     53  H   UNL     1     -10.683  -7.052  18.946  0.00  0.00    +0.000 HD
ATOM     54  H   UNL     1     -11.666  -5.632  19.174  0.00  0.00    +0.000 HD
ATOM     55  H   UNL     1      -9.980  -5.476  19.425  0.00  0.00    +0.000 HD
ENDBRANCH  51  52
BRANCH  51  56
ATOM     56  C   UNL     1     -10.909  -6.713  16.489  0.00  0.00    +0.000 C 
ATOM     57  H   UNL     1     -11.837  -7.128  16.897  0.00  0.00    +0.000 HD
ATOM     58  H   UNL     1     -11.195  -6.246  15.533  0.00  0.00    +0.000 HD
BRANCH  56  59
ATOM     59  C   UNL     1      -9.921  -7.866  16.149  0.00  0.00    +0.000 C 
ATOM     60  H   UNL     1      -9.140  -7.920  16.914  0.00  0.00    +0.000 HD
BRANCH  59  61
ATOM     61  C   UNL     1     -10.707  -9.177  16.081  0.00  0.00    +0.000 C 
ATOM     62  H   UNL     1     -11.010  -9.358  15.041  0.00  0.00    +0.000 HD
ATOM     63  H   UNL     1     -11.622  -9.088  16.679  0.00  0.00    +0.000 HD
BRANCH  61  64
ATOM     64  C   UNL     1      -9.897 -10.381  16.557  0.00  0.00    +0.000 C 
ATOM     65  H   UNL     1      -9.113 -10.065  17.257  0.00  0.00    +0.000 HD
ATOM     66  H   UNL     1     -10.552 -11.077  17.097  0.00  0.00    +0.000 HD
BRANCH  64  67
ATOM     67  C   UNL     1      -9.254 -11.079  15.361  0.00  0.00    +0.000 C 
ATOM     68  H   UNL     1     -10.023 -11.349  14.629  0.00  0.00    +0.000 HD
ATOM     69  H   UNL     1      -8.562 -10.388  14.864  0.00  0.00    +0.000 HD
BRANCH  67  70
ATOM     70  C   UNL     1      -8.498 -12.327  15.779  0.00  0.00    +0.000 C 
ATOM     71  H   UNL     1      -7.509 -12.365  15.311  0.00  0.00    +0.000 HD
ATOM     72  H   UNL     1      -8.368 -12.357  16.865  0.00  0.00    +0.000 HD
ATOM     73  H   UNL     1      -9.054 -13.220  15.476  0.00  0.00    +0.000 HD
ENDBRANCH  67  70
ENDBRANCH  64  67
ENDBRANCH  61  64
ENDBRANCH  59  61
BRANCH  59  74
ATOM     74  O   UNL     1      -9.269  -7.708  14.884  0.00  0.00    +0.000 OA
ATOM     75  H   UNL     1      -9.402  -8.522  14.369  0.00  0.00    +0.000 HD
ENDBRANCH  59  74
ENDBRANCH  56  59
ENDBRANCH  51  56
ENDBRANCH   1  51
BRANCH   6  76
ATOM     76  O   UNL     1      -9.991  -3.822  15.011  0.00  0.00    +0.000 OA
BRANCH  76  77
ATOM     77  C   UNL     1      -9.621  -4.418  13.789  0.00  0.00    +0.000 C 
ATOM     78  H   UNL     1      -9.231  -5.423  13.901  0.00  0.00    +0.000 HD
ATOM     79  H   UNL     1      -8.859  -3.771  13.332  0.00  0.00    +0.000 HD
ATOM     80  H   UNL     1     -10.405  -4.372  13.021  0.00  0.00    +0.000 HD
ENDBRANCH  76  77
ENDBRANCH   6  76
TORSDOF 12
ENDMDL
MODEL 7
REMARK VINA RESULT:    -6.347      3.074      7.978
REMARK INTER + INTRA:         -10.321
REMARK INTER:                  -9.743
REMARK INTRA:                  -0.578
REMARK UNBOUND:                -0.634
REMARK  Name = 
REMARK  12 active torsions:
REMARK  status: ('A' for Active; 'I' for Inactive)
REMARK    1  A    between atoms: C_1  and  C_2
REMARK    2  A    between atoms: C_2  and  C_3
REMARK    3  A    between atoms: C_3  and  C_4
REMARK    4  A    between atoms: C_4  and  C_5
REMARK    5  A    between atoms: C_5  and  O_6
REMARK    6  A    between atoms: C_5  and  C_7
REMARK    7  A    between atoms: C_7  and  N_8
REMARK    8  A    between atoms: N_8  and  C_9
REMARK    9  A    between atoms: N_8  and  C_10
REMARK   10  A    between atoms: C_14  and  C_15
REMARK   11  A    between atoms: C_16  and  O_17
REMARK   12  A    between atoms: O_17  and  C_18
REMARK                            x       y       z     vdW  Elec       q    Type
REMARK                         _______ _______ _______ _____ _____    ______ ____
ROOT
ATOM      1  C   UNL     1     -14.318   1.787  16.239  0.00  0.00    +0.000 C 
ATOM      2  C   UNL     1     -14.641   0.702  15.171  0.00  0.00    +0.000 C 
ATOM      3  C   UNL     1     -13.351   0.036  14.833  0.00  0.00    +0.000 C 
ATOM      4  O   UNL     1     -13.017  -0.190  16.257  0.00  0.00    +0.000 OA
ATOM      5  C   UNL     1     -11.819   0.454  16.136  0.00  0.00    +0.000 C 
ATOM      6  C   UNL     1     -12.748   2.114  15.663  0.00  0.00    +0.000 C 
ATOM      7  N   UNL     1     -11.308  -0.973  15.508  0.00  0.00    +0.000 N 
ATOM      8  C   UNL     1     -11.445  -2.348  15.968  0.00  0.00    +0.000 A 
ATOM      9  C   UNL     1     -11.819  -2.877  17.209  0.00  0.00    +0.000 A 
ATOM     10  C   UNL     1     -11.819  -4.273  17.370  0.00  0.00    +0.000 A 
ATOM     11  C   UNL     1     -11.418  -5.150  16.356  0.00  0.00    +0.000 A 
ATOM     12  C   UNL     1     -11.180  -4.689  15.073  0.00  0.00    +0.000 A 
ATOM     13  C   UNL     1     -11.335  -3.326  14.827  0.00  0.00    +0.000 A 
ATOM     14  C   UNL     1     -11.585  -2.671  13.632  0.00  0.00    +0.000 A 
ATOM     15  C   UNL     1     -11.413  -2.938  12.238  0.00  0.00    +0.000 A 
ATOM     16  C   UNL     1     -10.355  -2.068  11.718  0.00  0.00    +0.000 A 
ATOM     17  C   UNL     1     -10.614  -0.727  12.253  0.00  0.00    +0.000 A 
ATOM     18  C   UNL     1      -9.648  -0.169  13.124  0.00  0.00    +0.000 A 
ATOM     19  C   UNL     1      -8.484  -0.741  13.727  0.00  0.00    +0.000 A 
ATOM     20  C   UNL     1      -7.854  -0.117  14.787  0.00  0.00    +0.000 A 
ATOM     21  C   UNL     1      -8.262   1.175  15.098  0.00  0.00    +0.000 A 
ATOM     22  C   UNL     1      -9.496   1.732  14.621  0.00  0.00    +0.000 A 
ATOM     23  C   UNL     1     -10.396   0.925  13.871  0.00  0.00    +0.000 A 
ATOM     24  N   UNL     1     -11.997   0.597  13.833  0.00  0.00    +0.000 N 
ATOM     25  C   UNL     1     -11.661  -0.468  13.151  0.00  0.00    +0.000 A 
ATOM     26  C   UNL     1     -11.532  -1.401  14.196  0.00  0.00    +0.000 A 
ATOM     27  C   UNL     1     -10.324  -2.172  10.282  0.00  0.00    +0.000 C 
ATOM     28  O   UNL     1      -9.472  -1.894   9.446  0.00  0.00    +0.000 OA
ATOM     29  N   UNL     1     -11.616  -2.574   9.978  0.00  0.00    +0.000 N 
ATOM     30  C   UNL     1     -12.478  -2.778  11.142  0.00  0.00    +0.000 C 
ATOM     31  H   UNL     1     -14.171   1.434  17.270  0.00  0.00    +0.000 HD
ATOM     32  H   UNL     1     -15.215  -0.087  15.689  0.00  0.00    +0.000 HD
ATOM     33  H   UNL     1     -15.208   1.009  14.291  0.00  0.00    +0.000 HD
ATOM     34  H   UNL     1     -13.660  -0.899  14.343  0.00  0.00    +0.000 HD
ATOM     35  H   UNL     1     -12.297   2.963  16.180  0.00  0.00    +0.000 HD
ATOM     36  H   UNL     1     -12.175  -2.233  18.006  0.00  0.00    +0.000 HD
ATOM     37  H   UNL     1     -12.150  -4.697  18.314  0.00  0.00    +0.000 HD
ATOM     38  H   UNL     1     -11.377  -6.217  16.539  0.00  0.00    +0.000 HD
ATOM     39  H   UNL     1     -11.017  -5.376  14.245  0.00  0.00    +0.000 HD
ATOM     40  H   UNL     1      -8.199  -1.766  13.476  0.00  0.00    +0.000 HD
ATOM     41  H   UNL     1      -7.025  -0.610  15.293  0.00  0.00    +0.000 HD
ATOM     42  H   UNL     1      -7.599   1.749  15.736  0.00  0.00    +0.000 HD
ATOM     43  H   UNL     1      -9.642   2.801  14.734  0.00  0.00    +0.000 HD
ATOM     44  H   UNL     1     -11.943  -2.381   9.040  0.00  0.00    +0.000 HD
ATOM     45  H   UNL     1     -13.173  -3.600  10.991  0.00  0.00    +0.000 HD
ATOM     46  H   UNL     1     -13.044  -1.834  11.263  0.00  0.00    +0.000 HD
ENDROOT
BRANCH   5  47
ATOM     47  C   UNL     1     -11.055   0.924  17.385  0.00  0.00    +0.000 C 
ATOM     48  H   UNL     1     -10.139   1.459  17.085  0.00  0.00    +0.000 HD
ATOM     49  H   UNL     1     -11.630   1.681  17.936  0.00  0.00    +0.000 HD
ATOM     50  H   UNL     1     -10.759   0.143  18.082  0.00  0.00    +0.000 HD
ENDBRANCH   5  47
BRANCH   1  51
ATOM     51  N   UNL     1     -15.634   2.503  16.239  0.00  0.00    +0.000 NA
BRANCH  51  52
ATOM     52  C   UNL     1     -15.476   3.963  16.488  0.00  0.00    +0.000 C 
ATOM     53  H   UNL     1     -16.363   4.412  16.946  0.00  0.00    +0.000 HD
ATOM     54  H   UNL     1     -15.277   4.558  15.592  0.00  0.00    +0.000 HD
ATOM     55  H   UNL     1     -14.596   4.161  17.111  0.00  0.00    +0.000 HD
ENDBRANCH  51  52
BRANCH  51  56
ATOM     56  C   UNL     1     -16.529   2.297  15.104  0.00  0.00    +0.000 C 
ATOM     57  H   UNL     1     -16.571   3.221  14.518  0.00  0.00    +0.000 HD
ATOM     58  H   UNL     1     -16.019   1.565  14.456  0.00  0.00    +0.000 HD
BRANCH  56  59
ATOM     59  C   UNL     1     -17.969   1.758  15.344  0.00  0.00    +0.000 C 
ATOM     60  H   UNL     1     -18.508   2.435  16.014  0.00  0.00    +0.000 HD
BRANCH  59  61
ATOM     61  C   UNL     1     -18.679   1.652  13.993  0.00  0.00    +0.000 C 
ATOM     62  H   UNL     1     -17.939   1.411  13.218  0.00  0.00    +0.000 HD
ATOM     63  H   UNL     1     -19.124   2.619  13.734  0.00  0.00    +0.000 HD
BRANCH  61  64
ATOM     64  C   UNL     1     -19.757   0.568  13.972  0.00  0.00    +0.000 C 
ATOM     65  H   UNL     1     -19.560  -0.154  13.170  0.00  0.00    +0.000 HD
ATOM     66  H   UNL     1     -19.742   0.015  14.919  0.00  0.00    +0.000 HD
BRANCH  64  67
ATOM     67  C   UNL     1     -21.128   1.204  13.753  0.00  0.00    +0.000 C 
ATOM     68  H   UNL     1     -21.863   0.430  13.504  0.00  0.00    +0.000 HD
ATOM     69  H   UNL     1     -21.462   1.680  14.682  0.00  0.00    +0.000 HD
BRANCH  67  70
ATOM     70  C   UNL     1     -21.096   2.240  12.644  0.00  0.00    +0.000 C 
ATOM     71  H   UNL     1     -20.071   2.561  12.432  0.00  0.00    +0.000 HD
ATOM     72  H   UNL     1     -21.529   1.836  11.724  0.00  0.00    +0.000 HD
ATOM     73  H   UNL     1     -21.676   3.120  12.937  0.00  0.00    +0.000 HD
ENDBRANCH  67  70
ENDBRANCH  64  67
ENDBRANCH  61  64
ENDBRANCH  59  61
BRANCH  59  74
ATOM     74  O   UNL     1     -18.002   0.454  15.934  0.00  0.00    +0.000 OA
ATOM     75  H   UNL     1     -17.710   0.530  16.858  0.00  0.00    +0.000 HD
ENDBRANCH  59  74
ENDBRANCH  56  59
ENDBRANCH  51  56
ENDBRANCH   1  51
BRANCH   6  76
ATOM     76  O   UNL     1     -13.307   2.610  14.379  0.00  0.00    +0.000 OA
BRANCH  76  77
ATOM     77  C   UNL     1     -13.125   3.765  13.592  0.00  0.00    +0.000 C 
ATOM     78  H   UNL     1     -13.159   3.568  12.527  0.00  0.00    +0.000 HD
ATOM     79  H   UNL     1     -12.148   4.190  13.863  0.00  0.00    +0.000 HD
ATOM     80  H   UNL     1     -13.786   4.597  13.871  0.00  0.00    +0.000 HD
ENDBRANCH  76  77
ENDBRANCH   6  76
TORSDOF 12
ENDMDL
MODEL 8
REMARK VINA RESULT:    -6.233      3.983      5.420
REMARK INTER + INTRA:         -10.147
REMARK INTER:                  -9.305
REMARK INTRA:                  -0.842
REMARK UNBOUND:                -0.634
REMARK  Name = 
REMARK  12 active torsions:
REMARK  status: ('A' for Active; 'I' for Inactive)
REMARK    1  A    between atoms: C_1  and  C_2
REMARK    2  A    between atoms: C_2  and  C_3
REMARK    3  A    between atoms: C_3  and  C_4
REMARK    4  A    between atoms: C_4  and  C_5
REMARK    5  A    between atoms: C_5  and  O_6
REMARK    6  A    between atoms: C_5  and  C_7
REMARK    7  A    between atoms: C_7  and  N_8
REMARK    8  A    between atoms: N_8  and  C_9
REMARK    9  A    between atoms: N_8  and  C_10
REMARK   10  A    between atoms: C_14  and  C_15
REMARK   11  A    between atoms: C_16  and  O_17
REMARK   12  A    between atoms: O_17  and  C_18
REMARK                            x       y       z     vdW  Elec       q    Type
REMARK                         _______ _______ _______ _____ _____    ______ ____
ROOT
ATOM      1  C   UNL     1      -9.611  -0.752  19.228  0.00  0.00    +0.000 C 
ATOM      2  C   UNL     1     -11.140  -0.790  18.939  0.00  0.00    +0.000 C 
ATOM      3  C   UNL     1     -11.345  -0.108  17.630  0.00  0.00    +0.000 C 
ATOM      4  O   UNL     1     -10.295  -0.914  16.968  0.00  0.00    +0.000 OA
ATOM      5  C   UNL     1      -9.619   0.200  16.559  0.00  0.00    +0.000 C 
ATOM      6  C   UNL     1      -9.335   0.726  18.425  0.00  0.00    +0.000 C 
ATOM      7  N   UNL     1     -10.736   0.228  15.357  0.00  0.00    +0.000 N 
ATOM      8  C   UNL     1     -11.222  -0.803  14.450  0.00  0.00    +0.000 A 
ATOM      9  C   UNL     1     -10.717  -2.070  14.131  0.00  0.00    +0.000 A 
ATOM     10  C   UNL     1     -11.394  -2.837  13.168  0.00  0.00    +0.000 A 
ATOM     11  C   UNL     1     -12.523  -2.370  12.486  0.00  0.00    +0.000 A 
ATOM     12  C   UNL     1     -13.143  -1.192  12.866  0.00  0.00    +0.000 A 
ATOM     13  C   UNL     1     -12.600  -0.480  13.935  0.00  0.00    +0.000 A 
ATOM     14  C   UNL     1     -13.206   0.437  14.778  0.00  0.00    +0.000 A 
ATOM     15  C   UNL     1     -14.348   1.297  14.740  0.00  0.00    +0.000 A 
ATOM     16  C   UNL     1     -13.889   2.686  14.658  0.00  0.00    +0.000 A 
ATOM     17  C   UNL     1     -12.808   2.829  15.638  0.00  0.00    +0.000 A 
ATOM     18  C   UNL     1     -11.514   3.132  15.150  0.00  0.00    +0.000 A 
ATOM     19  C   UNL     1     -11.001   3.187  13.816  0.00  0.00    +0.000 A 
ATOM     20  C   UNL     1      -9.641   3.198  13.579  0.00  0.00    +0.000 A 
ATOM     21  C   UNL     1      -8.805   3.369  14.676  0.00  0.00    +0.000 A 
ATOM     22  C   UNL     1      -9.254   3.185  16.026  0.00  0.00    +0.000 A 
ATOM     23  C   UNL     1     -10.577   2.726  16.278  0.00  0.00    +0.000 A 
ATOM     24  N   UNL     1     -11.326   1.618  17.218  0.00  0.00    +0.000 N 
ATOM     25  C   UNL     1     -12.334   1.746  16.395  0.00  0.00    +0.000 A 
ATOM     26  C   UNL     1     -12.039   0.718  15.481  0.00  0.00    +0.000 A 
ATOM     27  C   UNL     1     -15.017   3.564  14.838  0.00  0.00    +0.000 C 
ATOM     28  O   UNL     1     -15.201   4.745  14.569  0.00  0.00    +0.000 OA
ATOM     29  N   UNL     1     -15.904   2.778  15.557  0.00  0.00    +0.000 N 
ATOM     30  C   UNL     1     -15.433   1.418  15.821  0.00  0.00    +0.000 C 
ATOM     31  H   UNL     1      -8.991  -1.484  18.691  0.00  0.00    +0.000 HD
ATOM     32  H   UNL     1     -11.393  -1.844  18.726  0.00  0.00    +0.000 HD
ATOM     33  H   UNL     1     -11.814  -0.432  19.719  0.00  0.00    +0.000 HD
ATOM     34  H   UNL     1     -12.350  -0.432  17.320  0.00  0.00    +0.000 HD
ATOM     35  H   UNL     1      -8.312   1.079  18.569  0.00  0.00    +0.000 HD
ATOM     36  H   UNL     1      -9.869  -2.483  14.667  0.00  0.00    +0.000 HD
ATOM     37  H   UNL     1     -11.038  -3.839  12.945  0.00  0.00    +0.000 HD
ATOM     38  H   UNL     1     -12.981  -2.970  11.709  0.00  0.00    +0.000 HD
ATOM     39  H   UNL     1     -14.103  -0.897  12.447  0.00  0.00    +0.000 HD
ATOM     40  H   UNL     1     -11.681   3.030  12.974  0.00  0.00    +0.000 HD
ATOM     41  H   UNL     1      -9.266   3.147  12.557  0.00  0.00    +0.000 HD
ATOM     42  H   UNL     1      -7.777   3.642  14.461  0.00  0.00    +0.000 HD
ATOM     43  H   UNL     1      -8.607   3.534  16.824  0.00  0.00    +0.000 HD
ATOM     44  H   UNL     1     -16.606   3.265  16.099  0.00  0.00    +0.000 HD
ATOM     45  H   UNL     1     -16.247   0.698  15.801  0.00  0.00    +0.000 HD
ATOM     46  H   UNL     1     -14.991   1.447  16.836  0.00  0.00    +0.000 HD
ENDROOT
BRANCH   5  47
ATOM     47  C   UNL     1      -8.160   0.098  16.086  0.00  0.00    +0.000 C 
ATOM     48  H   UNL     1      -7.601   0.995  16.402  0.00  0.00    +0.000 HD
ATOM     49  H   UNL     1      -7.639  -0.725  16.593  0.00  0.00    +0.000 HD
ATOM     50  H   UNL     1      -8.015  -0.010  15.014  0.00  0.00    +0.000 HD
ENDBRANCH   5  47
BRANCH   1  51
ATOM     51  N   UNL     1      -9.640  -1.212  20.654  0.00  0.00    +0.000 NA
BRANCH  51  52
ATOM     52  C   UNL     1     -10.980  -1.732  21.046  0.00  0.00    +0.000 C 
ATOM     53  H   UNL     1     -11.100  -2.798  20.827  0.00  0.00    +0.000 HD
ATOM     54  H   UNL     1     -11.822  -1.236  20.553  0.00  0.00    +0.000 HD
ATOM     55  H   UNL     1     -11.177  -1.547  22.108  0.00  0.00    +0.000 HD
ENDBRANCH  51  52
BRANCH  51  56
ATOM     56  C   UNL     1      -8.608  -2.145  21.096  0.00  0.00    +0.000 C 
ATOM     57  H   UNL     1      -8.994  -3.165  21.004  0.00  0.00    +0.000 HD
ATOM     58  H   UNL     1      -7.803  -2.071  20.347  0.00  0.00    +0.000 HD
BRANCH  56  59
ATOM     59  C   UNL     1      -7.943  -1.955  22.490  0.00  0.00    +0.000 C 
ATOM     60  H   UNL     1      -8.444  -1.146  23.030  0.00  0.00    +0.000 HD
BRANCH  59  61
ATOM     61  C   UNL     1      -8.051  -3.272  23.263  0.00  0.00    +0.000 C 
ATOM     62  H   UNL     1      -7.053  -3.724  23.340  0.00  0.00    +0.000 HD
ATOM     63  H   UNL     1      -8.687  -3.972  22.709  0.00  0.00    +0.000 HD
BRANCH  61  64
ATOM     64  C   UNL     1      -8.599  -3.088  24.677  0.00  0.00    +0.000 C 
ATOM     65  H   UNL     1      -8.975  -4.040  25.071  0.00  0.00    +0.000 HD
ATOM     66  H   UNL     1      -7.794  -2.757  25.345  0.00  0.00    +0.000 HD
BRANCH  64  67
ATOM     67  C   UNL     1      -9.732  -2.064  24.666  0.00  0.00    +0.000 C 
ATOM     68  H   UNL     1      -9.665  -1.424  25.553  0.00  0.00    +0.000 HD
ATOM     69  H   UNL     1      -9.626  -1.414  23.789  0.00  0.00    +0.000 HD
BRANCH  67  70
ATOM     70  C   UNL     1     -11.093  -2.733  24.631  0.00  0.00    +0.000 C 
ATOM     71  H   UNL     1     -11.759  -2.237  23.917  0.00  0.00    +0.000 HD
ATOM     72  H   UNL     1     -11.001  -3.785  24.343  0.00  0.00    +0.000 HD
ATOM     73  H   UNL     1     -11.559  -2.688  25.620  0.00  0.00    +0.000 HD
ENDBRANCH  67  70
ENDBRANCH  64  67
ENDBRANCH  61  64
ENDBRANCH  59  61
BRANCH  59  74
ATOM     74  O   UNL     1      -6.551  -1.628  22.423  0.00  0.00    +0.000 OA
ATOM     75  H   UNL     1      -6.045  -2.456  22.368  0.00  0.00    +0.000 HD
ENDBRANCH  59  74
ENDBRANCH  56  59
ENDBRANCH  51  56
ENDBRANCH   1  51
BRANCH   6  76
ATOM     76  O   UNL     1     -10.201   1.434  19.402  0.00  0.00    +0.000 OA
BRANCH  76  77
ATOM     77  C   UNL     1     -10.130   2.662  20.090  0.00  0.00    +0.000 C 
ATOM     78  H   UNL     1      -9.114   3.005  20.254  0.00  0.00    +0.000 HD
ATOM     79  H   UNL     1     -10.637   2.522  21.055  0.00  0.00    +0.000 HD
ATOM     80  H   UNL     1     -10.757   3.451  19.651  0.00  0.00    +0.000 HD
ENDBRANCH  76  77
ENDBRANCH   6  76
TORSDOF 12
ENDMDL
MODEL 9
REMARK VINA RESULT:    -6.194      2.251      5.260
REMARK INTER + INTRA:         -10.087
REMARK INTER:                  -9.495
REMARK INTRA:                  -0.592
REMARK UNBOUND:                -0.634
REMARK  Name = 
REMARK  12 active torsions:
REMARK  status: ('A' for Active; 'I' for Inactive)
REMARK    1  A    between atoms: C_1  and  C_2
REMARK    2  A    between atoms: C_2  and  C_3
REMARK    3  A    between atoms: C_3  and  C_4
REMARK    4  A    between atoms: C_4  and  C_5
REMARK    5  A    between atoms: C_5  and  O_6
REMARK    6  A    between atoms: C_5  and  C_7
REMARK    7  A    between atoms: C_7  and  N_8
REMARK    8  A    between atoms: N_8  and  C_9
REMARK    9  A    between atoms: N_8  and  C_10
REMARK   10  A    between atoms: C_14  and  C_15
REMARK   11  A    between atoms: C_16  and  O_17
REMARK   12  A    between atoms: O_17  and  C_18
REMARK                            x       y       z     vdW  Elec       q    Type
REMARK                         _______ _______ _______ _____ _____    ______ ____
ROOT
ATOM      1  C   UNL     1     -11.304  -2.898  16.062  0.00  0.00    +0.000 C 
ATOM      2  C   UNL     1      -9.985  -2.083  16.198  0.00  0.00    +0.000 C 
ATOM      3  C   UNL     1      -9.823  -1.316  14.930  0.00  0.00    +0.000 C 
ATOM      4  O   UNL     1     -11.204  -0.789  14.993  0.00  0.00    +0.000 OA
ATOM      5  C   UNL     1     -11.504  -1.270  13.750  0.00  0.00    +0.000 C 
ATOM      6  C   UNL     1     -11.190  -3.101  14.373  0.00  0.00    +0.000 C 
ATOM      7  N   UNL     1     -10.724   0.075  13.227  0.00  0.00    +0.000 N 
ATOM      8  C   UNL     1     -10.838   1.479  13.601  0.00  0.00    +0.000 A 
ATOM      9  C   UNL     1     -11.817   2.168  14.327  0.00  0.00    +0.000 A 
ATOM     10  C   UNL     1     -11.674   3.556  14.494  0.00  0.00    +0.000 A 
ATOM     11  C   UNL     1     -10.619   4.280  13.929  0.00  0.00    +0.000 A 
ATOM     12  C   UNL     1      -9.554   3.630  13.330  0.00  0.00    +0.000 A 
ATOM     13  C   UNL     1      -9.573   2.237  13.293  0.00  0.00    +0.000 A 
ATOM     14  C   UNL     1      -8.519   1.346  13.168  0.00  0.00    +0.000 A 
ATOM     15  C   UNL     1      -7.178   1.375  12.671  0.00  0.00    +0.000 A 
ATOM     16  C   UNL     1      -7.115   0.582  11.440  0.00  0.00    +0.000 A 
ATOM     17  C   UNL     1      -7.847  -0.661  11.705  0.00  0.00    +0.000 A 
ATOM     18  C   UNL     1      -9.017  -0.909  10.948  0.00  0.00    +0.000 A 
ATOM     19  C   UNL     1      -9.738  -0.080  10.033  0.00  0.00    +0.000 A 
ATOM     20  C   UNL     1     -11.022  -0.405   9.641  0.00  0.00    +0.000 A 
ATOM     21  C   UNL     1     -11.496  -1.662   9.996  0.00  0.00    +0.000 A 
ATOM     22  C   UNL     1     -10.875  -2.465  11.011  0.00  0.00    +0.000 A 
ATOM     23  C   UNL     1      -9.784  -1.943  11.759  0.00  0.00    +0.000 A 
ATOM     24  N   UNL     1      -9.306  -1.854  13.320  0.00  0.00    +0.000 N 
ATOM     25  C   UNL     1      -8.511  -0.896  12.919  0.00  0.00    +0.000 A 
ATOM     26  C   UNL     1      -9.336   0.221  13.146  0.00  0.00    +0.000 A 
ATOM     27  C   UNL     1      -5.737   0.425  11.054  0.00  0.00    +0.000 C 
ATOM     28  O   UNL     1      -5.200   0.122   9.995  0.00  0.00    +0.000 OA
ATOM     29  N   UNL     1      -5.063   0.580  12.256  0.00  0.00    +0.000 N 
ATOM     30  C   UNL     1      -5.925   0.871  13.401  0.00  0.00    +0.000 C 
ATOM     31  H   UNL     1     -12.242  -2.346  16.215  0.00  0.00    +0.000 HD
ATOM     32  H   UNL     1     -10.176  -1.301  16.953  0.00  0.00    +0.000 HD
ATOM     33  H   UNL     1      -9.082  -2.622  16.491  0.00  0.00    +0.000 HD
ATOM     34  H   UNL     1      -9.087  -0.539  15.186  0.00  0.00    +0.000 HD
ATOM     35  H   UNL     1     -11.966  -3.770  13.994  0.00  0.00    +0.000 HD
ATOM     36  H   UNL     1     -12.628   1.636  14.815  0.00  0.00    +0.000 HD
ATOM     37  H   UNL     1     -12.404   4.094  15.093  0.00  0.00    +0.000 HD
ATOM     38  H   UNL     1     -10.576   5.358  14.033  0.00  0.00    +0.000 HD
ATOM     39  H   UNL     1      -8.660   4.170  13.024  0.00  0.00    +0.000 HD
ATOM     40  H   UNL     1      -9.349   0.912   9.788  0.00  0.00    +0.000 HD
ATOM     41  H   UNL     1     -11.591   0.283   9.018  0.00  0.00    +0.000 HD
ATOM     42  H   UNL     1     -12.378  -2.011   9.469  0.00  0.00    +0.000 HD
ATOM     43  H   UNL     1     -11.175  -3.505  11.084  0.00  0.00    +0.000 HD
ATOM     44  H   UNL     1      -4.138   0.175  12.313  0.00  0.00    +0.000 HD
ATOM     45  H   UNL     1      -5.446   1.545  14.106  0.00  0.00    +0.000 HD
ATOM     46  H   UNL     1      -6.109  -0.105  13.891  0.00  0.00    +0.000 HD
ENDROOT
BRANCH   5  47
ATOM     47  C   UNL     1     -12.967  -1.392  13.292  0.00  0.00    +0.000 C 
ATOM     48  H   UNL     1     -13.488  -0.433  13.446  0.00  0.00    +0.000 HD
ATOM     49  H   UNL     1     -13.027  -1.549  12.206  0.00  0.00    +0.000 HD
ATOM     50  H   UNL     1     -13.556  -2.161  13.785  0.00  0.00    +0.000 HD
ENDBRANCH   5  47
BRANCH   1  51
ATOM     51  N   UNL     1     -11.150  -3.780  17.263  0.00  0.00    +0.000 NA
BRANCH  51  52
ATOM     52  C   UNL     1     -11.927  -3.275  18.429  0.00  0.00    +0.000 C 
ATOM     53  H   UNL     1     -12.009  -2.183  18.442  0.00  0.00    +0.000 HD
ATOM     54  H   UNL     1     -11.513  -3.547  19.405  0.00  0.00    +0.000 HD
ATOM     55  H   UNL     1     -12.928  -3.721  18.456  0.00  0.00    +0.000 HD
ENDBRANCH  51  52
BRANCH  51  56
ATOM     56  C   UNL     1     -11.389  -5.211  17.102  0.00  0.00    +0.000 C 
ATOM     57  H   UNL     1     -12.302  -5.477  17.642  0.00  0.00    +0.000 HD
ATOM     58  H   UNL     1     -11.631  -5.350  16.035  0.00  0.00    +0.000 HD
BRANCH  56  59
ATOM     59  C   UNL     1     -10.258  -6.225  17.442  0.00  0.00    +0.000 C 
ATOM     60  H   UNL     1     -10.242  -6.411  18.520  0.00  0.00    +0.000 HD
BRANCH  59  61
ATOM     61  C   UNL     1     -10.520  -7.521  16.671  0.00  0.00    +0.000 C 
ATOM     62  H   UNL     1     -10.421  -7.323  15.595  0.00  0.00    +0.000 HD
ATOM     63  H   UNL     1     -11.549  -7.854  16.851  0.00  0.00    +0.000 HD
BRANCH  61  64
ATOM     64  C   UNL     1      -9.546  -8.639  17.040  0.00  0.00    +0.000 C 
ATOM     65  H   UNL     1      -8.551  -8.432  16.627  0.00  0.00    +0.000 HD
ATOM     66  H   UNL     1      -9.441  -8.691  18.131  0.00  0.00    +0.000 HD
BRANCH  64  67
ATOM     67  C   UNL     1     -10.052  -9.970  16.492  0.00  0.00    +0.000 C 
ATOM     68  H   UNL     1     -11.138 -10.042  16.627  0.00  0.00    +0.000 HD
ATOM     69  H   UNL     1      -9.858 -10.019  15.414  0.00  0.00    +0.000 HD
BRANCH  67  70
ATOM     70  C   UNL     1      -9.384 -11.150  17.173  0.00  0.00    +0.000 C 
ATOM     71  H   UNL     1     -10.027 -12.035  17.152  0.00  0.00    +0.000 HD
ATOM     72  H   UNL     1      -8.439 -11.398  16.679  0.00  0.00    +0.000 HD
ATOM     73  H   UNL     1      -9.170 -10.907  18.218  0.00  0.00    +0.000 HD
ENDBRANCH  67  70
ENDBRANCH  64  67
ENDBRANCH  61  64
ENDBRANCH  59  61
BRANCH  59  74
ATOM     74  O   UNL     1      -8.952  -5.775  17.066  0.00  0.00    +0.000 OA
ATOM     75  H   UNL     1      -8.788  -4.920  17.497  0.00  0.00    +0.000 HD
ENDBRANCH  59  74
ENDBRANCH  56  59
ENDBRANCH  51  56
ENDBRANCH   1  51
BRANCH   6  76
ATOM     76  O   UNL     1      -9.947  -3.897  14.538  0.00  0.00    +0.000 OA
BRANCH  76  77
ATOM     77  C   UNL     1      -9.403  -5.037  13.914  0.00  0.00    +0.000 C 
ATOM     78  H   UNL     1     -10.089  -5.521  13.228  0.00  0.00    +0.000 HD
ATOM     79  H   UNL     1      -9.117  -5.737  14.712  0.00  0.00    +0.000 HD
ATOM     80  H   UNL     1      -8.424  -4.860  13.447  0.00  0.00    +0.000 HD
ENDBRANCH  76  77
ENDBRANCH   6  76
TORSDOF 12
ENDMDL
