REMARK  Name = 
REMARK  6 active torsions:
REMARK  status: ('A' for Active; 'I' for Inactive)
REMARK    1  A    between atoms: C_1  and  N_2
REMARK    2  A    between atoms: N_2  and  C_3
REMARK    3  A    between atoms: C_7  and  C_8
REMARK    4  A    between atoms: C_9  and  O_10
REMARK    5  A    between atoms: O_10  and  C_11
REMARK    6  A    between atoms: C_35  and  O_36
REMARK                            x       y       z     vdW  Elec       q    Type
REMARK                         _______ _______ _______ _____ _____    ______ ____
ROOT
ATOM      1  C   UNL     1       2.427  -2.436  -0.338  0.00  0.00    +0.000 C 
ATOM      2  C   UNL     1       0.977  -2.783  -0.631  0.00  0.00    +0.000 C 
ATOM      3  C   UNL     1       0.345  -1.838  -1.640  0.00  0.00    +0.000 C 
ATOM      4  O   UNL     1       1.177  -0.784  -2.094  0.00  0.00    +0.000 OA
ATOM      5  C   UNL     1       1.869  -0.014  -1.092  0.00  0.00    +0.000 C 
ATOM      6  C   UNL     1       2.641  -0.917  -0.065  0.00  0.00    +0.000 C 
ATOM      7  N   UNL     1       0.949   0.949  -0.513  0.00  0.00    +0.000 N 
ATOM      8  C   UNL     1       1.206   2.258  -0.035  0.00  0.00    +0.000 A 
ATOM      9  C   UNL     1       2.426   2.902   0.232  0.00  0.00    +0.000 A 
ATOM     10  C   UNL     1       2.440   4.286   0.410  0.00  0.00    +0.000 A 
ATOM     11  C   UNL     1       1.265   5.023   0.366  0.00  0.00    +0.000 A 
ATOM     12  C   UNL     1       0.028   4.375   0.329  0.00  0.00    +0.000 A 
ATOM     13  C   UNL     1      -0.023   2.971   0.218  0.00  0.00    +0.000 A 
ATOM     14  C   UNL     1      -1.026   1.998   0.306  0.00  0.00    +0.000 A 
ATOM     15  C   UNL     1      -2.307   2.130   0.879  0.00  0.00    +0.000 A 
ATOM     16  C   UNL     1      -3.073   0.950   0.802  0.00  0.00    +0.000 A 
ATOM     17  C   UNL     1      -2.506  -0.043  -0.007  0.00  0.00    +0.000 A 
ATOM     18  C   UNL     1      -3.192  -0.957  -0.821  0.00  0.00    +0.000 A 
ATOM     19  C   UNL     1      -4.511  -1.074  -1.303  0.00  0.00    +0.000 A 
ATOM     20  C   UNL     1      -4.858  -2.172  -2.092  0.00  0.00    +0.000 A 
ATOM     21  C   UNL     1      -3.947  -3.200  -2.312  0.00  0.00    +0.000 A 
ATOM     22  C   UNL     1      -2.604  -3.069  -1.946  0.00  0.00    +0.000 A 
ATOM     23  C   UNL     1      -2.202  -1.869  -1.339  0.00  0.00    +0.000 A 
ATOM     24  N   UNL     1      -0.913  -1.321  -1.174  0.00  0.00    +0.000 N 
ATOM     25  C   UNL     1      -1.203  -0.210  -0.465  0.00  0.00    +0.000 A 
ATOM     26  C   UNL     1      -0.379   0.877  -0.256  0.00  0.00    +0.000 A 
ATOM     27  C   UNL     1      -4.041   0.919   1.849  0.00  0.00    +0.000 C 
ATOM     28  O   UNL     1      -4.736   0.032   2.323  0.00  0.00    +0.000 OA
ATOM     29  N   UNL     1      -3.916   2.181   2.427  0.00  0.00    +0.000 N 
ATOM     30  C   UNL     1      -2.895   3.042   1.873  0.00  0.00    +0.000 C 
ATOM     31  H   UNL     1       2.973  -2.656  -1.269  0.00  0.00    +0.000 HD
ATOM     32  H   UNL     1       0.922  -3.802  -1.043  0.00  0.00    +0.000 HD
ATOM     33  H   UNL     1       0.381  -2.834   0.287  0.00  0.00    +0.000 HD
ATOM     34  H   UNL     1       0.111  -2.411  -2.546  0.00  0.00    +0.000 HD
ATOM     35  H   UNL     1       3.705  -0.787  -0.308  0.00  0.00    +0.000 HD
ATOM     36  H   UNL     1       3.354   2.346   0.303  0.00  0.00    +0.000 HD
ATOM     37  H   UNL     1       3.389   4.792   0.564  0.00  0.00    +0.000 HD
ATOM     38  H   UNL     1       1.308   6.108   0.405  0.00  0.00    +0.000 HD
ATOM     39  H   UNL     1      -0.885   4.963   0.350  0.00  0.00    +0.000 HD
ATOM     40  H   UNL     1      -5.223  -0.272  -1.134  0.00  0.00    +0.000 HD
ATOM     41  H   UNL     1      -5.855  -2.226  -2.521  0.00  0.00    +0.000 HD
ATOM     42  H   UNL     1      -4.275  -4.101  -2.826  0.00  0.00    +0.000 HD
ATOM     43  H   UNL     1      -1.896  -3.858  -2.178  0.00  0.00    +0.000 HD
ATOM     44  H   UNL     1      -4.442   2.408   3.256  0.00  0.00    +0.000 HD
ATOM     45  H   UNL     1      -3.368   3.918   1.428  0.00  0.00    +0.000 HD
ENDROOT
BRANCH   5  46
ATOM     46  C   UNL     1       2.911   0.724  -1.978  0.00  0.00    +0.000 C 
ATOM     47  H   UNL     1       3.370   0.039  -2.700  0.00  0.00    +0.000 HD
ATOM     48  H   UNL     1       3.724   1.168  -1.399  0.00  0.00    +0.000 HD
ATOM     49  H   UNL     1       2.439   1.522  -2.566  0.00  0.00    +0.000 HD
ENDBRANCH   5  46
BRANCH   1  50
ATOM     50  N   UNL     1       2.920  -3.382   0.682  0.00  0.00    +0.000 NA
ATOM     51  H   UNL     1       2.797  -4.338   0.346  0.00  0.00    +0.000 HD
BRANCH  50  52
ATOM     52  C   UNL     1       4.324  -3.175   1.012  0.00  0.00    +0.000 C 
ATOM     53  H   UNL     1       4.947  -3.122   0.113  0.00  0.00    +0.000 HD
ATOM     54  H   UNL     1       4.467  -2.270   1.607  0.00  0.00    +0.000 HD
ATOM     55  H   UNL     1       4.678  -4.015   1.617  0.00  0.00    +0.000 HD
ENDBRANCH  50  52
ENDBRANCH   1  50
BRANCH  30  56
ATOM     56  O   UNL     1      -2.038   3.380   2.925  0.00  0.00    +0.000 OA
ATOM     57  H   UNL     1      -1.769   2.540   3.332  0.00  0.00    +0.000 HD
ENDBRANCH  30  56
BRANCH   6  58
ATOM     58  O   UNL     1       2.653  -0.500   1.310  0.00  0.00    +0.000 OA
BRANCH  58  59
ATOM     59  C   UNL     1       1.467  -0.586   2.078  0.00  0.00    +0.000 C 
ATOM     60  H   UNL     1       0.941   0.370   2.073  0.00  0.00    +0.000 HD
ATOM     61  H   UNL     1       0.798  -1.386   1.767  0.00  0.00    +0.000 HD
ATOM     62  H   UNL     1       1.751  -0.758   3.120  0.00  0.00    +0.000 HD
ENDBRANCH  58  59
ENDBRANCH   6  58
TORSDOF 6
