REMARK  Name = 
REMARK  14 active torsions:
REMARK  status: ('A' for Active; 'I' for Inactive)
REMARK    1  A    between atoms: C_1  and  O_2
REMARK    2  A    between atoms: O_2  and  C_3
REMARK    3  A    between atoms: C_3  and  C_5
REMARK    4  A    between atoms: C_9  and  O_10
REMARK    5  A    between atoms: C_11  and  C_12
REMARK    6  A    between atoms: C_12  and  C_14
REMARK    7  A    between atoms: C_15  and  O_16
REMARK    8  A    between atoms: C_18  and  C_19
REMARK    9  A    between atoms: C_19  and  O_21
REMARK   10  A    between atoms: O_21  and  C_22
REMARK   11  A    between atoms: C_26  and  C_27
REMARK   12  A    between atoms: C_27  and  C_28
REMARK   13  A    between atoms: C_31  and  O_32
REMARK   14  A    between atoms: C_36  and  O_37
REMARK                            x       y       z     vdW  Elec       q    Type
REMARK                         _______ _______ _______ _____ _____    ______ ____
ROOT
ATOM      1  C   UNL     1      -1.659   0.775   0.491  0.00  0.00    +0.000 A 
ATOM      2  C   UNL     1      -0.758  -0.216   0.942  0.00  0.00    +0.000 A 
ATOM      3  C   UNL     1       0.052  -0.941   0.058  0.00  0.00    +0.000 A 
ATOM      4  C   UNL     1      -0.051  -0.726  -1.315  0.00  0.00    +0.000 A 
ATOM      5  C   UNL     1      -0.936   0.250  -1.792  0.00  0.00    +0.000 A 
ATOM      6  C   UNL     1      -1.696   1.016  -0.895  0.00  0.00    +0.000 A 
ATOM      7  H   UNL     1       0.729  -1.697   0.453  0.00  0.00    +0.000 HD
ATOM      8  H   UNL     1      -1.024   0.408  -2.865  0.00  0.00    +0.000 HD
ENDROOT
BRANCH   1   9
ATOM      9  C   UNL     1      -2.571   1.446   1.491  0.00  0.00    +0.000 C 
ATOM     10  O   UNL     1      -2.276   1.366   2.685  0.00  0.00    +0.000 OA
BRANCH   9  16
ATOM     11  C   UNL     1      -4.351   3.271   1.694  0.00  0.00    +0.000 A 
ATOM     12  C   UNL     1      -5.599   3.797   1.270  0.00  0.00    +0.000 A 
ATOM     13  C   UNL     1      -6.363   3.160   0.304  0.00  0.00    +0.000 A 
ATOM     14  C   UNL     1      -5.929   1.957  -0.235  0.00  0.00    +0.000 A 
ATOM     15  C   UNL     1      -4.725   1.401   0.216  0.00  0.00    +0.000 A 
ATOM     16  C   UNL     1      -3.885   2.067   1.131  0.00  0.00    +0.000 A 
ATOM     17  H   UNL     1      -5.975   4.734   1.682  0.00  0.00    +0.000 HD
ATOM     18  H   UNL     1      -7.303   3.601  -0.030  0.00  0.00    +0.000 HD
ATOM     19  H   UNL     1      -6.526   1.457  -0.982  0.00  0.00    +0.000 HD
BRANCH  11  20
ATOM     20  C   UNL     1      -3.569   4.108   2.650  0.00  0.00    +0.000 C 
ATOM     21  O   UNL     1      -2.351   4.215   2.655  0.00  0.00    +0.000 OA
BRANCH  20  22
ATOM     22  O   UNL     1      -4.432   4.826   3.422  0.00  0.00    +0.000 OA
BRANCH  22  23
ATOM     23  C   UNL     1      -3.855   5.873   4.205  0.00  0.00    +0.000 C 
ATOM     24  H   UNL     1      -4.650   6.583   4.456  0.00  0.00    +0.000 HD
ATOM     25  H   UNL     1      -3.085   6.419   3.650  0.00  0.00    +0.000 HD
ATOM     26  H   UNL     1      -3.452   5.459   5.131  0.00  0.00    +0.000 HD
ENDBRANCH  22  23
ENDBRANCH  20  22
ENDBRANCH  11  20
BRANCH  15  27
ATOM     27  O   UNL     1      -4.392   0.169  -0.281  0.00  0.00    +0.000 OA
ATOM     28  H   UNL     1      -4.594   0.176  -1.231  0.00  0.00    +0.000 HD
ENDBRANCH  15  27
ENDBRANCH   9  16
ENDBRANCH   1   9
BRANCH   2  29
ATOM     29  O   UNL     1      -0.640  -0.579   2.262  0.00  0.00    +0.000 OA
ATOM     30  H   UNL     1      -1.263  -0.020   2.780  0.00  0.00    +0.000 HD
ENDBRANCH   2  29
BRANCH   4  31
ATOM     31  C   UNL     1       0.694  -1.556  -2.295  0.00  0.00    +0.000 C 
ATOM     32  O   UNL     1       0.272  -1.769  -3.424  0.00  0.00    +0.000 OA
BRANCH  31  33
ATOM     33  O   UNL     1       1.866  -2.005  -1.779  0.00  0.00    +0.000 OA
BRANCH  33  34
ATOM     34  C   UNL     1       2.635  -2.840  -2.647  0.00  0.00    +0.000 C 
ATOM     35  C   UNL     1       2.166  -4.285  -2.612  0.00  0.00    +0.000 C 
ATOM     36  N   UNL     1       3.263  -5.069  -3.191  0.00  0.00    +0.000 NA
ATOM     37  C   UNL     1       4.498  -4.293  -2.982  0.00  0.00    +0.000 C 
ATOM     38  C   UNL     1       4.123  -2.976  -2.282  0.00  0.00    +0.000 C 
ATOM     39  H   UNL     1       2.587  -2.456  -3.679  0.00  0.00    +0.000 HD
ATOM     40  H   UNL     1       1.230  -4.435  -3.169  0.00  0.00    +0.000 HD
ATOM     41  H   UNL     1       1.972  -4.613  -1.585  0.00  0.00    +0.000 HD
ATOM     42  H   UNL     1       3.105  -5.158  -4.196  0.00  0.00    +0.000 HD
ATOM     43  H   UNL     1       4.961  -4.084  -3.954  0.00  0.00    +0.000 HD
ATOM     44  H   UNL     1       5.214  -4.888  -2.406  0.00  0.00    +0.000 HD
ATOM     45  H   UNL     1       4.686  -2.151  -2.735  0.00  0.00    +0.000 HD
BRANCH  38  46
ATOM     46  C   UNL     1       4.494  -3.073  -0.787  0.00  0.00    +0.000 C 
ATOM     47  H   UNL     1       5.572  -3.278  -0.712  0.00  0.00    +0.000 HD
ATOM     48  H   UNL     1       3.988  -3.944  -0.351  0.00  0.00    +0.000 HD
BRANCH  46  49
ATOM     49  C   UNL     1       4.233  -1.868   0.084  0.00  0.00    +0.000 A 
ATOM     50  C   UNL     1       3.915  -2.068   1.438  0.00  0.00    +0.000 A 
ATOM     51  C   UNL     1       3.587  -0.989   2.259  0.00  0.00    +0.000 A 
ATOM     52  C   UNL     1       3.597   0.292   1.726  0.00  0.00    +0.000 A 
ATOM     53  C   UNL     1       4.007   0.524   0.422  0.00  0.00    +0.000 A 
ATOM     54  C   UNL     1       4.333  -0.556  -0.398  0.00  0.00    +0.000 A 
ATOM     55  H   UNL     1       3.899  -3.073   1.856  0.00  0.00    +0.000 HD
ATOM     56  H   UNL     1       3.324  -1.158   3.299  0.00  0.00    +0.000 HD
ATOM     57  H   UNL     1       4.040   1.537   0.035  0.00  0.00    +0.000 HD
ATOM     58  H   UNL     1       4.635  -0.353  -1.421  0.00  0.00    +0.000 HD
BRANCH  52  59
ATOM     59  O   UNL     1       3.165   1.352   2.463  0.00  0.00    +0.000 OA
ATOM     60  H   UNL     1       2.278   1.105   2.785  0.00  0.00    +0.000 HD
ENDBRANCH  52  59
ENDBRANCH  46  49
ENDBRANCH  38  46
ENDBRANCH  33  34
ENDBRANCH  31  33
ENDBRANCH   4  31
BRANCH   6  61
ATOM     61  O   UNL     1      -2.500   1.994  -1.420  0.00  0.00    +0.000 OA
ATOM     62  H   UNL     1      -2.707   1.775  -2.344  0.00  0.00    +0.000 HD
ENDBRANCH   6  61
TORSDOF 14
