MODEL 1
REMARK VINA RESULT:    -9.488      0.000      0.000
REMARK INTER + INTRA:         -11.534
REMARK INTER:                 -11.429
REMARK INTRA:                  -0.105
REMARK UNBOUND:                -0.105
REMARK  Name = 
REMARK  6 active torsions:
REMARK  status: ('A' for Active; 'I' for Inactive)
REMARK    1  A    between atoms: C_1  and  C_2
REMARK    2  A    between atoms: C_2  and  N_3
REMARK    3  A    between atoms: C_7  and  O_8
REMARK    4  A    between atoms: C_9  and  O_10
REMARK    5  A    between atoms: C_16  and  O_17
REMARK    6  A    between atoms: C_18  and  O_19
REMARK                            x       y       z     vdW  Elec       q    Type
REMARK                         _______ _______ _______ _____ _____    ______ ____
ROOT
ATOM      1  N   UNL     1      -8.831 -10.116  15.722  0.00  0.00    +0.000 N 
ATOM      2  C   UNL     1      -8.818  -8.856  16.321  0.00  0.00    +0.000 A 
ATOM      3  O   UNL     1      -8.824  -7.799  15.680  0.00  0.00    +0.000 OA
ATOM      4  C   UNL     1      -8.783  -8.763  17.799  0.00  0.00    +0.000 A 
ATOM      5  C   UNL     1      -8.786  -7.500  18.419  0.00  0.00    +0.000 A 
ATOM      6  C   UNL     1      -8.730  -7.400  19.803  0.00  0.00    +0.000 A 
ATOM      7  C   UNL     1      -8.670  -8.536  20.587  0.00  0.00    +0.000 A 
ATOM      8  C   UNL     1      -8.671  -9.793  19.974  0.00  0.00    +0.000 A 
ATOM      9  C   UNL     1      -8.729  -9.943  18.569  0.00  0.00    +0.000 A 
ATOM     10  C   UNL     1      -8.731 -11.264  17.896  0.00  0.00    +0.000 A 
ATOM     11  C   UNL     1      -8.664 -12.485  18.614  0.00  0.00    +0.000 A 
ATOM     12  C   UNL     1      -8.659 -13.710  17.953  0.00  0.00    +0.000 A 
ATOM     13  C   UNL     1      -8.723 -13.753  16.575  0.00  0.00    +0.000 A 
ATOM     14  C   UNL     1      -8.791 -12.581  15.841  0.00  0.00    +0.000 A 
ATOM     15  C   UNL     1      -8.788 -11.327  16.482  0.00  0.00    +0.000 A 
ATOM     16  H   UNL     1      -8.622  -8.448  21.668  0.00  0.00    +0.000 HD
ATOM     17  H   UNL     1      -8.620 -10.651  20.637  0.00  0.00    +0.000 HD
ATOM     18  H   UNL     1      -8.609 -12.492  19.696  0.00  0.00    +0.000 HD
ATOM     19  H   UNL     1      -8.839 -12.694  14.766  0.00  0.00    +0.000 HD
ENDROOT
BRANCH   1  20
ATOM     20  C   UNL     1      -8.751 -10.162  14.258  0.00  0.00    +0.000 C 
ATOM     21  H   UNL     1      -8.056  -9.407  13.883  0.00  0.00    +0.000 HD
ATOM     22  H   UNL     1      -8.314 -11.118  13.947  0.00  0.00    +0.000 HD
BRANCH  20  23
ATOM     23  C   UNL     1     -10.128 -10.027  13.621  0.00  0.00    +0.000 C 
ATOM     24  H   UNL     1     -10.143 -10.509  12.638  0.00  0.00    +0.000 HD
ATOM     25  H   UNL     1     -10.414  -8.979  13.489  0.00  0.00    +0.000 HD
ATOM     26  H   UNL     1     -10.893 -10.499  14.246  0.00  0.00    +0.000 HD
ENDBRANCH  20  23
ENDBRANCH   1  20
BRANCH   5  27
ATOM     27  O   UNL     1      -8.837  -6.308  17.736  0.00  0.00    +0.000 OA
ATOM     28  H   UNL     1      -8.618  -6.499  16.794  0.00  0.00    +0.000 HD
ENDBRANCH   5  27
BRANCH   6  29
ATOM     29  O   UNL     1      -8.728  -6.181  20.413  0.00  0.00    +0.000 OA
ATOM     30  H   UNL     1      -7.781  -5.962  20.528  0.00  0.00    +0.000 HD
ENDBRANCH   6  29
BRANCH  12  31
ATOM     31  O   UNL     1      -8.590 -14.901  18.621  0.00  0.00    +0.000 OA
ATOM     32  H   UNL     1      -8.027 -15.511  18.115  0.00  0.00    +0.000 HD
ENDBRANCH  12  31
BRANCH  13  33
ATOM     33  O   UNL     1      -8.715 -14.943  15.908  0.00  0.00    +0.000 OA
ATOM     34  H   UNL     1      -8.099 -15.512  16.414  0.00  0.00    +0.000 HD
ENDBRANCH  13  33
TORSDOF 6
ENDMDL
MODEL 2
REMARK VINA RESULT:    -8.747      1.884      6.363
REMARK INTER + INTRA:         -10.642
REMARK INTER:                 -10.953
REMARK INTRA:                   0.311
REMARK UNBOUND:                -0.105
REMARK  Name = 
REMARK  6 active torsions:
REMARK  status: ('A' for Active; 'I' for Inactive)
REMARK    1  A    between atoms: C_1  and  C_2
REMARK    2  A    between atoms: C_2  and  N_3
REMARK    3  A    between atoms: C_7  and  O_8
REMARK    4  A    between atoms: C_9  and  O_10
REMARK    5  A    between atoms: C_16  and  O_17
REMARK    6  A    between atoms: C_18  and  O_19
REMARK                            x       y       z     vdW  Elec       q    Type
REMARK                         _______ _______ _______ _____ _____    ______ ____
ROOT
ATOM      1  N   UNL     1      -8.988  -8.719  18.734  0.00  0.00    +0.000 N 
ATOM      2  C   UNL     1      -8.790 -10.100  18.728  0.00  0.00    +0.000 A 
ATOM      3  O   UNL     1      -8.601 -10.764  19.753  0.00  0.00    +0.000 OA
ATOM      4  C   UNL     1      -8.789 -10.821  17.434  0.00  0.00    +0.000 A 
ATOM      5  C   UNL     1      -8.606 -12.216  17.412  0.00  0.00    +0.000 A 
ATOM      6  C   UNL     1      -8.581 -12.900  16.203  0.00  0.00    +0.000 A 
ATOM      7  C   UNL     1      -8.735 -12.220  15.010  0.00  0.00    +0.000 A 
ATOM      8  C   UNL     1      -8.920 -10.834  15.028  0.00  0.00    +0.000 A 
ATOM      9  C   UNL     1      -8.955 -10.098  16.235  0.00  0.00    +0.000 A 
ATOM     10  C   UNL     1      -9.151  -8.629  16.280  0.00  0.00    +0.000 A 
ATOM     11  C   UNL     1      -9.309  -7.845  15.110  0.00  0.00    +0.000 A 
ATOM     12  C   UNL     1      -9.483  -6.466  15.184  0.00  0.00    +0.000 A 
ATOM     13  C   UNL     1      -9.506  -5.837  16.412  0.00  0.00    +0.000 A 
ATOM     14  C   UNL     1      -9.357  -6.571  17.576  0.00  0.00    +0.000 A 
ATOM     15  C   UNL     1      -9.170  -7.965  17.531  0.00  0.00    +0.000 A 
ATOM     16  H   UNL     1      -8.708 -12.762  14.069  0.00  0.00    +0.000 HD
ATOM     17  H   UNL     1      -9.033 -10.352  14.063  0.00  0.00    +0.000 HD
ATOM     18  H   UNL     1      -9.292  -8.302  14.127  0.00  0.00    +0.000 HD
ATOM     19  H   UNL     1      -9.386  -6.009  18.501  0.00  0.00    +0.000 HD
ENDROOT
BRANCH   1  20
ATOM     20  C   UNL     1      -8.868  -8.031  20.023  0.00  0.00    +0.000 C 
ATOM     21  H   UNL     1      -9.801  -7.527  20.284  0.00  0.00    +0.000 HD
ATOM     22  H   UNL     1      -8.722  -8.772  20.819  0.00  0.00    +0.000 HD
BRANCH  20  23
ATOM     23  C   UNL     1      -7.686  -7.071  20.033  0.00  0.00    +0.000 C 
ATOM     24  H   UNL     1      -7.039  -7.251  19.168  0.00  0.00    +0.000 HD
ATOM     25  H   UNL     1      -7.079  -7.181  20.938  0.00  0.00    +0.000 HD
ATOM     26  H   UNL     1      -8.029  -6.032  19.993  0.00  0.00    +0.000 HD
ENDBRANCH  20  23
ENDBRANCH   1  20
BRANCH   5  27
ATOM     27  O   UNL     1      -8.438 -12.987  18.537  0.00  0.00    +0.000 OA
ATOM     28  H   UNL     1      -8.502 -12.388  19.317  0.00  0.00    +0.000 HD
ENDBRANCH   5  27
BRANCH   6  29
ATOM     29  O   UNL     1      -8.400 -14.250  16.172  0.00  0.00    +0.000 OA
ATOM     30  H   UNL     1      -9.293 -14.624  16.324  0.00  0.00    +0.000 HD
ENDBRANCH   6  29
BRANCH  12  31
ATOM     31  O   UNL     1      -9.632  -5.687  14.071  0.00  0.00    +0.000 OA
ATOM     32  H   UNL     1     -10.206  -6.151  13.438  0.00  0.00    +0.000 HD
ENDBRANCH  12  31
BRANCH  13  33
ATOM     33  O   UNL     1      -9.671  -4.486  16.506  0.00  0.00    +0.000 OA
ATOM     34  H   UNL     1      -9.049  -4.109  15.851  0.00  0.00    +0.000 HD
ENDBRANCH  13  33
TORSDOF 6
ENDMDL
MODEL 3
REMARK VINA RESULT:    -8.362      1.398      5.391
REMARK INTER + INTRA:         -10.177
REMARK INTER:                 -10.370
REMARK INTRA:                   0.193
REMARK UNBOUND:                -0.105
REMARK  Name = 
REMARK  6 active torsions:
REMARK  status: ('A' for Active; 'I' for Inactive)
REMARK    1  A    between atoms: C_1  and  C_2
REMARK    2  A    between atoms: C_2  and  N_3
REMARK    3  A    between atoms: C_7  and  O_8
REMARK    4  A    between atoms: C_9  and  O_10
REMARK    5  A    between atoms: C_16  and  O_17
REMARK    6  A    between atoms: C_18  and  O_19
REMARK                            x       y       z     vdW  Elec       q    Type
REMARK                         _______ _______ _______ _____ _____    ______ ____
ROOT
ATOM      1  N   UNL     1      -8.886  -9.488  16.395  0.00  0.00    +0.000 N 
ATOM      2  C   UNL     1      -8.877 -10.725  15.749  0.00  0.00    +0.000 A 
ATOM      3  O   UNL     1      -8.942 -10.850  14.522  0.00  0.00    +0.000 OA
ATOM      4  C   UNL     1      -8.800 -11.961  16.562  0.00  0.00    +0.000 A 
ATOM      5  C   UNL     1      -8.773 -13.215  15.925  0.00  0.00    +0.000 A 
ATOM      6  C   UNL     1      -8.723 -14.382  16.678  0.00  0.00    +0.000 A 
ATOM      7  C   UNL     1      -8.699 -14.325  18.059  0.00  0.00    +0.000 A 
ATOM      8  C   UNL     1      -8.721 -13.080  18.695  0.00  0.00    +0.000 A 
ATOM      9  C   UNL     1      -8.769 -11.867  17.969  0.00  0.00    +0.000 A 
ATOM     10  C   UNL     1      -8.793 -10.535  18.620  0.00  0.00    +0.000 A 
ATOM     11  C   UNL     1      -8.779 -10.376  20.029  0.00  0.00    +0.000 A 
ATOM     12  C   UNL     1      -8.810  -9.112  20.612  0.00  0.00    +0.000 A 
ATOM     13  C   UNL     1      -8.854  -7.985  19.816  0.00  0.00    +0.000 A 
ATOM     14  C   UNL     1      -8.866  -8.102  18.437  0.00  0.00    +0.000 A 
ATOM     15  C   UNL     1      -8.845  -9.368  17.821  0.00  0.00    +0.000 A 
ATOM     16  H   UNL     1      -8.665 -15.242  18.639  0.00  0.00    +0.000 HD
ATOM     17  H   UNL     1      -8.702 -13.095  19.780  0.00  0.00    +0.000 HD
ATOM     18  H   UNL     1      -8.749 -11.237  20.687  0.00  0.00    +0.000 HD
ATOM     19  H   UNL     1      -8.900  -7.175  17.880  0.00  0.00    +0.000 HD
ENDROOT
BRANCH   1  20
ATOM     20  C   UNL     1      -9.079  -8.299  15.560  0.00  0.00    +0.000 C 
ATOM     21  H   UNL     1      -8.273  -7.578  15.718  0.00  0.00    +0.000 HD
ATOM     22  H   UNL     1      -8.997  -8.578  14.503  0.00  0.00    +0.000 HD
BRANCH  20  23
ATOM     23  C   UNL     1     -10.448  -7.673  15.792  0.00  0.00    +0.000 C 
ATOM     24  H   UNL     1     -11.125  -8.396  16.257  0.00  0.00    +0.000 HD
ATOM     25  H   UNL     1     -10.905  -7.335  14.856  0.00  0.00    +0.000 HD
ATOM     26  H   UNL     1     -10.371  -6.802  16.451  0.00  0.00    +0.000 HD
ENDBRANCH  20  23
ENDBRANCH   1  20
BRANCH   5  27
ATOM     27  O   UNL     1      -8.800 -13.386  14.562  0.00  0.00    +0.000 OA
ATOM     28  H   UNL     1      -9.291 -12.622  14.179  0.00  0.00    +0.000 HD
ENDBRANCH   5  27
BRANCH   6  29
ATOM     29  O   UNL     1      -8.702 -15.601  16.070  0.00  0.00    +0.000 OA
ATOM     30  H   UNL     1      -8.682 -16.246  16.807  0.00  0.00    +0.000 HD
ENDBRANCH   6  29
BRANCH  12  31
ATOM     31  O   UNL     1      -8.803  -8.931  21.967  0.00  0.00    +0.000 OA
ATOM     32  H   UNL     1      -9.343  -8.151  22.181  0.00  0.00    +0.000 HD
ENDBRANCH  12  31
BRANCH  13  33
ATOM     33  O   UNL     1      -8.890  -6.738  20.368  0.00  0.00    +0.000 OA
ATOM     34  H   UNL     1      -9.678  -6.741  20.949  0.00  0.00    +0.000 HD
ENDBRANCH  13  33
TORSDOF 6
ENDMDL
MODEL 4
REMARK VINA RESULT:    -7.695      2.395      6.184
REMARK INTER + INTRA:          -9.374
REMARK INTER:                  -9.284
REMARK INTRA:                  -0.090
REMARK UNBOUND:                -0.105
REMARK  Name = 
REMARK  6 active torsions:
REMARK  status: ('A' for Active; 'I' for Inactive)
REMARK    1  A    between atoms: C_1  and  C_2
REMARK    2  A    between atoms: C_2  and  N_3
REMARK    3  A    between atoms: C_7  and  O_8
REMARK    4  A    between atoms: C_9  and  O_10
REMARK    5  A    between atoms: C_16  and  O_17
REMARK    6  A    between atoms: C_18  and  O_19
REMARK                            x       y       z     vdW  Elec       q    Type
REMARK                         _______ _______ _______ _____ _____    ______ ____
ROOT
ATOM      1  N   UNL     1     -10.046  -6.644  17.017  0.00  0.00    +0.000 N 
ATOM      2  C   UNL     1     -10.079  -8.016  16.762  0.00  0.00    +0.000 A 
ATOM      3  O   UNL     1     -10.668  -8.514  15.797  0.00  0.00    +0.000 OA
ATOM      4  C   UNL     1      -9.387  -8.936  17.694  0.00  0.00    +0.000 A 
ATOM      5  C   UNL     1      -9.396 -10.321  17.442  0.00  0.00    +0.000 A 
ATOM      6  C   UNL     1      -8.769 -11.196  18.320  0.00  0.00    +0.000 A 
ATOM      7  C   UNL     1      -8.131 -10.719  19.449  0.00  0.00    +0.000 A 
ATOM      8  C   UNL     1      -8.117  -9.344  19.700  0.00  0.00    +0.000 A 
ATOM      9  C   UNL     1      -8.739  -8.416  18.833  0.00  0.00    +0.000 A 
ATOM     10  C   UNL     1      -8.737  -6.954  19.077  0.00  0.00    +0.000 A 
ATOM     11  C   UNL     1      -8.116  -6.372  20.211  0.00  0.00    +0.000 A 
ATOM     12  C   UNL     1      -8.138  -4.995  20.418  0.00  0.00    +0.000 A 
ATOM     13  C   UNL     1      -8.770  -4.170  19.509  0.00  0.00    +0.000 A 
ATOM     14  C   UNL     1      -9.385  -4.703  18.390  0.00  0.00    +0.000 A 
ATOM     15  C   UNL     1      -9.387  -6.092  18.161  0.00  0.00    +0.000 A 
ATOM     16  H   UNL     1      -7.649 -11.411  20.133  0.00  0.00    +0.000 HD
ATOM     17  H   UNL     1      -7.604  -9.026  20.602  0.00  0.00    +0.000 HD
ATOM     18  H   UNL     1      -7.614  -6.987  20.948  0.00  0.00    +0.000 HD
ATOM     19  H   UNL     1      -9.859  -3.994  17.723  0.00  0.00    +0.000 HD
ENDROOT
BRANCH   1  20
ATOM     20  C   UNL     1     -10.839  -5.781  16.135  0.00  0.00    +0.000 C 
ATOM     21  H   UNL     1     -11.711  -6.315  15.749  0.00  0.00    +0.000 HD
ATOM     22  H   UNL     1     -11.257  -4.952  16.717  0.00  0.00    +0.000 HD
BRANCH  20  23
ATOM     23  C   UNL     1      -9.988  -5.204  15.011  0.00  0.00    +0.000 C 
ATOM     24  H   UNL     1      -9.157  -4.622  15.421  0.00  0.00    +0.000 HD
ATOM     25  H   UNL     1     -10.571  -4.547  14.356  0.00  0.00    +0.000 HD
ATOM     26  H   UNL     1      -9.573  -6.003  14.388  0.00  0.00    +0.000 HD
ENDBRANCH  20  23
ENDBRANCH   1  20
BRANCH   5  27
ATOM     27  O   UNL     1     -10.004 -10.901  16.354  0.00  0.00    +0.000 OA
ATOM     28  H   UNL     1      -9.292 -11.198  15.742  0.00  0.00    +0.000 HD
ENDBRANCH   5  27
BRANCH   6  29
ATOM     29  O   UNL     1      -8.777 -12.539  18.087  0.00  0.00    +0.000 OA
ATOM     30  H   UNL     1      -9.712 -12.806  18.204  0.00  0.00    +0.000 HD
ENDBRANCH   6  29
BRANCH  12  31
ATOM     31  O   UNL     1      -7.552  -4.409  21.505  0.00  0.00    +0.000 OA
ATOM     32  H   UNL     1      -6.593  -4.562  21.463  0.00  0.00    +0.000 HD
ENDBRANCH  12  31
BRANCH  13  33
ATOM     33  O   UNL     1      -8.807  -2.819  19.696  0.00  0.00    +0.000 OA
ATOM     34  H   UNL     1      -8.281  -2.448  18.958  0.00  0.00    +0.000 HD
ENDBRANCH  13  33
TORSDOF 6
ENDMDL
MODEL 5
REMARK VINA RESULT:    -7.646      1.575      3.847
REMARK INTER + INTRA:          -9.315
REMARK INTER:                  -9.233
REMARK INTRA:                  -0.082
REMARK UNBOUND:                -0.105
REMARK  Name = 
REMARK  6 active torsions:
REMARK  status: ('A' for Active; 'I' for Inactive)
REMARK    1  A    between atoms: C_1  and  C_2
REMARK    2  A    between atoms: C_2  and  N_3
REMARK    3  A    between atoms: C_7  and  O_8
REMARK    4  A    between atoms: C_9  and  O_10
REMARK    5  A    between atoms: C_16  and  O_17
REMARK    6  A    between atoms: C_18  and  O_19
REMARK                            x       y       z     vdW  Elec       q    Type
REMARK                         _______ _______ _______ _____ _____    ______ ____
ROOT
ATOM      1  N   UNL     1      -8.922  -9.537  18.887  0.00  0.00    +0.000 N 
ATOM      2  C   UNL     1      -9.021  -8.223  18.430  0.00  0.00    +0.000 A 
ATOM      3  O   UNL     1      -9.149  -7.251  19.181  0.00  0.00    +0.000 OA
ATOM      4  C   UNL     1      -8.985  -7.964  16.972  0.00  0.00    +0.000 A 
ATOM      5  C   UNL     1      -9.067  -6.642  16.496  0.00  0.00    +0.000 A 
ATOM      6  C   UNL     1      -9.056  -6.388  15.130  0.00  0.00    +0.000 A 
ATOM      7  C   UNL     1      -8.966  -7.428  14.224  0.00  0.00    +0.000 A 
ATOM      8  C   UNL     1      -8.880  -8.742  14.694  0.00  0.00    +0.000 A 
ATOM      9  C   UNL     1      -8.885  -9.047  16.075  0.00  0.00    +0.000 A 
ATOM     10  C   UNL     1      -8.795 -10.431  16.598  0.00  0.00    +0.000 A 
ATOM     11  C   UNL     1      -8.707 -11.563  15.747  0.00  0.00    +0.000 A 
ATOM     12  C   UNL     1      -8.632 -12.851  16.267  0.00  0.00    +0.000 A 
ATOM     13  C   UNL     1      -8.640 -13.047  17.634  0.00  0.00    +0.000 A 
ATOM     14  C   UNL     1      -8.723 -11.966  18.495  0.00  0.00    +0.000 A 
ATOM     15  C   UNL     1      -8.810 -10.652  17.996  0.00  0.00    +0.000 A 
ATOM     16  H   UNL     1      -8.964  -7.220  13.158  0.00  0.00    +0.000 HD
ATOM     17  H   UNL     1      -8.814  -9.518  13.939  0.00  0.00    +0.000 HD
ATOM     18  H   UNL     1      -8.702 -11.450  14.669  0.00  0.00    +0.000 HD
ATOM     19  H   UNL     1      -8.723 -12.197  19.552  0.00  0.00    +0.000 HD
ENDROOT
BRANCH   1  20
ATOM     20  C   UNL     1      -9.077  -9.759  20.328  0.00  0.00    +0.000 C 
ATOM     21  H   UNL     1      -9.715  -8.991  20.773  0.00  0.00    +0.000 HD
ATOM     22  H   UNL     1      -9.617 -10.698  20.497  0.00  0.00    +0.000 HD
BRANCH  20  23
ATOM     23  C   UNL     1      -7.726  -9.844  21.026  0.00  0.00    +0.000 C 
ATOM     24  H   UNL     1      -7.342 -10.868  20.992  0.00  0.00    +0.000 HD
ATOM     25  H   UNL     1      -7.791  -9.541  22.077  0.00  0.00    +0.000 HD
ATOM     26  H   UNL     1      -6.996  -9.187  20.541  0.00  0.00    +0.000 HD
ENDBRANCH  20  23
ENDBRANCH   1  20
BRANCH   5  27
ATOM     27  O   UNL     1      -9.165  -5.537  17.307  0.00  0.00    +0.000 OA
ATOM     28  H   UNL     1      -8.287  -5.089  17.303  0.00  0.00    +0.000 HD
ENDBRANCH   5  27
BRANCH   6  29
ATOM     29  O   UNL     1      -9.140  -5.112  14.659  0.00  0.00    +0.000 OA
ATOM     30  H   UNL     1      -9.464  -5.207  13.740  0.00  0.00    +0.000 HD
ENDBRANCH   6  29
BRANCH  12  31
ATOM     31  O   UNL     1      -8.552 -13.959  15.470  0.00  0.00    +0.000 OA
ATOM     32  H   UNL     1      -7.627 -14.081  15.197  0.00  0.00    +0.000 HD
ENDBRANCH  12  31
BRANCH  13  33
ATOM     33  O   UNL     1      -8.572 -14.302  18.164  0.00  0.00    +0.000 OA
ATOM     34  H   UNL     1      -7.810 -14.724  17.717  0.00  0.00    +0.000 HD
ENDBRANCH  13  33
TORSDOF 6
ENDMDL
MODEL 6
REMARK VINA RESULT:    -7.381      3.322      7.090
REMARK INTER + INTRA:          -8.997
REMARK INTER:                  -8.884
REMARK INTRA:                  -0.113
REMARK UNBOUND:                -0.105
REMARK  Name = 
REMARK  6 active torsions:
REMARK  status: ('A' for Active; 'I' for Inactive)
REMARK    1  A    between atoms: C_1  and  C_2
REMARK    2  A    between atoms: C_2  and  N_3
REMARK    3  A    between atoms: C_7  and  O_8
REMARK    4  A    between atoms: C_9  and  O_10
REMARK    5  A    between atoms: C_16  and  O_17
REMARK    6  A    between atoms: C_18  and  O_19
REMARK                            x       y       z     vdW  Elec       q    Type
REMARK                         _______ _______ _______ _____ _____    ______ ____
ROOT
ATOM      1  N   UNL     1     -10.509  -4.587  17.701  0.00  0.00    +0.000 N 
ATOM      2  C   UNL     1     -10.837  -5.785  17.066  0.00  0.00    +0.000 A 
ATOM      3  O   UNL     1     -11.690  -5.871  16.176  0.00  0.00    +0.000 OA
ATOM      4  C   UNL     1     -10.145  -7.029  17.477  0.00  0.00    +0.000 A 
ATOM      5  C   UNL     1     -10.453  -8.243  16.834  0.00  0.00    +0.000 A 
ATOM      6  C   UNL     1      -9.827  -9.420  17.226  0.00  0.00    +0.000 A 
ATOM      7  C   UNL     1      -8.898  -9.413  18.249  0.00  0.00    +0.000 A 
ATOM      8  C   UNL     1      -8.587  -8.208  18.887  0.00  0.00    +0.000 A 
ATOM      9  C   UNL     1      -9.197  -6.986  18.519  0.00  0.00    +0.000 A 
ATOM     10  C   UNL     1      -8.885  -5.696  19.180  0.00  0.00    +0.000 A 
ATOM     11  C   UNL     1      -7.952  -5.590  20.242  0.00  0.00    +0.000 A 
ATOM     12  C   UNL     1      -7.685  -4.366  20.848  0.00  0.00    +0.000 A 
ATOM     13  C   UNL     1      -8.331  -3.225  20.416  0.00  0.00    +0.000 A 
ATOM     14  C   UNL     1      -9.246  -3.290  19.379  0.00  0.00    +0.000 A 
ATOM     15  C   UNL     1      -9.543  -4.517  18.755  0.00  0.00    +0.000 A 
ATOM     16  H   UNL     1      -8.418 -10.339  18.552  0.00  0.00    +0.000 HD
ATOM     17  H   UNL     1      -7.853  -8.262  19.684  0.00  0.00    +0.000 HD
ATOM     18  H   UNL     1      -7.428  -6.464  20.612  0.00  0.00    +0.000 HD
ATOM     19  H   UNL     1      -9.711  -2.355  19.095  0.00  0.00    +0.000 HD
ENDROOT
BRANCH   1  20
ATOM     20  C   UNL     1     -11.297  -3.403  17.344  0.00  0.00    +0.000 C 
ATOM     21  H   UNL     1     -12.344  -3.668  17.181  0.00  0.00    +0.000 HD
ATOM     22  H   UNL     1     -11.317  -2.709  18.193  0.00  0.00    +0.000 HD
BRANCH  20  23
ATOM     23  C   UNL     1     -10.703  -2.681  16.142  0.00  0.00    +0.000 C 
ATOM     24  H   UNL     1     -11.475  -2.104  15.623  0.00  0.00    +0.000 HD
ATOM     25  H   UNL     1     -10.263  -3.380  15.424  0.00  0.00    +0.000 HD
ATOM     26  H   UNL     1      -9.912  -1.991  16.455  0.00  0.00    +0.000 HD
ENDBRANCH  20  23
ENDBRANCH   1  20
BRANCH   5  27
ATOM     27  O   UNL     1     -11.363  -8.363  15.812  0.00  0.00    +0.000 OA
ATOM     28  H   UNL     1     -11.777  -7.478  15.681  0.00  0.00    +0.000 HD
ENDBRANCH   5  27
BRANCH   6  29
ATOM     29  O   UNL     1     -10.121 -10.601  16.613  0.00  0.00    +0.000 OA
ATOM     30  H   UNL     1     -11.083 -10.555  16.433  0.00  0.00    +0.000 HD
ENDBRANCH   6  29
BRANCH  12  31
ATOM     31  O   UNL     1      -6.795  -4.238  21.878  0.00  0.00    +0.000 OA
ATOM     32  H   UNL     1      -6.683  -3.293  22.079  0.00  0.00    +0.000 HD
ENDBRANCH  12  31
BRANCH  13  33
ATOM     33  O   UNL     1      -8.087  -2.017  20.999  0.00  0.00    +0.000 OA
ATOM     34  H   UNL     1      -8.032  -1.383  20.255  0.00  0.00    +0.000 HD
ENDBRANCH  13  33
TORSDOF 6
ENDMDL
MODEL 7
REMARK VINA RESULT:    -7.097      3.981      5.920
REMARK INTER + INTRA:          -8.654
REMARK INTER:                  -8.542
REMARK INTRA:                  -0.112
REMARK UNBOUND:                -0.105
REMARK  Name = 
REMARK  6 active torsions:
REMARK  status: ('A' for Active; 'I' for Inactive)
REMARK    1  A    between atoms: C_1  and  C_2
REMARK    2  A    between atoms: C_2  and  N_3
REMARK    3  A    between atoms: C_7  and  O_8
REMARK    4  A    between atoms: C_9  and  O_10
REMARK    5  A    between atoms: C_16  and  O_17
REMARK    6  A    between atoms: C_18  and  O_19
REMARK                            x       y       z     vdW  Elec       q    Type
REMARK                         _______ _______ _______ _____ _____    ______ ____
ROOT
ATOM      1  N   UNL     1     -10.639  -4.283  18.409  0.00  0.00    +0.000 N 
ATOM      2  C   UNL     1      -9.846  -3.491  19.239  0.00  0.00    +0.000 A 
ATOM      3  O   UNL     1     -10.164  -2.352  19.597  0.00  0.00    +0.000 OA
ATOM      4  C   UNL     1      -8.548  -4.022  19.715  0.00  0.00    +0.000 A 
ATOM      5  C   UNL     1      -7.744  -3.242  20.567  0.00  0.00    +0.000 A 
ATOM      6  C   UNL     1      -6.514  -3.720  21.001  0.00  0.00    +0.000 A 
ATOM      7  C   UNL     1      -6.066  -4.966  20.603  0.00  0.00    +0.000 A 
ATOM      8  C   UNL     1      -6.864  -5.745  19.760  0.00  0.00    +0.000 A 
ATOM      9  C   UNL     1      -8.124  -5.300  19.295  0.00  0.00    +0.000 A 
ATOM     10  C   UNL     1      -8.988  -6.107  18.401  0.00  0.00    +0.000 A 
ATOM     11  C   UNL     1      -8.610  -7.392  17.934  0.00  0.00    +0.000 A 
ATOM     12  C   UNL     1      -9.440  -8.123  17.089  0.00  0.00    +0.000 A 
ATOM     13  C   UNL     1     -10.655  -7.603  16.692  0.00  0.00    +0.000 A 
ATOM     14  C   UNL     1     -11.057  -6.353  17.131  0.00  0.00    +0.000 A 
ATOM     15  C   UNL     1     -10.234  -5.587  17.978  0.00  0.00    +0.000 A 
ATOM     16  H   UNL     1      -5.101  -5.329  20.943  0.00  0.00    +0.000 HD
ATOM     17  H   UNL     1      -6.462  -6.712  19.477  0.00  0.00    +0.000 HD
ATOM     18  H   UNL     1      -7.662  -7.832  18.220  0.00  0.00    +0.000 HD
ATOM     19  H   UNL     1     -12.022  -6.012  16.778  0.00  0.00    +0.000 HD
ENDROOT
BRANCH   1  20
ATOM     20  C   UNL     1     -11.860  -3.676  17.870  0.00  0.00    +0.000 C 
ATOM     21  H   UNL     1     -12.637  -4.429  17.721  0.00  0.00    +0.000 HD
ATOM     22  H   UNL     1     -12.282  -2.986  18.611  0.00  0.00    +0.000 HD
BRANCH  20  23
ATOM     23  C   UNL     1     -11.577  -2.898  16.591  0.00  0.00    +0.000 C 
ATOM     24  H   UNL     1     -11.544  -3.575  15.731  0.00  0.00    +0.000 HD
ATOM     25  H   UNL     1     -10.620  -2.368  16.640  0.00  0.00    +0.000 HD
ATOM     26  H   UNL     1     -12.356  -2.150  16.410  0.00  0.00    +0.000 HD
ENDBRANCH  20  23
ENDBRANCH   1  20
BRANCH   5  27
ATOM     27  O   UNL     1      -8.090  -1.990  21.017  0.00  0.00    +0.000 OA
ATOM     28  H   UNL     1      -9.014  -2.044  21.355  0.00  0.00    +0.000 HD
ENDBRANCH   5  27
BRANCH   6  29
ATOM     29  O   UNL     1      -5.727  -2.970  21.822  0.00  0.00    +0.000 OA
ATOM     30  H   UNL     1      -5.502  -3.568  22.565  0.00  0.00    +0.000 HD
ENDBRANCH   6  29
BRANCH  12  31
ATOM     31  O   UNL     1      -9.098  -9.361  16.620  0.00  0.00    +0.000 OA
ATOM     32  H   UNL     1      -8.133  -9.464  16.685  0.00  0.00    +0.000 HD
ENDBRANCH  12  31
BRANCH  13  33
ATOM     33  O   UNL     1     -11.480  -8.302  15.861  0.00  0.00    +0.000 OA
ATOM     34  H   UNL     1     -12.156  -8.698  16.449  0.00  0.00    +0.000 HD
ENDBRANCH  13  33
TORSDOF 6
ENDMDL
MODEL 8
REMARK VINA RESULT:    -6.940      2.619      3.943
REMARK INTER + INTRA:          -8.465
REMARK INTER:                  -8.440
REMARK INTRA:                  -0.025
REMARK UNBOUND:                -0.105
REMARK  Name = 
REMARK  6 active torsions:
REMARK  status: ('A' for Active; 'I' for Inactive)
REMARK    1  A    between atoms: C_1  and  C_2
REMARK    2  A    between atoms: C_2  and  N_3
REMARK    3  A    between atoms: C_7  and  O_8
REMARK    4  A    between atoms: C_9  and  O_10
REMARK    5  A    between atoms: C_16  and  O_17
REMARK    6  A    between atoms: C_18  and  O_19
REMARK                            x       y       z     vdW  Elec       q    Type
REMARK                         _______ _______ _______ _____ _____    ______ ____
ROOT
ATOM      1  N   UNL     1      -9.155  -8.147  15.942  0.00  0.00    +0.000 N 
ATOM      2  C   UNL     1      -9.441  -6.833  15.570  0.00  0.00    +0.000 A 
ATOM      3  O   UNL     1      -9.451  -6.446  14.397  0.00  0.00    +0.000 OA
ATOM      4  C   UNL     1      -9.739  -5.837  16.625  0.00  0.00    +0.000 A 
ATOM      5  C   UNL     1     -10.047  -4.511  16.265  0.00  0.00    +0.000 A 
ATOM      6  C   UNL     1     -10.306  -3.562  17.246  0.00  0.00    +0.000 A 
ATOM      7  C   UNL     1     -10.265  -3.907  18.584  0.00  0.00    +0.000 A 
ATOM      8  C   UNL     1      -9.963  -5.224  18.944  0.00  0.00    +0.000 A 
ATOM      9  C   UNL     1      -9.695  -6.224  17.980  0.00  0.00    +0.000 A 
ATOM     10  C   UNL     1      -9.374  -7.626  18.337  0.00  0.00    +0.000 A 
ATOM     11  C   UNL     1      -9.300  -8.073  19.681  0.00  0.00    +0.000 A 
ATOM     12  C   UNL     1      -8.988  -9.394  19.985  0.00  0.00    +0.000 A 
ATOM     13  C   UNL     1      -8.745 -10.298  18.970  0.00  0.00    +0.000 A 
ATOM     14  C   UNL     1      -8.810  -9.898  17.647  0.00  0.00    +0.000 A 
ATOM     15  C   UNL     1      -9.114  -8.566  17.310  0.00  0.00    +0.000 A 
ATOM     16  H   UNL     1     -10.464  -3.158  19.344  0.00  0.00    +0.000 HD
ATOM     17  H   UNL     1      -9.942  -5.438  20.008  0.00  0.00    +0.000 HD
ATOM     18  H   UNL     1      -9.480  -7.391  20.504  0.00  0.00    +0.000 HD
ATOM     19  H   UNL     1      -8.608 -10.663  16.907  0.00  0.00    +0.000 HD
ENDROOT
BRANCH   1  20
ATOM     20  C   UNL     1      -8.754  -9.072  14.877  0.00  0.00    +0.000 C 
ATOM     21  H   UNL     1      -8.358  -8.526  14.017  0.00  0.00    +0.000 HD
ATOM     22  H   UNL     1      -7.915  -9.687  15.224  0.00  0.00    +0.000 HD
BRANCH  20  23
ATOM     23  C   UNL     1      -9.900  -9.994  14.480  0.00  0.00    +0.000 C 
ATOM     24  H   UNL     1     -10.021 -10.793  15.219  0.00  0.00    +0.000 HD
ATOM     25  H   UNL     1      -9.729 -10.459  13.504  0.00  0.00    +0.000 HD
ATOM     26  H   UNL     1     -10.842  -9.439  14.418  0.00  0.00    +0.000 HD
ENDBRANCH  20  23
ENDBRANCH   1  20
BRANCH   5  27
ATOM     27  O   UNL     1     -10.109  -4.061  14.969  0.00  0.00    +0.000 OA
ATOM     28  H   UNL     1     -10.281  -4.842  14.393  0.00  0.00    +0.000 HD
ENDBRANCH   5  27
BRANCH   6  29
ATOM     29  O   UNL     1     -10.601  -2.275  16.909  0.00  0.00    +0.000 OA
ATOM     30  H   UNL     1     -11.573  -2.208  17.007  0.00  0.00    +0.000 HD
ENDBRANCH   6  29
BRANCH  12  31
ATOM     31  O   UNL     1      -8.905  -9.849  21.271  0.00  0.00    +0.000 OA
ATOM     32  H   UNL     1      -8.430  -9.190  21.806  0.00  0.00    +0.000 HD
ENDBRANCH  12  31
BRANCH  13  33
ATOM     33  O   UNL     1      -8.433 -11.597  19.247  0.00  0.00    +0.000 OA
ATOM     34  H   UNL     1      -8.626 -12.085  18.421  0.00  0.00    +0.000 HD
ENDBRANCH  13  33
TORSDOF 6
ENDMDL
MODEL 9
REMARK VINA RESULT:    -6.810      3.888      6.182
REMARK INTER + INTRA:          -8.308
REMARK INTER:                  -8.243
REMARK INTRA:                  -0.065
REMARK UNBOUND:                -0.105
REMARK  Name = 
REMARK  6 active torsions:
REMARK  status: ('A' for Active; 'I' for Inactive)
REMARK    1  A    between atoms: C_1  and  C_2
REMARK    2  A    between atoms: C_2  and  N_3
REMARK    3  A    between atoms: C_7  and  O_8
REMARK    4  A    between atoms: C_9  and  O_10
REMARK    5  A    between atoms: C_16  and  O_17
REMARK    6  A    between atoms: C_18  and  O_19
REMARK                            x       y       z     vdW  Elec       q    Type
REMARK                         _______ _______ _______ _____ _____    ______ ____
ROOT
ATOM      1  N   UNL     1      -8.364  -5.652  19.098  0.00  0.00    +0.000 N 
ATOM      2  C   UNL     1      -8.667  -4.313  19.348  0.00  0.00    +0.000 A 
ATOM      3  O   UNL     1      -8.034  -3.611  20.142  0.00  0.00    +0.000 OA
ATOM      4  C   UNL     1      -9.811  -3.691  18.642  0.00  0.00    +0.000 A 
ATOM      5  C   UNL     1     -10.119  -2.337  18.870  0.00  0.00    +0.000 A 
ATOM      6  C   UNL     1     -11.204  -1.749  18.230  0.00  0.00    +0.000 A 
ATOM      7  C   UNL     1     -11.991  -2.484  17.365  0.00  0.00    +0.000 A 
ATOM      8  C   UNL     1     -11.685  -3.829  17.133  0.00  0.00    +0.000 A 
ATOM      9  C   UNL     1     -10.590  -4.469  17.760  0.00  0.00    +0.000 A 
ATOM     10  C   UNL     1     -10.245  -5.892  17.530  0.00  0.00    +0.000 A 
ATOM     11  C   UNL     1     -10.998  -6.728  16.667  0.00  0.00    +0.000 A 
ATOM     12  C   UNL     1     -10.654  -8.064  16.477  0.00  0.00    +0.000 A 
ATOM     13  C   UNL     1      -9.563  -8.596  17.133  0.00  0.00    +0.000 A 
ATOM     14  C   UNL     1      -8.804  -7.809  17.982  0.00  0.00    +0.000 A 
ATOM     15  C   UNL     1      -9.134  -6.458  18.200  0.00  0.00    +0.000 A 
ATOM     16  H   UNL     1     -12.839  -2.017  16.874  0.00  0.00    +0.000 HD
ATOM     17  H   UNL     1     -12.338  -4.358  16.447  0.00  0.00    +0.000 HD
ATOM     18  H   UNL     1     -11.864  -6.347  16.138  0.00  0.00    +0.000 HD
ATOM     19  H   UNL     1      -7.964  -8.296  18.460  0.00  0.00    +0.000 HD
ENDROOT
BRANCH   1  20
ATOM     20  C   UNL     1      -7.298  -6.258  19.902  0.00  0.00    +0.000 C 
ATOM     21  H   UNL     1      -7.407  -5.992  20.956  0.00  0.00    +0.000 HD
ATOM     22  H   UNL     1      -7.401  -7.350  19.881  0.00  0.00    +0.000 HD
BRANCH  20  23
ATOM     23  C   UNL     1      -5.921  -5.891  19.366  0.00  0.00    +0.000 C 
ATOM     24  H   UNL     1      -5.458  -5.125  19.996  0.00  0.00    +0.000 HD
ATOM     25  H   UNL     1      -5.971  -5.504  18.344  0.00  0.00    +0.000 HD
ATOM     26  H   UNL     1      -5.263  -6.767  19.352  0.00  0.00    +0.000 HD
ENDBRANCH  20  23
ENDBRANCH   1  20
BRANCH   5  27
ATOM     27  O   UNL     1      -9.408  -1.518  19.713  0.00  0.00    +0.000 OA
ATOM     28  H   UNL     1      -8.452  -1.639  19.505  0.00  0.00    +0.000 HD
ENDBRANCH   5  27
BRANCH   6  29
ATOM     29  O   UNL     1     -11.513  -0.440  18.448  0.00  0.00    +0.000 OA
ATOM     30  H   UNL     1     -11.505  -0.031  17.559  0.00  0.00    +0.000 HD
ENDBRANCH   6  29
BRANCH  12  31
ATOM     31  O   UNL     1     -11.366  -8.893  15.656  0.00  0.00    +0.000 OA
ATOM     32  H   UNL     1     -10.771  -9.584  15.318  0.00  0.00    +0.000 HD
ENDBRANCH  12  31
BRANCH  13  33
ATOM     33  O   UNL     1      -9.212  -9.904  16.965  0.00  0.00    +0.000 OA
ATOM     34  H   UNL     1      -8.592  -9.904  16.207  0.00  0.00    +0.000 HD
ENDBRANCH  13  33
TORSDOF 6
ENDMDL
