REMARK  Name = 
REMARK  4 active torsions:
REMARK  status: ('A' for Active; 'I' for Inactive)
REMARK    1  A    between atoms: C_5  and  O_6
REMARK    2  A    between atoms: C_7  and  O_8
REMARK    3  A    between atoms: C_15  and  O_16
REMARK    4  A    between atoms: C_17  and  O_18
REMARK                            x       y       z     vdW  Elec       q    Type
REMARK                         _______ _______ _______ _____ _____    ______ ____
ROOT
ATOM      1  O   UNL     1      -3.732  -0.711   0.005  0.00  0.00    +0.000 OA
ATOM      2  C   UNL     1      -2.509  -0.669   0.003  0.00  0.00    +0.000 A 
ATOM      3  O   UNL     1      -1.737  -1.838   0.001  0.00  0.00    +0.000 OA
ATOM      4  C   UNL     1      -0.325  -1.828   0.000  0.00  0.00    +0.000 A 
ATOM      5  C   UNL     1       0.361  -3.037  -0.001  0.00  0.00    +0.000 A 
ATOM      6  C   UNL     1       1.753  -3.027  -0.001  0.00  0.00    +0.000 A 
ATOM      7  C   UNL     1       2.462  -1.830  -0.000  0.00  0.00    +0.000 A 
ATOM      8  C   UNL     1       1.760  -0.619   0.000  0.00  0.00    +0.000 A 
ATOM      9  C   UNL     1       2.497   0.671   0.001  0.00  0.00    +0.000 A 
ATOM     10  O   UNL     1       3.721   0.714   0.001  0.00  0.00    +0.000 OA
ATOM     11  O   UNL     1       1.728   1.836   0.001  0.00  0.00    +0.000 OA
ATOM     12  C   UNL     1       0.318   1.822   0.001  0.00  0.00    +0.000 A 
ATOM     13  C   UNL     1      -0.360   3.034  -0.001  0.00  0.00    +0.000 A 
ATOM     14  C   UNL     1      -1.751   3.033  -0.001  0.00  0.00    +0.000 A 
ATOM     15  C   UNL     1      -2.466   1.838   0.002  0.00  0.00    +0.000 A 
ATOM     16  C   UNL     1      -1.770   0.621   0.002  0.00  0.00    +0.000 A 
ATOM     17  C   UNL     1      -0.373   0.615   0.001  0.00  0.00    +0.000 A 
ATOM     18  C   UNL     1       0.362  -0.618   0.002  0.00  0.00    +0.000 A 
ATOM     19  H   UNL     1       3.551  -1.846  -0.000  0.00  0.00    +0.000 HD
ATOM     20  H   UNL     1      -3.554   1.861   0.003  0.00  0.00    +0.000 HD
ENDROOT
BRANCH   5  21
ATOM     21  O   UNL     1      -0.275  -4.246  -0.001  0.00  0.00    +0.000 OA
ATOM     22  H   UNL     1      -1.237  -4.073  -0.001  0.00  0.00    +0.000 HD
ENDBRANCH   5  21
BRANCH   6  23
ATOM     23  O   UNL     1       2.449  -4.201  -0.002  0.00  0.00    +0.000 OA
ATOM     24  H   UNL     1       1.773  -4.907  -0.001  0.00  0.00    +0.000 HD
ENDBRANCH   6  23
BRANCH  13  25
ATOM     25  O   UNL     1       0.294   4.233  -0.002  0.00  0.00    +0.000 OA
ATOM     26  H   UNL     1       1.252   4.041   0.002  0.00  0.00    +0.000 HD
ENDBRANCH  13  25
BRANCH  14  27
ATOM     27  O   UNL     1      -2.436   4.213  -0.004  0.00  0.00    +0.000 OA
ATOM     28  H   UNL     1      -1.754   4.914  -0.009  0.00  0.00    +0.000 HD
ENDBRANCH  14  27
TORSDOF 4
