REMARK  Name = 
REMARK  7 active torsions:
REMARK  status: ('A' for Active; 'I' for Inactive)
REMARK    1  A    between atoms: C_1  and  N_2
REMARK    2  A    between atoms: C_12  and  C_13
REMARK    3  A    between atoms: C_13  and  C_14
REMARK    4  A    between atoms: C_14  and  C_15
REMARK    5  A    between atoms: C_15  and  N_16
REMARK    6  A    between atoms: N_16  and  C_17
REMARK    7  A    between atoms: C_20  and  O_21
REMARK                            x       y       z     vdW  Elec       q    Type
REMARK                         _______ _______ _______ _____ _____    ______ ____
ROOT
ATOM      1  N   UNL     1       6.278   1.808   2.801  0.00  0.00    +0.000 N 
ATOM      2  C   UNL     1       7.315   0.880   2.621  0.00  0.00    +0.000 A 
ATOM      3  C   UNL     1       6.614  -0.307   2.604  0.00  0.00    +0.000 A 
ATOM      4  C   UNL     1       5.621   0.067   1.668  0.00  0.00    +0.000 A 
ATOM      5  C   UNL     1       4.967  -0.665   0.666  0.00  0.00    +0.000 A 
ATOM      6  C   UNL     1       3.812  -0.162   0.114  0.00  0.00    +0.000 A 
ATOM      7  C   UNL     1       3.231   0.932   0.740  0.00  0.00    +0.000 A 
ATOM      8  C   UNL     1       1.885   1.155   0.484  0.00  0.00    +0.000 A 
ATOM      9  N   UNL     1       1.081   0.789  -0.569  0.00  0.00    +0.000 N 
ATOM     10  C   UNL     1      -0.075   1.538  -0.572  0.00  0.00    +0.000 A 
ATOM     11  C   UNL     1      -1.009   1.679  -1.613  0.00  0.00    +0.000 A 
ATOM     12  C   UNL     1      -2.081   2.550  -1.366  0.00  0.00    +0.000 A 
ATOM     13  C   UNL     1      -2.235   3.205  -0.142  0.00  0.00    +0.000 A 
ATOM     14  C   UNL     1      -1.291   3.017   0.884  0.00  0.00    +0.000 A 
ATOM     15  C   UNL     1      -0.164   2.215   0.653  0.00  0.00    +0.000 A 
ATOM     16  C   UNL     1       1.063   1.904   1.265  0.00  0.00    +0.000 A 
ATOM     17  C   UNL     1       1.642   2.709   2.285  0.00  0.00    +0.000 A 
ATOM     18  C   UNL     1       3.059   2.851   2.124  0.00  0.00    +0.000 A 
ATOM     19  C   UNL     1       3.891   1.800   1.665  0.00  0.00    +0.000 A 
ATOM     20  C   UNL     1       5.193   1.375   2.045  0.00  0.00    +0.000 A 
ATOM     21  C   UNL     1       3.151   4.296   1.915  0.00  0.00    +0.000 C 
ATOM     22  O   UNL     1       3.778   4.965   1.099  0.00  0.00    +0.000 OA
ATOM     23  N   UNL     1       2.052   4.797   2.591  0.00  0.00    +0.000 N 
ATOM     24  C   UNL     1       1.099   3.868   2.901  0.00  0.00    +0.000 C 
ATOM     25  O   UNL     1       0.066   4.103   3.510  0.00  0.00    +0.000 OA
ATOM     26  H   UNL     1       8.101   1.191   1.938  0.00  0.00    +0.000 HD
ATOM     27  H   UNL     1       6.286  -0.751   3.548  0.00  0.00    +0.000 HD
ATOM     28  H   UNL     1       5.351  -1.632   0.360  0.00  0.00    +0.000 HD
ATOM     29  H   UNL     1       3.318  -0.730  -0.668  0.00  0.00    +0.000 HD
ATOM     30  H   UNL     1       1.402   0.253  -1.355  0.00  0.00    +0.000 HD
ATOM     31  H   UNL     1      -2.827   2.724  -2.139  0.00  0.00    +0.000 HD
ATOM     32  H   UNL     1      -3.070   3.863   0.022  0.00  0.00    +0.000 HD
ATOM     33  H   UNL     1      -1.436   3.560   1.809  0.00  0.00    +0.000 HD
ATOM     34  H   UNL     1       1.711   5.726   2.406  0.00  0.00    +0.000 HD
ENDROOT
BRANCH   1  35
ATOM     35  C   UNL     1       6.577   3.056   3.458  0.00  0.00    +0.000 C 
ATOM     36  H   UNL     1       5.943   3.144   4.344  0.00  0.00    +0.000 HD
ATOM     37  H   UNL     1       6.465   3.876   2.766  0.00  0.00    +0.000 HD
ATOM     38  H   UNL     1       7.628   3.014   3.794  0.00  0.00    +0.000 HD
ENDBRANCH   1  35
BRANCH  11  39
ATOM     39  C   UNL     1      -0.869   0.954  -2.929  0.00  0.00    +0.000 C 
ATOM     40  H   UNL     1       0.087   1.243  -3.387  0.00  0.00    +0.000 HD
ATOM     41  H   UNL     1      -1.652   1.282  -3.626  0.00  0.00    +0.000 HD
BRANCH  39  42
ATOM     42  C   UNL     1      -0.924  -0.572  -2.781  0.00  0.00    +0.000 C 
ATOM     43  H   UNL     1      -0.083  -0.944  -2.188  0.00  0.00    +0.000 HD
ATOM     44  H   UNL     1      -0.814  -1.024  -3.775  0.00  0.00    +0.000 HD
BRANCH  42  45
ATOM     45  C   UNL     1      -2.237  -1.023  -2.145  0.00  0.00    +0.000 C 
ATOM     46  H   UNL     1      -3.050  -0.680  -2.791  0.00  0.00    +0.000 HD
ATOM     47  H   UNL     1      -2.363  -0.565  -1.158  0.00  0.00    +0.000 HD
BRANCH  45  48
ATOM     48  N   UNL     1      -2.256  -2.479  -2.001  0.00  0.00    +0.000 NA
ATOM     49  H   UNL     1      -1.452  -2.767  -1.441  0.00  0.00    +0.000 HD
BRANCH  48  50
ATOM     50  C   UNL     1      -3.484  -2.950  -1.343  0.00  0.00    +0.000 C 
ATOM     51  C   UNL     1      -4.733  -2.650  -2.191  0.00  0.00    +0.000 C 
ATOM     52  C   UNL     1      -5.991  -3.285  -1.614  0.00  0.00    +0.000 C 
ATOM     53  C   UNL     1      -5.809  -4.784  -1.416  0.00  0.00    +0.000 C 
ATOM     54  C   UNL     1      -4.612  -5.072  -0.514  0.00  0.00    +0.000 C 
ATOM     55  C   UNL     1      -3.335  -4.459  -1.079  0.00  0.00    +0.000 C 
ATOM     56  H   UNL     1      -3.589  -2.452  -0.370  0.00  0.00    +0.000 HD
ATOM     57  H   UNL     1      -4.583  -3.010  -3.217  0.00  0.00    +0.000 HD
ATOM     58  H   UNL     1      -4.907  -1.569  -2.255  0.00  0.00    +0.000 HD
ATOM     59  H   UNL     1      -6.844  -3.093  -2.275  0.00  0.00    +0.000 HD
ATOM     60  H   UNL     1      -6.242  -2.807  -0.657  0.00  0.00    +0.000 HD
ATOM     61  H   UNL     1      -5.661  -5.268  -2.389  0.00  0.00    +0.000 HD
ATOM     62  H   UNL     1      -4.489  -6.154  -0.393  0.00  0.00    +0.000 HD
ATOM     63  H   UNL     1      -4.801  -4.678   0.493  0.00  0.00    +0.000 HD
ATOM     64  H   UNL     1      -3.071  -4.979  -2.010  0.00  0.00    +0.000 HD
ATOM     65  H   UNL     1      -2.512  -4.635  -0.375  0.00  0.00    +0.000 HD
BRANCH  53  66
ATOM     66  O   UNL     1      -6.987  -5.337  -0.843  0.00  0.00    +0.000 OA
ATOM     67  H   UNL     1      -7.137  -4.905   0.015  0.00  0.00    +0.000 HD
ENDBRANCH  53  66
ENDBRANCH  48  50
ENDBRANCH  45  48
ENDBRANCH  42  45
ENDBRANCH  39  42
ENDBRANCH  11  39
TORSDOF 7
