REMARK  Name = 
REMARK  8 active torsions:
REMARK  status: ('A' for Active; 'I' for Inactive)
REMARK    1  A    between atoms: C_1  and  O_2
REMARK    2  A    between atoms: O_2  and  C_3
REMARK    3  A    between atoms: N_17  and  C_18
REMARK    4  A    between atoms: N_21  and  C_22
REMARK    5  A    between atoms: C_22  and  C_23
REMARK    6  A    between atoms: C_23  and  N_24
REMARK    7  A    between atoms: N_24  and  C_25
REMARK    8  A    between atoms: C_28  and  O_29
REMARK                            x       y       z     vdW  Elec       q    Type
REMARK                         _______ _______ _______ _____ _____    ______ ____
ROOT
ATOM      1  C   UNL     1       2.988   2.170   3.051  0.00  0.00    +0.000 A 
ATOM      2  C   UNL     1       3.973   1.353   2.512  0.00  0.00    +0.000 A 
ATOM      3  C   UNL     1       3.831   0.821   1.227  0.00  0.00    +0.000 A 
ATOM      4  C   UNL     1       2.683   1.111   0.470  0.00  0.00    +0.000 A 
ATOM      5  C   UNL     1       2.210   0.879  -0.814  0.00  0.00    +0.000 A 
ATOM      6  C   UNL     1       2.905   0.094  -1.756  0.00  0.00    +0.000 A 
ATOM      7  C   UNL     1       2.417   0.137  -3.073  0.00  0.00    +0.000 A 
ATOM      8  C   UNL     1       1.114   0.508  -3.389  0.00  0.00    +0.000 A 
ATOM      9  C   UNL     1       0.336   1.134  -2.371  0.00  0.00    +0.000 A 
ATOM     10  C   UNL     1      -1.057   1.174  -2.508  0.00  0.00    +0.000 A 
ATOM     11  C   UNL     1      -1.683   0.152  -3.242  0.00  0.00    +0.000 A 
ATOM     12  C   UNL     1      -0.820  -0.714  -3.918  0.00  0.00    +0.000 A 
ATOM     13  C   UNL     1      -0.491  -2.119  -3.793  0.00  0.00    +0.000 A 
ATOM     14  C   UNL     1       0.614  -2.346  -4.600  0.00  0.00    +0.000 A 
ATOM     15  N   UNL     1       0.707  -1.172  -5.335  0.00  0.00    +0.000 N 
ATOM     16  C   UNL     1       0.396  -0.182  -4.393  0.00  0.00    +0.000 A 
ATOM     17  C   UNL     1       0.972   1.406  -1.110  0.00  0.00    +0.000 A 
ATOM     18  N   UNL     1       0.597   1.945   0.128  0.00  0.00    +0.000 N 
ATOM     19  C   UNL     1       1.664   1.877   1.051  0.00  0.00    +0.000 A 
ATOM     20  C   UNL     1       1.797   2.397   2.352  0.00  0.00    +0.000 A 
ATOM     21  C   UNL     1       3.312  -0.632  -3.885  0.00  0.00    +0.000 C 
ATOM     22  O   UNL     1       3.502  -0.698  -5.093  0.00  0.00    +0.000 OA
ATOM     23  N   UNL     1       4.009  -1.352  -2.963  0.00  0.00    +0.000 N 
ATOM     24  C   UNL     1       3.865  -0.961  -1.665  0.00  0.00    +0.000 C 
ATOM     25  O   UNL     1       4.365  -1.543  -0.732  0.00  0.00    +0.000 OA
ATOM     26  H   UNL     1       4.876   1.110   3.061  0.00  0.00    +0.000 HD
ATOM     27  H   UNL     1       4.633   0.210   0.828  0.00  0.00    +0.000 HD
ATOM     28  H   UNL     1      -1.705   1.762  -1.872  0.00  0.00    +0.000 HD
ATOM     29  H   UNL     1      -2.719  -0.109  -3.059  0.00  0.00    +0.000 HD
ATOM     30  H   UNL     1      -0.907  -2.822  -3.085  0.00  0.00    +0.000 HD
ATOM     31  H   UNL     1       1.244  -3.197  -4.819  0.00  0.00    +0.000 HD
ATOM     32  H   UNL     1       1.020   3.001   2.808  0.00  0.00    +0.000 HD
ATOM     33  H   UNL     1       4.274  -2.299  -3.184  0.00  0.00    +0.000 HD
ENDROOT
BRANCH  15  34
ATOM     34  C   UNL     1       0.119  -1.176  -6.680  0.00  0.00    +0.000 C 
ATOM     35  H   UNL     1       0.765  -1.757  -7.340  0.00  0.00    +0.000 HD
ATOM     36  H   UNL     1      -0.002  -0.150  -7.034  0.00  0.00    +0.000 HD
ATOM     37  H   UNL     1      -0.866  -1.658  -6.617  0.00  0.00    +0.000 HD
ENDBRANCH  15  34
BRANCH  18  38
ATOM     38  C   UNL     1      -0.686   2.551   0.467  0.00  0.00    +0.000 C 
ATOM     39  H   UNL     1      -0.982   3.157  -0.395  0.00  0.00    +0.000 HD
ATOM     40  H   UNL     1      -0.545   3.268   1.284  0.00  0.00    +0.000 HD
BRANCH  38  41
ATOM     41  C   UNL     1      -1.812   1.555   0.825  0.00  0.00    +0.000 C 
ATOM     42  H   UNL     1      -1.874   0.822   0.022  0.00  0.00    +0.000 HD
ATOM     43  H   UNL     1      -2.756   2.115   0.840  0.00  0.00    +0.000 HD
BRANCH  41  44
ATOM     44  N   UNL     1      -1.678   0.827   2.093  0.00  0.00    +0.000 NA
ATOM     45  H   UNL     1      -1.545   1.477   2.868  0.00  0.00    +0.000 HD
BRANCH  44  46
ATOM     46  C   UNL     1      -2.825  -0.062   2.370  0.00  0.00    +0.000 C 
ATOM     47  C   UNL     1      -3.011  -1.139   1.281  0.00  0.00    +0.000 C 
ATOM     48  C   UNL     1      -4.117  -2.130   1.622  0.00  0.00    +0.000 C 
ATOM     49  C   UNL     1      -3.882  -2.781   2.978  0.00  0.00    +0.000 C 
ATOM     50  C   UNL     1      -3.745  -1.724   4.070  0.00  0.00    +0.000 C 
ATOM     51  C   UNL     1      -2.632  -0.724   3.749  0.00  0.00    +0.000 C 
ATOM     52  H   UNL     1      -3.738   0.547   2.421  0.00  0.00    +0.000 HD
ATOM     53  H   UNL     1      -2.069  -1.683   1.133  0.00  0.00    +0.000 HD
ATOM     54  H   UNL     1      -3.273  -0.681   0.321  0.00  0.00    +0.000 HD
ATOM     55  H   UNL     1      -4.182  -2.901   0.844  0.00  0.00    +0.000 HD
ATOM     56  H   UNL     1      -5.089  -1.620   1.614  0.00  0.00    +0.000 HD
ATOM     57  H   UNL     1      -2.974  -3.393   2.940  0.00  0.00    +0.000 HD
ATOM     58  H   UNL     1      -3.551  -2.212   5.033  0.00  0.00    +0.000 HD
ATOM     59  H   UNL     1      -4.698  -1.193   4.195  0.00  0.00    +0.000 HD
ATOM     60  H   UNL     1      -1.667  -1.247   3.783  0.00  0.00    +0.000 HD
ATOM     61  H   UNL     1      -2.606   0.041   4.536  0.00  0.00    +0.000 HD
BRANCH  49  62
ATOM     62  O   UNL     1      -4.965  -3.653   3.280  0.00  0.00    +0.000 OA
ATOM     63  H   UNL     1      -5.781  -3.126   3.317  0.00  0.00    +0.000 HD
ENDBRANCH  49  62
ENDBRANCH  44  46
ENDBRANCH  41  44
ENDBRANCH  38  41
ENDBRANCH  18  38
BRANCH   1  64
ATOM     64  O   UNL     1       3.080   2.782   4.276  0.00  0.00    +0.000 OA
BRANCH  64  65
ATOM     65  C   UNL     1       4.409   3.115   4.673  0.00  0.00    +0.000 C 
ATOM     66  H   UNL     1       4.346   3.765   5.551  0.00  0.00    +0.000 HD
ATOM     67  H   UNL     1       4.935   3.668   3.886  0.00  0.00    +0.000 HD
ATOM     68  H   UNL     1       4.970   2.222   4.965  0.00  0.00    +0.000 HD
ENDBRANCH  64  65
ENDBRANCH   1  64
TORSDOF 8
