REMARK  Name = 
REMARK  7 active torsions:
REMARK  status: ('A' for Active; 'I' for Inactive)
REMARK    1  A    between atoms: C_1  and  O_2
REMARK    2  A    between atoms: O_2  and  C_3
REMARK    3  A    between atoms: N_5  and  C_6
REMARK    4  A    between atoms: N_5  and  C_7
REMARK    5  A    between atoms: C_11  and  C_12
REMARK    6  A    between atoms: C_13  and  O_14
REMARK    7  A    between atoms: O_14  and  C_15
REMARK                            x       y       z     vdW  Elec       q    Type
REMARK                         _______ _______ _______ _____ _____    ______ ____
ROOT
ATOM      1  C   UNL     1       2.256  -0.836   0.377  0.00  0.00    +0.000 C 
ATOM      2  C   UNL     1       1.287  -1.953  -0.038  0.00  0.00    +0.000 C 
ATOM      3  C   UNL     1       0.045  -1.294  -0.661  0.00  0.00    +0.000 C 
ATOM      4  O   UNL     1       0.567  -0.043  -1.289  0.00  0.00    +0.000 OA
ATOM      5  C   UNL     1       0.828   1.052  -0.335  0.00  0.00    +0.000 C 
ATOM      6  C   UNL     1       1.459   0.380   0.988  0.00  0.00    +0.000 C 
ATOM      7  N   UNL     1      -0.415   1.795  -0.482  0.00  0.00    +0.000 N 
ATOM      8  C   UNL     1      -0.783   2.786  -1.482  0.00  0.00    +0.000 A 
ATOM      9  C   UNL     1      -0.039   3.794  -2.138  0.00  0.00    +0.000 A 
ATOM     10  C   UNL     1      -0.682   4.730  -2.958  0.00  0.00    +0.000 A 
ATOM     11  C   UNL     1      -2.038   4.656  -3.211  0.00  0.00    +0.000 A 
ATOM     12  C   UNL     1      -2.768   3.561  -2.760  0.00  0.00    +0.000 A 
ATOM     13  C   UNL     1      -2.186   2.621  -1.891  0.00  0.00    +0.000 A 
ATOM     14  C   UNL     1      -2.707   1.531  -1.186  0.00  0.00    +0.000 A 
ATOM     15  C   UNL     1      -3.633   0.556  -1.630  0.00  0.00    +0.000 A 
ATOM     16  C   UNL     1      -4.128  -0.242  -0.510  0.00  0.00    +0.000 A 
ATOM     17  C   UNL     1      -3.255  -0.013   0.691  0.00  0.00    +0.000 A 
ATOM     18  C   UNL     1      -3.003  -1.147   1.524  0.00  0.00    +0.000 A 
ATOM     19  C   UNL     1      -2.539  -1.283   2.865  0.00  0.00    +0.000 A 
ATOM     20  C   UNL     1      -2.412  -2.573   3.352  0.00  0.00    +0.000 A 
ATOM     21  C   UNL     1      -2.610  -3.587   2.437  0.00  0.00    +0.000 A 
ATOM     22  C   UNL     1      -2.360  -3.348   1.048  0.00  0.00    +0.000 A 
ATOM     23  C   UNL     1      -2.144  -1.989   0.727  0.00  0.00    +0.000 A 
ATOM     24  N   UNL     1      -1.157  -1.092   0.197  0.00  0.00    +0.000 N 
ATOM     25  C   UNL     1      -1.865   0.082   0.347  0.00  0.00    +0.000 A 
ATOM     26  C   UNL     1      -1.613   1.189  -0.395  0.00  0.00    +0.000 A 
ATOM     27  C   UNL     1      -4.588  -1.507  -1.023  0.00  0.00    +0.000 C 
ATOM     28  O   UNL     1      -5.219  -2.435  -0.520  0.00  0.00    +0.000 OA
ATOM     29  N   UNL     1      -4.042  -1.602  -2.293  0.00  0.00    +0.000 N 
ATOM     30  C   UNL     1      -3.393  -0.384  -2.780  0.00  0.00    +0.000 C 
ATOM     31  H   UNL     1       2.642  -0.451  -0.574  0.00  0.00    +0.000 HD
ATOM     32  H   UNL     1       1.053  -2.660   0.761  0.00  0.00    +0.000 HD
ATOM     33  H   UNL     1       1.790  -2.526  -0.832  0.00  0.00    +0.000 HD
ATOM     34  H   UNL     1      -0.317  -1.911  -1.493  0.00  0.00    +0.000 HD
ATOM     35  H   UNL     1       2.178   1.034   1.496  0.00  0.00    +0.000 HD
ATOM     36  H   UNL     1       1.030   3.918  -2.016  0.00  0.00    +0.000 HD
ATOM     37  H   UNL     1      -0.096   5.552  -3.370  0.00  0.00    +0.000 HD
ATOM     38  H   UNL     1      -2.532   5.451  -3.762  0.00  0.00    +0.000 HD
ATOM     39  H   UNL     1      -3.831   3.498  -2.963  0.00  0.00    +0.000 HD
ATOM     40  H   UNL     1      -2.138  -0.451   3.430  0.00  0.00    +0.000 HD
ATOM     41  H   UNL     1      -2.207  -2.755   4.400  0.00  0.00    +0.000 HD
ATOM     42  H   UNL     1      -3.027  -4.529   2.789  0.00  0.00    +0.000 HD
ATOM     43  H   UNL     1      -3.093  -3.912   0.443  0.00  0.00    +0.000 HD
ATOM     44  H   UNL     1      -3.660  -2.514  -2.496  0.00  0.00    +0.000 HD
ATOM     45  H   UNL     1      -2.320  -0.607  -2.896  0.00  0.00    +0.000 HD
ATOM     46  H   UNL     1      -3.834  -0.095  -3.732  0.00  0.00    +0.000 HD
ENDROOT
BRANCH   5  47
ATOM     47  C   UNL     1       2.001   2.024  -0.694  0.00  0.00    +0.000 C 
ATOM     48  H   UNL     1       2.888   1.913  -0.062  0.00  0.00    +0.000 HD
ATOM     49  H   UNL     1       2.356   1.923  -1.721  0.00  0.00    +0.000 HD
ATOM     50  H   UNL     1       1.739   3.061  -0.432  0.00  0.00    +0.000 HD
ENDBRANCH   5  47
BRANCH   1  53
ATOM     51  C   UNL     1       4.685  -1.221   0.254  0.00  0.00    +0.000 C 
ATOM     52  O   UNL     1       4.699  -1.121  -0.962  0.00  0.00    +0.000 OA
ATOM     53  N   UNL     1       3.505  -1.256   1.029  0.00  0.00    +0.000 N 
BRANCH  53  54
ATOM     54  C   UNL     1       3.546  -1.343   2.473  0.00  0.00    +0.000 C 
ATOM     55  H   UNL     1       3.717  -0.336   2.868  0.00  0.00    +0.000 HD
ATOM     56  H   UNL     1       2.603  -1.746   2.848  0.00  0.00    +0.000 HD
ATOM     57  H   UNL     1       4.365  -1.994   2.793  0.00  0.00    +0.000 HD
ENDBRANCH  53  54
BRANCH  51  58
ATOM     58  O   UNL     1       5.815  -1.262   1.011  0.00  0.00    +0.000 OA
BRANCH  58  59
ATOM     59  C   UNL     1       6.999  -1.056   0.256  0.00  0.00    +0.000 C 
ATOM     60  H   UNL     1       7.854  -1.249   0.917  0.00  0.00    +0.000 HD
ATOM     61  H   UNL     1       7.035   0.001  -0.066  0.00  0.00    +0.000 HD
ATOM     62  H   UNL     1       7.065  -1.713  -0.616  0.00  0.00    +0.000 HD
ENDBRANCH  58  59
ENDBRANCH  51  58
ENDBRANCH   1  53
BRANCH   6  63
ATOM     63  O   UNL     1       0.567  -0.049   2.010  0.00  0.00    +0.000 OA
BRANCH  63  64
ATOM     64  C   UNL     1       0.114   1.035   2.817  0.00  0.00    +0.000 C 
ATOM     65  H   UNL     1       0.374   0.817   3.855  0.00  0.00    +0.000 HD
ATOM     66  H   UNL     1      -0.969   1.125   2.742  0.00  0.00    +0.000 HD
ATOM     67  H   UNL     1       0.541   1.997   2.523  0.00  0.00    +0.000 HD
ENDBRANCH  63  64
ENDBRANCH   6  63
TORSDOF 7
