REMARK  Name = 
REMARK  2 active torsions:
REMARK  status: ('A' for Active; 'I' for Inactive)
REMARK    1  A    between atoms: C_27  and  C_28
REMARK    2  A    between atoms: C_28  and  O_29
REMARK                            x       y       z     vdW  Elec       q    Type
REMARK                         _______ _______ _______ _____ _____    ______ ____
ROOT
ATOM      1  O   UNL     1      -1.958   0.874   4.699  0.00  0.00    +0.000 OA
ATOM      2  C   UNL     1      -1.296   0.179   3.937  0.00  0.00    +0.000 C 
ATOM      3  N   UNL     1      -0.490  -0.849   4.425  0.00  0.00    +0.000 N 
ATOM      4  C   UNL     1      -0.075  -1.735   3.489  0.00  0.00    +0.000 C 
ATOM      5  O   UNL     1       0.193  -2.910   3.705  0.00  0.00    +0.000 OA
ATOM      6  C   UNL     1      -0.199  -0.962   2.304  0.00  0.00    +0.000 A 
ATOM      7  C   UNL     1      -1.087   0.143   2.520  0.00  0.00    +0.000 A 
ATOM      8  C   UNL     1      -1.646   0.798   1.332  0.00  0.00    +0.000 A 
ATOM      9  C   UNL     1      -2.682   1.732   1.002  0.00  0.00    +0.000 A 
ATOM     10  C   UNL     1      -3.506   2.774   1.517  0.00  0.00    +0.000 A 
ATOM     11  C   UNL     1      -4.538   3.339   0.700  0.00  0.00    +0.000 A 
ATOM     12  C   UNL     1      -4.801   2.860  -0.576  0.00  0.00    +0.000 A 
ATOM     13  F   UNL     1      -5.831   3.326  -1.297  0.00  0.00    +0.000 F 
ATOM     14  C   UNL     1      -3.962   1.936  -1.148  0.00  0.00    +0.000 A 
ATOM     15  C   UNL     1      -2.900   1.466  -0.380  0.00  0.00    +0.000 A 
ATOM     16  N   UNL     1      -1.889   0.707  -0.852  0.00  0.00    +0.000 N 
ATOM     17  C   UNL     1      -1.062   0.406   0.162  0.00  0.00    +0.000 A 
ATOM     18  C   UNL     1       0.087  -0.312   0.060  0.00  0.00    +0.000 A 
ATOM     19  C   UNL     1       0.497  -1.068   1.094  0.00  0.00    +0.000 A 
ATOM     20  C   UNL     1       1.588  -1.862   0.810  0.00  0.00    +0.000 A 
ATOM     21  C   UNL     1       2.411  -2.821   1.424  0.00  0.00    +0.000 A 
ATOM     22  C   UNL     1       3.475  -3.364   0.690  0.00  0.00    +0.000 A 
ATOM     23  C   UNL     1       3.716  -2.980  -0.637  0.00  0.00    +0.000 A 
ATOM     24  C   UNL     1       2.918  -2.023  -1.257  0.00  0.00    +0.000 A 
ATOM     25  C   UNL     1       1.876  -1.486  -0.506  0.00  0.00    +0.000 A 
ATOM     26  N   UNL     1       0.978  -0.509  -0.939  0.00  0.00    +0.000 N 
ATOM     27  C   UNL     1       1.095   0.086  -2.273  0.00  0.00    +0.000 C 
ATOM     28  C   UNL     1       2.519  -0.147  -2.850  0.00  0.00    +0.000 C 
ATOM     29  C   UNL     1       3.048  -1.581  -2.680  0.00  0.00    +0.000 C 
ATOM     30  H   UNL     1      -0.461  -1.128   5.391  0.00  0.00    +0.000 HD
ATOM     31  H   UNL     1      -3.326   3.228   2.490  0.00  0.00    +0.000 HD
ATOM     32  H   UNL     1      -5.150   4.170   1.048  0.00  0.00    +0.000 HD
ATOM     33  H   UNL     1      -4.102   1.609  -2.175  0.00  0.00    +0.000 HD
ATOM     34  H   UNL     1      -1.780   0.408  -1.807  0.00  0.00    +0.000 HD
ATOM     35  H   UNL     1       2.227  -3.164   2.438  0.00  0.00    +0.000 HD
ATOM     36  H   UNL     1       4.116  -4.102   1.166  0.00  0.00    +0.000 HD
ATOM     37  H   UNL     1       4.560  -3.421  -1.170  0.00  0.00    +0.000 HD
ATOM     38  H   UNL     1       0.361  -0.463  -2.877  0.00  0.00    +0.000 HD
ATOM     39  H   UNL     1       3.223   0.533  -2.351  0.00  0.00    +0.000 HD
ATOM     40  H   UNL     1       2.520   0.120  -3.913  0.00  0.00    +0.000 HD
ATOM     41  H   UNL     1       4.094  -1.612  -2.997  0.00  0.00    +0.000 HD
ATOM     42  H   UNL     1       2.469  -2.263  -3.312  0.00  0.00    +0.000 HD
ENDROOT
BRANCH  27  43
ATOM     43  C   UNL     1       0.788   1.602  -2.396  0.00  0.00    +0.000 C 
ATOM     44  H   UNL     1      -0.204   1.897  -2.064  0.00  0.00    +0.000 HD
ATOM     45  H   UNL     1       0.826   1.877  -3.457  0.00  0.00    +0.000 HD
BRANCH  43  46
ATOM     46  O   UNL     1       1.728   2.427  -1.721  0.00  0.00    +0.000 OA
ATOM     47  H   UNL     1       1.634   2.264  -0.765  0.00  0.00    +0.000 HD
ENDBRANCH  43  46
ENDBRANCH  27  43
TORSDOF 2
