REMARK  Name = 
REMARK  11 active torsions:
REMARK  status: ('A' for Active; 'I' for Inactive)
REMARK    1  A    between atoms: C_1  and  C_2
REMARK    2  A    between atoms: C_13  and  C_14
REMARK    3  A    between atoms: C_13  and  C_18
REMARK    4  A    between atoms: C_14  and  N_15
REMARK    5  A    between atoms: N_15  and  C_16
REMARK    6  A    between atoms: N_15  and  C_17
REMARK    7  A    between atoms: N_20  and  C_21
REMARK    8  A    between atoms: C_25  and  O_26
REMARK    9  A    between atoms: O_26  and  C_27
REMARK   10  A    between atoms: N_29  and  C_30
REMARK   11  A    between atoms: N_29  and  C_31
REMARK                            x       y       z     vdW  Elec       q    Type
REMARK                         _______ _______ _______ _____ _____    ______ ____
ROOT
ATOM      1  C   UNL     1       5.327   2.430   1.447  0.00  0.00    +0.000 A 
ATOM      2  C   UNL     1       6.519   2.922   1.954  0.00  0.00    +0.000 A 
ATOM      3  N   UNL     1       7.423   2.988   0.938  0.00  0.00    +0.000 N 
ATOM      4  C   UNL     1       6.855   2.542  -0.218  0.00  0.00    +0.000 A 
ATOM      5  N   UNL     1       7.514   2.522  -1.382  0.00  0.00    +0.000 NA
ATOM      6  C   UNL     1       6.728   2.089  -2.374  0.00  0.00    +0.000 A 
ATOM      7  N   UNL     1       5.443   1.707  -2.300  0.00  0.00    +0.000 NA
ATOM      8  C   UNL     1       4.792   1.715  -1.100  0.00  0.00    +0.000 A 
ATOM      9  N   UNL     1       3.446   1.397  -1.091  0.00  0.00    +0.000 N 
ATOM     10  C   UNL     1       2.663   1.496  -2.320  0.00  0.00    +0.000 C 
ATOM     11  C   UNL     1       1.307   2.106  -1.922  0.00  0.00    +0.000 C 
ATOM     12  C   UNL     1       0.589   1.377  -0.733  0.00  0.00    +0.000 C 
ATOM     13  C   UNL     1       1.618   1.038   0.387  0.00  0.00    +0.000 C 
ATOM     14  C   UNL     1       2.910   0.419  -0.169  0.00  0.00    +0.000 C 
ATOM     15  C   UNL     1       5.537   2.165   0.035  0.00  0.00    +0.000 A 
ATOM     16  H   UNL     1       6.778   3.251   2.950  0.00  0.00    +0.000 HD
ATOM     17  H   UNL     1       8.367   3.335   1.000  0.00  0.00    +0.000 HD
ATOM     18  H   UNL     1       7.186   2.051  -3.358  0.00  0.00    +0.000 HD
ATOM     19  H   UNL     1       2.544   0.509  -2.785  0.00  0.00    +0.000 HD
ATOM     20  H   UNL     1       3.128   2.143  -3.073  0.00  0.00    +0.000 HD
ATOM     21  H   UNL     1       0.658   2.149  -2.804  0.00  0.00    +0.000 HD
ATOM     22  H   UNL     1       1.505   3.147  -1.627  0.00  0.00    +0.000 HD
ATOM     23  H   UNL     1       1.196   0.368   1.144  0.00  0.00    +0.000 HD
ATOM     24  H   UNL     1       1.859   1.971   0.900  0.00  0.00    +0.000 HD
ATOM     25  H   UNL     1       2.691  -0.525  -0.687  0.00  0.00    +0.000 HD
ATOM     26  H   UNL     1       3.610   0.144   0.622  0.00  0.00    +0.000 HD
ENDROOT
BRANCH   1  27
ATOM     27  C   UNL     1       4.112   2.286   2.283  0.00  0.00    +0.000 C 
ATOM     28  H   UNL     1       4.323   2.526   3.331  0.00  0.00    +0.000 HD
ATOM     29  H   UNL     1       3.736   1.263   2.291  0.00  0.00    +0.000 HD
ATOM     30  H   UNL     1       3.338   2.980   1.948  0.00  0.00    +0.000 HD
ENDBRANCH   1  27
BRANCH  12  31
ATOM     31  C   UNL     1      -0.004   0.035  -1.187  0.00  0.00    +0.000 C 
ATOM     32  O   UNL     1       0.267  -0.410  -2.301  0.00  0.00    +0.000 OA
ATOM     33  N   UNL     1      -0.811  -0.608  -0.249  0.00  0.00    +0.000 N 
ATOM     34  H   UNL     1      -1.023  -0.114   0.609  0.00  0.00    +0.000 HD
BRANCH  33  35
ATOM     35  C   UNL     1      -1.573  -1.775  -0.482  0.00  0.00    +0.000 A 
ATOM     36  C   UNL     1      -1.349  -2.609  -1.584  0.00  0.00    +0.000 A 
ATOM     37  C   UNL     1      -2.193  -3.683  -1.845  0.00  0.00    +0.000 A 
ATOM     38  C   UNL     1      -3.254  -3.962  -1.000  0.00  0.00    +0.000 A 
ATOM     39  C   UNL     1      -3.439  -3.194   0.150  0.00  0.00    +0.000 A 
ATOM     40  C   UNL     1      -2.613  -2.092   0.409  0.00  0.00    +0.000 A 
ATOM     41  H   UNL     1      -0.528  -2.439  -2.269  0.00  0.00    +0.000 HD
ATOM     42  H   UNL     1      -2.016  -4.300  -2.723  0.00  0.00    +0.000 HD
ATOM     43  H   UNL     1      -3.918  -4.783  -1.253  0.00  0.00    +0.000 HD
ATOM     44  H   UNL     1      -2.812  -1.476   1.281  0.00  0.00    +0.000 HD
BRANCH  39  45
ATOM     45  O   UNL     1      -4.505  -3.434   1.054  0.00  0.00    +0.000 OA
BRANCH  45  46
ATOM     46  C   UNL     1      -4.975  -4.739   1.280  0.00  0.00    +0.000 C 
ATOM     47  O   UNL     1      -4.459  -5.746   0.805  0.00  0.00    +0.000 OA
ATOM     48  N   UNL     1      -6.090  -4.795   2.109  0.00  0.00    +0.000 N 
BRANCH  48  49
ATOM     49  C   UNL     1      -6.675  -3.643   2.769  0.00  0.00    +0.000 C 
ATOM     50  H   UNL     1      -6.212  -2.703   2.464  0.00  0.00    +0.000 HD
ATOM     51  H   UNL     1      -6.551  -3.766   3.850  0.00  0.00    +0.000 HD
ATOM     52  H   UNL     1      -7.743  -3.608   2.533  0.00  0.00    +0.000 HD
ENDBRANCH  48  49
BRANCH  48  53
ATOM     53  C   UNL     1      -6.667  -6.091   2.423  0.00  0.00    +0.000 C 
ATOM     54  H   UNL     1      -6.209  -6.900   1.848  0.00  0.00    +0.000 HD
ATOM     55  H   UNL     1      -7.737  -6.068   2.198  0.00  0.00    +0.000 HD
ATOM     56  H   UNL     1      -6.521  -6.291   3.488  0.00  0.00    +0.000 HD
ENDBRANCH  48  53
ENDBRANCH  45  46
ENDBRANCH  39  45
ENDBRANCH  33  35
ENDBRANCH  12  31
BRANCH  12  57
ATOM     57  C   UNL     1      -0.513   2.330  -0.147  0.00  0.00    +0.000 C 
ATOM     58  H   UNL     1       0.026   3.222   0.208  0.00  0.00    +0.000 HD
ATOM     59  H   UNL     1      -0.951   1.891   0.758  0.00  0.00    +0.000 HD
BRANCH  57  60
ATOM     60  N   UNL     1      -1.592   2.833  -1.025  0.00  0.00    +0.000 NA
BRANCH  60  61
ATOM     61  C   UNL     1      -2.476   1.807  -1.584  0.00  0.00    +0.000 C 
ATOM     62  H   UNL     1      -1.942   1.081  -2.196  0.00  0.00    +0.000 HD
ATOM     63  H   UNL     1      -3.197   2.266  -2.269  0.00  0.00    +0.000 HD
ATOM     64  H   UNL     1      -3.039   1.278  -0.806  0.00  0.00    +0.000 HD
ENDBRANCH  60  61
BRANCH  60  65
ATOM     65  C   UNL     1      -2.430   3.795  -0.292  0.00  0.00    +0.000 C 
ATOM     66  H   UNL     1      -1.833   4.620   0.108  0.00  0.00    +0.000 HD
ATOM     67  H   UNL     1      -2.962   3.318   0.541  0.00  0.00    +0.000 HD
ATOM     68  H   UNL     1      -3.178   4.240  -0.959  0.00  0.00    +0.000 HD
ENDBRANCH  60  65
ENDBRANCH  57  60
ENDBRANCH  12  57
TORSDOF 11
