
 OpenBabel01112422583D

 63 66  0  0  0  0  0  0  0  0999 V2000
    1.2041   -1.9875    2.1440 C   0  0  0  0  0  0  0  0  0  0  0  0
    2.6166   -1.7856    2.1520 O   0  0  0  0  0  0  0  0  0  0  0  0
    3.0172   -0.7525    1.3721 C   0  0  0  0  0  0  0  0  0  0  0  0
    2.2829   -0.0338    0.7120 O   0  0  0  0  0  0  0  0  0  0  0  0
    4.5002   -0.6157    1.4205 C   0  0  0  0  0  0  0  0  0  0  0  0
    5.0716    0.4125    0.6779 C   0  0  0  0  0  0  0  0  0  0  0  0
    6.4569    0.5851    0.6660 C   0  0  0  0  0  0  0  0  0  0  0  0
    7.3113   -0.2563    1.3816 C   0  0  0  0  0  0  0  0  0  0  0  0
    8.7215   -0.1378    1.3692 N   0  0  0  0  0  0  0  0  0  0  0  0
    9.4272    0.8951    0.7854 C   0  0  0  0  0  0  0  0  0  0  0  0
    8.8937    1.8354    0.1959 O   0  0  0  0  0  0  0  0  0  0  0  0
   10.9583    0.7839    0.7696 C   0  0  0  0  0  0  0  0  0  0  0  0
   11.5581    0.1307    2.0676 C   0  0  0  0  0  0  0  0  0  0  0  0
   11.1864   -1.2500    2.4868 N   0  0  0  0  0  0  0  0  0  0  0  0
   11.6897   -2.3216    1.6158 C   0  0  0  0  0  0  0  0  0  0  0  0
   11.7825   -1.5078    3.8205 C   0  0  0  0  0  0  0  0  0  0  0  0
   11.4945    2.2699    0.7355 C   0  0  0  0  0  0  0  0  0  0  0  0
   11.4542    2.9427   -0.6462 C   0  0  0  0  0  0  0  0  0  0  0  0
   12.1259    2.0149   -1.5462 N   0  0  0  0  0  0  0  0  0  0  0  0
   12.8844    2.5328   -2.5824 C   0  0  0  0  0  0  0  0  0  0  0  0
   12.6701    3.8184   -2.9756 N   0  0  0  0  0  0  0  0  0  0  0  0
   13.4670    4.3723   -3.9099 C   0  0  0  0  0  0  0  0  0  0  0  0
   14.5161    3.8174   -4.5266 N   0  0  0  0  0  0  0  0  0  0  0  0
   14.7173    2.5620   -4.1070 C   0  0  0  0  0  0  0  0  0  0  0  0
   15.7510    1.7877   -4.5431 N   0  0  0  0  0  0  0  0  0  0  0  0
   15.7175    0.5754   -3.9257 C   0  0  0  0  0  0  0  0  0  0  0  0
   14.6395    0.5576   -3.0553 C   0  0  0  0  0  0  0  0  0  0  0  0
   14.3216   -0.5973   -2.1788 C   0  0  0  0  0  0  0  0  0  0  0  0
   13.9777    1.8402   -3.1748 C   0  0  0  0  0  0  0  0  0  0  0  0
   11.3215    0.8349   -1.7965 C   0  0  0  0  0  0  0  0  0  0  0  0
   11.3705    0.0106   -0.5075 C   0  0  0  0  0  0  0  0  0  0  0  0
    6.7399   -1.2898    2.1309 C   0  0  0  0  0  0  0  0  0  0  0  0
    5.3423   -1.4675    2.1564 C   0  0  0  0  0  0  0  0  0  0  0  0
    0.9718   -2.7354    2.9054 H   0  0  0  0  0  0  0  0  0  0  0  0
    0.8874   -2.3673    1.1682 H   0  0  0  0  0  0  0  0  0  0  0  0
    0.6723   -1.0634    2.3923 H   0  0  0  0  0  0  0  0  0  0  0  0
    4.4523    1.0938    0.0968 H   0  0  0  0  0  0  0  0  0  0  0  0
    6.8267    1.4005    0.0540 H   0  0  0  0  0  0  0  0  0  0  0  0
    9.2671   -0.8130    1.9091 H   0  0  0  0  0  0  0  0  0  0  0  0
   11.2508    0.7909    2.8925 H   0  0  0  0  0  0  0  0  0  0  0  0
   12.6551    0.1994    2.0199 H   0  0  0  0  0  0  0  0  0  0  0  0
   11.3451   -2.2428    0.5898 H   0  0  0  0  0  0  0  0  0  0  0  0
   11.2924   -3.2845    1.9604 H   0  0  0  0  0  0  0  0  0  0  0  0
   12.7842   -2.3873    1.6087 H   0  0  0  0  0  0  0  0  0  0  0  0
   11.4766   -0.7540    4.5523 H   0  0  0  0  0  0  0  0  0  0  0  0
   12.8809   -1.5191    3.7821 H   0  0  0  0  0  0  0  0  0  0  0  0
   11.4504   -2.4793    4.2049 H   0  0  0  0  0  0  0  0  0  0  0  0
   12.5420    2.2816    1.0641 H   0  0  0  0  0  0  0  0  0  0  0  0
   10.9394    2.8911    1.4512 H   0  0  0  0  0  0  0  0  0  0  0  0
   11.9595    3.9128   -0.5721 H   0  0  0  0  0  0  0  0  0  0  0  0
   10.4327    3.1541   -0.9874 H   0  0  0  0  0  0  0  0  0  0  0  0
   13.2367    5.3959   -4.1834 H   0  0  0  0  0  0  0  0  0  0  0  0
   16.4455    2.1015   -5.2041 H   0  0  0  0  0  0  0  0  0  0  0  0
   16.4700   -0.1772   -4.1257 H   0  0  0  0  0  0  0  0  0  0  0  0
   15.0051   -1.4324   -2.3652 H   0  0  0  0  0  0  0  0  0  0  0  0
   13.3216   -0.9876   -2.3730 H   0  0  0  0  0  0  0  0  0  0  0  0
   14.4241   -0.3204   -1.1267 H   0  0  0  0  0  0  0  0  0  0  0  0
   11.6768    0.2448   -2.6456 H   0  0  0  0  0  0  0  0  0  0  0  0
   10.2846    1.0977   -2.0429 H   0  0  0  0  0  0  0  0  0  0  0  0
   12.3970   -0.3361   -0.3582 H   0  0  0  0  0  0  0  0  0  0  0  0
   10.7366   -0.8638   -0.6708 H   0  0  0  0  0  0  0  0  0  0  0  0
    7.3585   -1.9644    2.7202 H   0  0  0  0  0  0  0  0  0  0  0  0
    4.9225   -2.2749    2.7530 H   0  0  0  0  0  0  0  0  0  0  0  0
  1  2  1  0  0  0  0
  1 34  1  0  0  0  0
  1 35  1  0  0  0  0
  1 36  1  0  0  0  0
  2  3  1  0  0  0  0
  3  4  2  0  0  0  0
  3  5  1  0  0  0  0
  5  6  1  0  0  0  0
  5 33  2  0  0  0  0
  6  7  2  0  0  0  0
  6 37  1  0  0  0  0
  7  8  1  0  0  0  0
  7 38  1  0  0  0  0
  8  9  1  0  0  0  0
  8 32  2  0  0  0  0
  9 10  1  0  0  0  0
  9 39  1  0  0  0  0
 10 11  2  0  0  0  0
 10 12  1  0  0  0  0
 12 13  1  0  0  0  0
 12 17  1  0  0  0  0
 12 31  1  0  0  0  0
 13 14  1  0  0  0  0
 13 40  1  0  0  0  0
 13 41  1  0  0  0  0
 14 15  1  0  0  0  0
 14 16  1  0  0  0  0
 15 42  1  0  0  0  0
 15 43  1  0  0  0  0
 15 44  1  0  0  0  0
 16 45  1  0  0  0  0
 16 46  1  0  0  0  0
 16 47  1  0  0  0  0
 17 18  1  0  0  0  0
 17 48  1  0  0  0  0
 17 49  1  0  0  0  0
 18 19  1  0  0  0  0
 18 50  1  0  0  0  0
 18 51  1  0  0  0  0
 19 20  1  0  0  0  0
 19 30  1  0  0  0  0
 20 21  1  0  0  0  0
 20 29  2  0  0  0  0
 21 22  2  0  0  0  0
 22 23  1  0  0  0  0
 22 52  1  0  0  0  0
 23 24  2  0  0  0  0
 24 25  1  0  0  0  0
 24 29  1  0  0  0  0
 25 26  1  0  0  0  0
 25 53  1  0  0  0  0
 26 27  2  0  0  0  0
 26 54  1  0  0  0  0
 27 28  1  0  0  0  0
 27 29  1  0  0  0  0
 28 55  1  0  0  0  0
 28 56  1  0  0  0  0
 28 57  1  0  0  0  0
 30 31  1  0  0  0  0
 30 58  1  0  0  0  0
 30 59  1  0  0  0  0
 31 60  1  0  0  0  0
 31 61  1  0  0  0  0
 32 33  1  0  0  0  0
 32 62  1  0  0  0  0
 33 63  1  0  0  0  0
M  END
$$$$
