
 OpenBabel01112422123D

 48 52  0  0  0  0  0  0  0  0999 V2000
   -0.9743    0.6041   -1.1994 O   0  0  0  0  0  0  0  0  0  0  0  0
   -0.5076   -0.2350   -0.4440 C   0  0  0  0  0  0  0  0  0  0  0  0
   -0.3405   -0.0950    0.8699 N   0  0  0  0  0  0  0  0  0  0  0  0
    0.2865   -1.1780    1.3902 C   0  0  0  0  0  0  0  0  0  0  0  0
    0.6468   -1.2841    2.5465 O   0  0  0  0  0  0  0  0  0  0  0  0
    0.4878   -2.1429    0.2866 C   0  0  0  0  0  0  0  0  0  0  0  0
    1.2805   -3.3198    0.3904 C   0  0  0  0  0  0  0  0  0  0  0  0
    2.2923   -3.4473    1.3283 C   0  0  0  0  0  0  0  0  0  0  0  0
    3.2248   -4.1989    0.6474 N   0  0  0  0  0  0  0  0  0  0  0  0
    4.0763   -3.5071   -0.3624 C   0  0  0  0  0  0  0  0  0  0  0  0
    5.5707   -3.7287   -0.2231 C   0  0  0  0  0  0  0  0  0  0  0  0
    5.9618   -5.1574   -0.5477 C   0  0  0  0  0  0  0  0  0  0  0  0
    7.3646   -5.3149   -0.3926 O   0  0  0  0  0  0  0  0  0  0  0  0
    2.4070   -5.2593    0.2693 C   0  0  0  0  0  0  0  0  0  0  0  0
    2.5504   -6.6391    0.3863 C   0  0  0  0  0  0  0  0  0  0  0  0
    1.6364   -7.4128   -0.3227 C   0  0  0  0  0  0  0  0  0  0  0  0
    0.5946   -6.8175   -1.0376 C   0  0  0  0  0  0  0  0  0  0  0  0
    0.3454   -5.4306   -0.9442 C   0  0  0  0  0  0  0  0  0  0  0  0
    1.2391   -4.6342   -0.2020 C   0  0  0  0  0  0  0  0  0  0  0  0
   -0.0002   -1.5761   -0.8304 C   0  0  0  0  0  0  0  0  0  0  0  0
   -0.0216   -2.0283   -2.1688 C   0  0  0  0  0  0  0  0  0  0  0  0
    0.9689   -1.8651   -3.1130 C   0  0  0  0  0  0  0  0  0  0  0  0
    0.4891   -2.3816   -4.2960 N   0  0  0  0  0  0  0  0  0  0  0  0
   -0.7953   -2.8449   -4.1242 C   0  0  0  0  0  0  0  0  0  0  0  0
   -1.6973   -3.3984   -5.0413 C   0  0  0  0  0  0  0  0  0  0  0  0
   -2.9548   -3.7869   -4.5595 C   0  0  0  0  0  0  0  0  0  0  0  0
   -3.2950   -3.6412   -3.2172 C   0  0  0  0  0  0  0  0  0  0  0  0
   -2.3935   -3.0747   -2.3172 C   0  0  0  0  0  0  0  0  0  0  0  0
   -1.1289   -2.6579   -2.7849 C   0  0  0  0  0  0  0  0  0  0  0  0
   -0.5539    0.7358    1.4010 H   0  0  0  0  0  0  0  0  0  0  0  0
    2.4511   -3.0831    2.3348 H   0  0  0  0  0  0  0  0  0  0  0  0
    3.8850   -2.4282   -0.2641 H   0  0  0  0  0  0  0  0  0  0  0  0
    3.7325   -3.7932   -1.3677 H   0  0  0  0  0  0  0  0  0  0  0  0
    5.9115   -3.4519    0.7803 H   0  0  0  0  0  0  0  0  0  0  0  0
    6.0998   -3.0531   -0.9118 H   0  0  0  0  0  0  0  0  0  0  0  0
    5.6905   -5.4203   -1.5760 H   0  0  0  0  0  0  0  0  0  0  0  0
    5.4703   -5.8577    0.1303 H   0  0  0  0  0  0  0  0  0  0  0  0
    7.8030   -4.7516   -1.0526 H   0  0  0  0  0  0  0  0  0  0  0  0
    3.3066   -7.0773    1.0284 H   0  0  0  0  0  0  0  0  0  0  0  0
    1.7352   -8.4957   -0.3044 H   0  0  0  0  0  0  0  0  0  0  0  0
   -0.0867   -7.4496   -1.6033 H   0  0  0  0  0  0  0  0  0  0  0  0
   -0.5795   -5.0411   -1.3465 H   0  0  0  0  0  0  0  0  0  0  0  0
    1.9519   -1.4234   -3.0681 H   0  0  0  0  0  0  0  0  0  0  0  0
    0.9791   -2.3697   -5.1879 H   0  0  0  0  0  0  0  0  0  0  0  0
   -1.4475   -3.5068   -6.0922 H   0  0  0  0  0  0  0  0  0  0  0  0
   -3.6826   -4.2093   -5.2488 H   0  0  0  0  0  0  0  0  0  0  0  0
   -4.2704   -3.9588   -2.8614 H   0  0  0  0  0  0  0  0  0  0  0  0
   -2.6633   -2.9556   -1.2719 H   0  0  0  0  0  0  0  0  0  0  0  0
  1  2  2  0  0  0  0
  2  3  1  0  0  0  0
  2 20  1  0  0  0  0
  3  4  1  0  0  0  0
  3 30  1  0  0  0  0
  4  5  2  0  0  0  0
  4  6  1  0  0  0  0
  6  7  1  0  0  0  0
  6 20  2  0  0  0  0
  7  8  2  0  0  0  0
  7 19  1  0  0  0  0
  8  9  1  0  0  0  0
  8 31  1  0  0  0  0
  9 10  1  0  0  0  0
  9 14  1  0  0  0  0
 10 11  1  0  0  0  0
 10 32  1  0  0  0  0
 10 33  1  0  0  0  0
 11 12  1  0  0  0  0
 11 34  1  0  0  0  0
 11 35  1  0  0  0  0
 12 13  1  0  0  0  0
 12 36  1  0  0  0  0
 12 37  1  0  0  0  0
 13 38  1  0  0  0  0
 14 15  1  0  0  0  0
 14 19  2  0  0  0  0
 15 16  2  0  0  0  0
 15 39  1  0  0  0  0
 16 17  1  0  0  0  0
 16 40  1  0  0  0  0
 17 18  2  0  0  0  0
 17 41  1  0  0  0  0
 18 19  1  0  0  0  0
 18 42  1  0  0  0  0
 20 21  1  0  0  0  0
 21 22  2  0  0  0  0
 21 29  1  0  0  0  0
 22 23  1  0  0  0  0
 22 43  1  0  0  0  0
 23 24  1  0  0  0  0
 23 44  1  0  0  0  0
 24 25  1  0  0  0  0
 24 29  2  0  0  0  0
 25 26  2  0  0  0  0
 25 45  1  0  0  0  0
 26 27  1  0  0  0  0
 26 46  1  0  0  0  0
 27 28  2  0  0  0  0
 27 47  1  0  0  0  0
 28 29  1  0  0  0  0
 28 48  1  0  0  0  0
M  END
$$$$
