
 OpenBabel01112422453D

 60 63  0  0  1  0  0  0  0  0999 V2000
   -0.9682    0.2357    4.9089 O   0  0  0  0  0  0  0  0  0  0  0  0
   -0.7718    0.0181    3.7148 C   0  0  0  0  0  0  0  0  0  0  0  0
    0.0772    0.7760    2.9364 N   0  0  0  0  0  0  0  0  0  0  0  0
    0.7544    1.9301    3.5027 C   0  0  2  0  0  0  0  0  0  0  0  0
   -0.1686    3.0967    3.8494 C   0  0  0  0  0  0  0  0  0  0  0  0
    0.7329    4.2435    4.0401 N   0  0  0  0  0  0  0  0  0  0  0  0
    1.8092    4.0578    3.0508 C   0  0  0  0  0  0  0  0  0  0  0  0
    1.8126    2.5797    2.6052 C   0  0  3  0  0  0  0  0  0  0  0  0
    1.4682    2.5227    1.2009 O   0  0  0  0  0  0  0  0  0  0  0  0
    2.5306    2.8303    0.4033 C   0  0  0  0  0  0  0  0  0  0  0  0
    3.6950    2.8869    0.7705 O   0  0  0  0  0  0  0  0  0  0  0  0
    2.1088    3.2612   -0.9509 C   0  0  0  0  0  0  0  0  0  0  0  0
    0.8616    2.9454   -1.4935 C   0  0  0  0  0  0  0  0  0  0  0  0
    0.5477    3.3817   -2.7852 C   0  0  0  0  0  0  0  0  0  0  0  0
   -0.6732    3.0445   -3.3068 O   0  0  0  0  0  0  0  0  0  0  0  0
    1.4692    4.1245   -3.5507 C   0  0  0  0  0  0  0  0  0  0  0  0
    1.1277    4.5142   -4.9401 C   0  0  0  0  0  0  0  0  0  0  0  0
    0.0046    4.9787   -5.1591 O   0  0  0  0  0  0  0  0  0  0  0  0
    2.1136    4.5629   -6.0658 C   0  0  0  0  0  0  0  0  0  0  0  0
    1.9160    5.5886   -7.0212 C   0  0  0  0  0  0  0  0  0  0  0  0
    0.8713    6.4762   -6.9695 O   0  0  0  0  0  0  0  0  0  0  0  0
    2.8008    5.7900   -8.0778 C   0  0  0  0  0  0  0  0  0  0  0  0
    3.9098    4.9671   -8.2180 C   0  0  0  0  0  0  0  0  0  0  0  0
    4.1263    3.9383   -7.3006 C   0  0  0  0  0  0  0  0  0  0  0  0
    3.2393    3.7314   -6.2193 C   0  0  0  0  0  0  0  0  0  0  0  0
    3.5138    2.5784   -5.3341 C   0  0  0  0  0  0  0  0  0  0  0  0
    2.6504    1.8368   -4.9147 O   0  0  0  0  0  0  0  0  0  0  0  0
    4.8270    2.4247   -5.0282 O   0  0  0  0  0  0  0  0  0  0  0  0
    2.6866    4.4912   -2.9646 C   0  0  0  0  0  0  0  0  0  0  0  0
    3.6340    5.2751   -3.5699 O   0  0  0  0  0  0  0  0  0  0  0  0
    3.0122    4.0432   -1.6863 C   0  0  0  0  0  0  0  0  0  0  0  0
   -1.5167   -1.0639    3.0258 C   0  0  0  0  0  0  0  0  0  0  0  0
   -2.8384   -1.3198    3.4150 C   0  0  0  0  0  0  0  0  0  0  0  0
   -3.5882   -2.2970    2.7566 C   0  0  0  0  0  0  0  0  0  0  0  0
   -2.9968   -3.0278    1.7306 C   0  0  0  0  0  0  0  0  0  0  0  0
   -3.6964   -3.9720    1.0398 O   0  0  0  0  0  0  0  0  0  0  0  0
   -1.6683   -2.8157    1.3706 C   0  0  0  0  0  0  0  0  0  0  0  0
   -0.9211   -1.8282    2.0168 C   0  0  0  0  0  0  0  0  0  0  0  0
    0.0498    0.6939    1.9273 H   0  0  0  0  0  0  0  0  0  0  0  0
    1.2431    1.5998    4.4308 H   0  0  0  0  0  0  0  0  0  0  0  0
   -0.7501    2.9093    4.7579 H   0  0  0  0  0  0  0  0  0  0  0  0
   -0.8757    3.3065    3.0382 H   0  0  0  0  0  0  0  0  0  0  0  0
    1.1376    4.1788    4.9766 H   0  0  0  0  0  0  0  0  0  0  0  0
    2.7706    4.3340    3.4962 H   0  0  0  0  0  0  0  0  0  0  0  0
    1.6277    4.7366    2.2092 H   0  0  0  0  0  0  0  0  0  0  0  0
    2.7769    2.0883    2.7847 H   0  0  0  0  0  0  0  0  0  0  0  0
    0.1560    2.3421   -0.9307 H   0  0  0  0  0  0  0  0  0  0  0  0
   -1.2785    2.7726   -2.5989 H   0  0  0  0  0  0  0  0  0  0  0  0
    0.1989    6.1242   -6.3388 H   0  0  0  0  0  0  0  0  0  0  0  0
    2.6116    6.5838   -8.7971 H   0  0  0  0  0  0  0  0  0  0  0  0
    4.5931    5.1147   -9.0514 H   0  0  0  0  0  0  0  0  0  0  0  0
    4.9794    3.2808   -7.4606 H   0  0  0  0  0  0  0  0  0  0  0  0
    5.4171    3.1610   -5.2786 H   0  0  0  0  0  0  0  0  0  0  0  0
    3.2104    5.8884   -4.1962 H   0  0  0  0  0  0  0  0  0  0  0  0
    3.9750    4.3148   -1.2572 H   0  0  0  0  0  0  0  0  0  0  0  0
   -3.2881   -0.7482    4.2247 H   0  0  0  0  0  0  0  0  0  0  0  0
   -4.6165   -2.4710    3.0547 H   0  0  0  0  0  0  0  0  0  0  0  0
   -4.6269   -3.9363    1.3160 H   0  0  0  0  0  0  0  0  0  0  0  0
   -1.2176   -3.4190    0.5862 H   0  0  0  0  0  0  0  0  0  0  0  0
    0.1211   -1.6838    1.7438 H   0  0  0  0  0  0  0  0  0  0  0  0
  1  2  2  0  0  0  0
  2  3  1  0  0  0  0
  2 32  1  0  0  0  0
  3  4  1  0  0  0  0
  3 39  1  0  0  0  0
  4  5  1  0  0  0  0
  4  8  1  0  0  0  0
  4 40  1  1  0  0  0
  5  6  1  0  0  0  0
  5 41  1  0  0  0  0
  5 42  1  0  0  0  0
  6  7  1  0  0  0  0
  6 43  1  0  0  0  0
  7  8  1  0  0  0  0
  7 44  1  0  0  0  0
  7 45  1  0  0  0  0
  8  9  1  0  0  0  0
  8 46  1  0  0  0  0
  9 10  1  0  0  0  0
 10 11  2  0  0  0  0
 10 12  1  0  0  0  0
 12 13  1  0  0  0  0
 12 31  2  0  0  0  0
 13 14  2  0  0  0  0
 13 47  1  0  0  0  0
 14 15  1  0  0  0  0
 14 16  1  0  0  0  0
 15 48  1  0  0  0  0
 16 17  1  0  0  0  0
 16 29  2  0  0  0  0
 17 18  2  0  0  0  0
 17 19  1  0  0  0  0
 19 20  1  0  0  0  0
 19 25  2  0  0  0  0
 20 21  1  0  0  0  0
 20 22  2  0  0  0  0
 21 49  1  0  0  0  0
 22 23  1  0  0  0  0
 22 50  1  0  0  0  0
 23 24  2  0  0  0  0
 23 51  1  0  0  0  0
 24 25  1  0  0  0  0
 24 52  1  0  0  0  0
 25 26  1  0  0  0  0
 26 27  2  0  0  0  0
 26 28  1  0  0  0  0
 28 53  1  0  0  0  0
 29 30  1  0  0  0  0
 29 31  1  0  0  0  0
 30 54  1  0  0  0  0
 31 55  1  0  0  0  0
 32 33  1  0  0  0  0
 32 38  2  0  0  0  0
 33 34  2  0  0  0  0
 33 56  1  0  0  0  0
 34 35  1  0  0  0  0
 34 57  1  0  0  0  0
 35 36  1  0  0  0  0
 35 37  2  0  0  0  0
 36 58  1  0  0  0  0
 37 38  1  0  0  0  0
 37 59  1  0  0  0  0
 38 60  1  0  0  0  0
M  END
$$$$
