REMARK  Name = 
REMARK  4 active torsions:
REMARK  status: ('A' for Active; 'I' for Inactive)
REMARK    1  A    between atoms: C_1  and  N_2
REMARK    2  A    between atoms: C_8  and  C_9
REMARK    3  A    between atoms: C_10  and  C_11
REMARK    4  A    between atoms: N_13  and  C_14
REMARK                            x       y       z     vdW  Elec       q    Type
REMARK                         _______ _______ _______ _____ _____    ______ ____
ROOT
ATOM      1  N   UNL     1       4.815  -3.025  -1.566  0.00  0.00    +0.000 NA
ATOM      2  C   UNL     1       3.466  -3.545  -1.899  0.00  0.00    +0.000 C 
ATOM      3  C   UNL     1       2.507  -2.561  -1.261  0.00  0.00    +0.000 C 
ATOM      4  C   UNL     1       1.110  -2.421  -1.860  0.00  0.00    +0.000 C 
ATOM      5  N   UNL     1       0.584  -1.063  -1.668  0.00  0.00    +0.000 N 
ATOM      6  C   UNL     1       1.191  -0.103  -0.886  0.00  0.00    +0.000 A 
ATOM      7  C   UNL     1       0.213   0.819  -0.565  0.00  0.00    +0.000 A 
ATOM      8  C   UNL     1      -0.899   0.567  -1.433  0.00  0.00    +0.000 A 
ATOM      9  C   UNL     1      -2.144   1.188  -1.669  0.00  0.00    +0.000 A 
ATOM     10  C   UNL     1      -2.895   0.811  -2.790  0.00  0.00    +0.000 A 
ATOM     11  C   UNL     1      -2.436  -0.174  -3.660  0.00  0.00    +0.000 A 
ATOM     12  C   UNL     1      -1.273  -0.892  -3.377  0.00  0.00    +0.000 A 
ATOM     13  C   UNL     1      -0.541  -0.524  -2.239  0.00  0.00    +0.000 A 
ATOM     14  C   UNL     1       2.637  -0.203  -0.533  0.00  0.00    +0.000 C 
ATOM     15  C   UNL     1       3.270  -1.257  -1.419  0.00  0.00    +0.000 C 
ATOM     16  C   UNL     1       4.681  -1.643  -1.066  0.00  0.00    +0.000 C 
ATOM     17  H   UNL     1       3.291  -4.571  -1.555  0.00  0.00    +0.000 HD
ATOM     18  H   UNL     1       3.354  -3.541  -2.989  0.00  0.00    +0.000 HD
ATOM     19  H   UNL     1       2.412  -2.801  -0.190  0.00  0.00    +0.000 HD
ATOM     20  H   UNL     1       0.413  -3.096  -1.345  0.00  0.00    +0.000 HD
ATOM     21  H   UNL     1       1.086  -2.638  -2.930  0.00  0.00    +0.000 HD
ATOM     22  H   UNL     1      -2.506   1.980  -1.020  0.00  0.00    +0.000 HD
ATOM     23  H   UNL     1      -3.830   1.323  -3.001  0.00  0.00    +0.000 HD
ATOM     24  H   UNL     1      -2.993  -0.392  -4.568  0.00  0.00    +0.000 HD
ATOM     25  H   UNL     1      -0.923  -1.667  -4.050  0.00  0.00    +0.000 HD
ATOM     26  H   UNL     1       2.741  -0.445   0.531  0.00  0.00    +0.000 HD
ATOM     27  H   UNL     1       3.151   0.743  -0.715  0.00  0.00    +0.000 HD
ATOM     28  H   UNL     1       3.236  -0.933  -2.473  0.00  0.00    +0.000 HD
ATOM     29  H   UNL     1       5.404  -0.983  -1.558  0.00  0.00    +0.000 HD
ATOM     30  H   UNL     1       4.834  -1.569   0.017  0.00  0.00    +0.000 HD
ENDROOT
BRANCH   7  31
ATOM     31  C   UNL     1       0.393   1.842   0.406  0.00  0.00    +0.000 C 
ATOM     32  C   UNL     1      -0.343   2.129   1.493  0.00  0.00    +0.000 C 
ATOM     33  C   UNL     1       0.339   3.209   2.233  0.00  0.00    +0.000 C 
ATOM     34  O   UNL     1      -0.104   3.828   3.186  0.00  0.00    +0.000 OA
ATOM     35  N   UNL     1       1.509   3.423   1.624  0.00  0.00    +0.000 N 
ATOM     36  C   UNL     1       1.537   2.779   0.441  0.00  0.00    +0.000 C 
ATOM     37  O   UNL     1       2.346   2.991  -0.446  0.00  0.00    +0.000 OA
ATOM     38  H   UNL     1       2.140   4.164   1.873  0.00  0.00    +0.000 HD
BRANCH  32  39
ATOM     39  C   UNL     1      -1.522   1.510   1.941  0.00  0.00    +0.000 A 
ATOM     40  C   UNL     1      -1.674   0.157   2.184  0.00  0.00    +0.000 A 
ATOM     41  N   UNL     1      -2.934   0.030   2.719  0.00  0.00    +0.000 N 
ATOM     42  C   UNL     1      -3.698   1.081   2.246  0.00  0.00    +0.000 A 
ATOM     43  C   UNL     1      -5.063   1.235   1.985  0.00  0.00    +0.000 A 
ATOM     44  C   UNL     1      -5.501   2.525   1.657  0.00  0.00    +0.000 A 
ATOM     45  C   UNL     1      -4.639   3.621   1.719  0.00  0.00    +0.000 A 
ATOM     46  C   UNL     1      -3.274   3.439   1.946  0.00  0.00    +0.000 A 
ATOM     47  C   UNL     1      -2.792   2.128   2.082  0.00  0.00    +0.000 A 
ATOM     48  H   UNL     1      -0.981  -0.674   2.164  0.00  0.00    +0.000 HD
ATOM     49  H   UNL     1      -5.739   0.388   1.967  0.00  0.00    +0.000 HD
ATOM     50  H   UNL     1      -6.536   2.682   1.363  0.00  0.00    +0.000 HD
ATOM     51  H   UNL     1      -5.016   4.624   1.538  0.00  0.00    +0.000 HD
ATOM     52  H   UNL     1      -2.595   4.287   1.949  0.00  0.00    +0.000 HD
BRANCH  41  53
ATOM     53  C   UNL     1      -3.109  -0.568   4.032  0.00  0.00    +0.000 C 
ATOM     54  H   UNL     1      -3.129  -1.653   3.934  0.00  0.00    +0.000 HD
ATOM     55  H   UNL     1      -4.019  -0.184   4.498  0.00  0.00    +0.000 HD
ATOM     56  H   UNL     1      -2.250  -0.263   4.647  0.00  0.00    +0.000 HD
ENDBRANCH  41  53
ENDBRANCH  32  39
ENDBRANCH   7  31
BRANCH   1  57
ATOM     57  C   UNL     1       5.522  -3.860  -0.601  0.00  0.00    +0.000 C 
ATOM     58  H   UNL     1       4.854  -4.269   0.166  0.00  0.00    +0.000 HD
ATOM     59  H   UNL     1       6.311  -3.297  -0.087  0.00  0.00    +0.000 HD
ATOM     60  H   UNL     1       6.014  -4.687  -1.120  0.00  0.00    +0.000 HD
ENDBRANCH   1  57
TORSDOF 4
