MODEL 1
REMARK VINA RESULT:   -12.139      0.000      0.000
REMARK INTER + INTRA:         -12.139
REMARK INTER:                 -12.139
REMARK INTRA:                   0.000
REMARK UNBOUND:                 0.000
REMARK  Name = 
REMARK  0 active torsions:
REMARK  status: ('A' for Active; 'I' for Inactive)
REMARK                            x       y       z     vdW  Elec       q    Type
REMARK                         _______ _______ _______ _____ _____    ______ ____
ROOT
ATOM      1  O   UNL     1      -8.011  -8.203  20.273  0.00  0.00    +0.000 OA
ATOM      2  C   UNL     1      -8.476  -7.244  19.676  0.00  0.00    +0.000 C 
ATOM      3  N   UNL     1      -8.469  -6.002  20.214  0.00  0.00    +0.000 N 
ATOM      4  C   UNL     1      -8.971  -4.993  19.447  0.00  0.00    +0.000 C 
ATOM      5  O   UNL     1      -8.922  -3.856  19.885  0.00  0.00    +0.000 OA
ATOM      6  C   UNL     1      -9.423  -5.638  18.243  0.00  0.00    +0.000 A 
ATOM      7  C   UNL     1      -9.100  -7.041  18.404  0.00  0.00    +0.000 A 
ATOM      8  C   UNL     1      -9.406  -7.963  17.379  0.00  0.00    +0.000 A 
ATOM      9  C   UNL     1      -9.162  -9.337  17.358  0.00  0.00    +0.000 A 
ATOM     10  C   UNL     1      -8.597 -10.331  18.181  0.00  0.00    +0.000 A 
ATOM     11  C   UNL     1      -8.552 -11.662  17.750  0.00  0.00    +0.000 A 
ATOM     12  C   UNL     1      -9.062 -12.022  16.510  0.00  0.00    +0.000 A 
ATOM     13  C   UNL     1      -9.632 -11.065  15.665  0.00  0.00    +0.000 A 
ATOM     14  C   UNL     1      -9.671  -9.732  16.104  0.00  0.00    +0.000 A 
ATOM     15  N   UNL     1     -10.178  -8.602  15.462  0.00  0.00    +0.000 N 
ATOM     16  C   UNL     1     -10.008  -7.503  16.259  0.00  0.00    +0.000 A 
ATOM     17  C   UNL     1     -10.324  -6.174  16.099  0.00  0.00    +0.000 A 
ATOM     18  N   UNL     1     -10.922  -5.563  15.048  0.00  0.00    +0.000 N 
ATOM     19  C   UNL     1     -11.049  -4.210  15.303  0.00  0.00    +0.000 A 
ATOM     20  C   UNL     1     -11.622  -3.256  14.444  0.00  0.00    +0.000 A 
ATOM     21  C   UNL     1     -11.673  -1.935  14.849  0.00  0.00    +0.000 A 
ATOM     22  C   UNL     1     -11.167  -1.585  16.085  0.00  0.00    +0.000 A 
ATOM     23  C   UNL     1     -10.594  -2.538  16.960  0.00  0.00    +0.000 A 
ATOM     24 BR   UNL     1     -10.028  -1.713  18.559  0.00  0.00    +0.000 Br
ATOM     25  C   UNL     1     -10.508  -3.915  16.590  0.00  0.00    +0.000 A 
ATOM     26  C   UNL     1     -10.068  -5.202  17.031  0.00  0.00    +0.000 A 
ATOM     27  H   UNL     1      -8.064  -5.815  21.114  0.00  0.00    +0.000 HD
ATOM     28  H   UNL     1      -8.184 -10.103  19.157  0.00  0.00    +0.000 HD
ATOM     29  H   UNL     1      -8.111 -12.415  18.400  0.00  0.00    +0.000 HD
ATOM     30  H   UNL     1      -9.017 -13.063  16.197  0.00  0.00    +0.000 HD
ATOM     31  H   UNL     1     -10.027 -11.358  14.698  0.00  0.00    +0.000 HD
ATOM     32  H   UNL     1     -10.599  -8.618  14.545  0.00  0.00    +0.000 HD
ATOM     33  H   UNL     1     -11.235  -6.009  14.198  0.00  0.00    +0.000 HD
ATOM     34  H   UNL     1     -12.019  -3.539  13.474  0.00  0.00    +0.000 HD
ATOM     35  H   UNL     1     -12.109  -1.174  14.207  0.00  0.00    +0.000 HD
ATOM     36  H   UNL     1     -11.223  -0.537  16.381  0.00  0.00    +0.000 HD
ENDROOT
TORSDOF 0
ENDMDL
MODEL 2
REMARK VINA RESULT:   -11.661      1.791      6.245
REMARK INTER + INTRA:         -11.661
REMARK INTER:                 -11.661
REMARK INTRA:                   0.000
REMARK UNBOUND:                 0.000
REMARK  Name = 
REMARK  0 active torsions:
REMARK  status: ('A' for Active; 'I' for Inactive)
REMARK                            x       y       z     vdW  Elec       q    Type
REMARK                         _______ _______ _______ _____ _____    ______ ____
ROOT
ATOM      1  O   UNL     1      -9.507  -2.866  19.205  0.00  0.00    +0.000 OA
ATOM      2  C   UNL     1      -9.398  -4.070  19.030  0.00  0.00    +0.000 C 
ATOM      3  N   UNL     1      -8.847  -4.878  19.967  0.00  0.00    +0.000 N 
ATOM      4  C   UNL     1      -8.815  -6.212  19.692  0.00  0.00    +0.000 C 
ATOM      5  O   UNL     1      -8.377  -6.966  20.545  0.00  0.00    +0.000 OA
ATOM      6  C   UNL     1      -9.375  -6.328  18.373  0.00  0.00    +0.000 A 
ATOM      7  C   UNL     1      -9.738  -4.982  17.980  0.00  0.00    +0.000 A 
ATOM      8  C   UNL     1     -10.336  -4.745  16.723  0.00  0.00    +0.000 A 
ATOM      9  C   UNL     1     -10.754  -3.527  16.186  0.00  0.00    +0.000 A 
ATOM     10  C   UNL     1     -10.795  -2.164  16.541  0.00  0.00    +0.000 A 
ATOM     11  C   UNL     1     -11.328  -1.220  15.657  0.00  0.00    +0.000 A 
ATOM     12  C   UNL     1     -11.823  -1.609  14.420  0.00  0.00    +0.000 A 
ATOM     13  C   UNL     1     -11.800  -2.952  14.030  0.00  0.00    +0.000 A 
ATOM     14  C   UNL     1     -11.265  -3.893  14.924  0.00  0.00    +0.000 A 
ATOM     15  N   UNL     1     -11.127  -5.274  14.780  0.00  0.00    +0.000 N 
ATOM     16  C   UNL     1     -10.550  -5.799  15.904  0.00  0.00    +0.000 A 
ATOM     17  C   UNL     1     -10.204  -7.080  16.265  0.00  0.00    +0.000 A 
ATOM     18  N   UNL     1     -10.352  -8.230  15.564  0.00  0.00    +0.000 N 
ATOM     19  C   UNL     1      -9.869  -9.295  16.303  0.00  0.00    +0.000 A 
ATOM     20  C   UNL     1      -9.853 -10.642  15.902  0.00  0.00    +0.000 A 
ATOM     21  C   UNL     1      -9.333 -11.591  16.762  0.00  0.00    +0.000 A 
ATOM     22  C   UNL     1      -8.839 -11.196  17.988  0.00  0.00    +0.000 A 
ATOM     23  C   UNL     1      -8.845  -9.842  18.401  0.00  0.00    +0.000 A 
ATOM     24 BR   UNL     1      -8.079  -9.668  20.115  0.00  0.00    +0.000 Br
ATOM     25  C   UNL     1      -9.376  -8.820  17.555  0.00  0.00    +0.000 A 
ATOM     26  C   UNL     1      -9.623  -7.416  17.460  0.00  0.00    +0.000 A 
ATOM     27  H   UNL     1      -8.526  -4.523  20.851  0.00  0.00    +0.000 HD
ATOM     28  H   UNL     1     -10.423  -1.807  17.494  0.00  0.00    +0.000 HD
ATOM     29  H   UNL     1     -11.351  -0.172  15.950  0.00  0.00    +0.000 HD
ATOM     30  H   UNL     1     -12.233  -0.857  13.749  0.00  0.00    +0.000 HD
ATOM     31  H   UNL     1     -12.191  -3.245  13.061  0.00  0.00    +0.000 HD
ATOM     32  H   UNL     1     -11.419  -5.786  13.961  0.00  0.00    +0.000 HD
ATOM     33  H   UNL     1     -10.750  -8.319  14.641  0.00  0.00    +0.000 HD
ATOM     34  H   UNL     1     -10.242 -10.945  14.934  0.00  0.00    +0.000 HD
ATOM     35  H   UNL     1      -9.307 -12.640  16.480  0.00  0.00    +0.000 HD
ATOM     36  H   UNL     1      -8.432 -11.964  18.646  0.00  0.00    +0.000 HD
ENDROOT
TORSDOF 0
ENDMDL
MODEL 3
REMARK VINA RESULT:   -11.574      0.888      0.964
REMARK INTER + INTRA:         -11.574
REMARK INTER:                 -11.574
REMARK INTRA:                   0.000
REMARK UNBOUND:                 0.000
REMARK  Name = 
REMARK  0 active torsions:
REMARK  status: ('A' for Active; 'I' for Inactive)
REMARK                            x       y       z     vdW  Elec       q    Type
REMARK                         _______ _______ _______ _____ _____    ______ ____
ROOT
ATOM      1  O   UNL     1      -8.299  -6.973  20.310  0.00  0.00    +0.000 OA
ATOM      2  C   UNL     1      -8.797  -6.129  19.580  0.00  0.00    +0.000 C 
ATOM      3  N   UNL     1      -8.841  -4.823  19.931  0.00  0.00    +0.000 N 
ATOM      4  C   UNL     1      -9.375  -3.956  19.026  0.00  0.00    +0.000 C 
ATOM      5  O   UNL     1      -9.373  -2.767  19.294  0.00  0.00    +0.000 OA
ATOM      6  C   UNL     1      -9.796  -4.786  17.928  0.00  0.00    +0.000 A 
ATOM      7  C   UNL     1      -9.420  -6.137  18.292  0.00  0.00    +0.000 A 
ATOM      8  C   UNL     1      -9.684  -7.209  17.411  0.00  0.00    +0.000 A 
ATOM      9  C   UNL     1      -9.388  -8.561  17.590  0.00  0.00    +0.000 A 
ATOM     10  C   UNL     1      -8.790  -9.403  18.548  0.00  0.00    +0.000 A 
ATOM     11  C   UNL     1      -8.692 -10.779  18.316  0.00  0.00    +0.000 A 
ATOM     12  C   UNL     1      -9.180 -11.335  17.141  0.00  0.00    +0.000 A 
ATOM     13  C   UNL     1      -9.781 -10.534  16.165  0.00  0.00    +0.000 A 
ATOM     14  C   UNL     1      -9.874  -9.153  16.406  0.00  0.00    +0.000 A 
ATOM     15  N   UNL     1     -10.419  -8.149  15.606  0.00  0.00    +0.000 N 
ATOM     16  C   UNL     1     -10.296  -6.940  16.236  0.00  0.00    +0.000 A 
ATOM     17  C   UNL     1     -10.662  -5.662  15.884  0.00  0.00    +0.000 A 
ATOM     18  N   UNL     1     -11.276  -5.233  14.755  0.00  0.00    +0.000 N 
ATOM     19  C   UNL     1     -11.457  -3.863  14.811  0.00  0.00    +0.000 A 
ATOM     20  C   UNL     1     -12.060  -3.067  13.822  0.00  0.00    +0.000 A 
ATOM     21  C   UNL     1     -12.164  -1.704  14.031  0.00  0.00    +0.000 A 
ATOM     22  C   UNL     1     -11.680  -1.160  15.204  0.00  0.00    +0.000 A 
ATOM     23  C   UNL     1     -11.076  -1.952  16.208  0.00  0.00    +0.000 A 
ATOM     24 BR   UNL     1     -10.552  -0.883  17.670  0.00  0.00    +0.000 Br
ATOM     25  C   UNL     1     -10.935  -3.365  16.042  0.00  0.00    +0.000 A 
ATOM     26  C   UNL     1     -10.449  -4.555  16.665  0.00  0.00    +0.000 A 
ATOM     27  H   UNL     1      -8.448  -4.492  20.795  0.00  0.00    +0.000 HD
ATOM     28  H   UNL     1      -8.393  -9.020  19.481  0.00  0.00    +0.000 HD
ATOM     29  H   UNL     1      -8.227 -11.413  19.068  0.00  0.00    +0.000 HD
ATOM     30  H   UNL     1      -9.093 -12.408  16.982  0.00  0.00    +0.000 HD
ATOM     31  H   UNL     1     -10.158 -10.979  15.250  0.00  0.00    +0.000 HD
ATOM     32  H   UNL     1     -10.834  -8.314  14.701  0.00  0.00    +0.000 HD
ATOM     33  H   UNL     1     -11.567  -5.810  13.979  0.00  0.00    +0.000 HD
ATOM     34  H   UNL     1     -12.441  -3.503  12.903  0.00  0.00    +0.000 HD
ATOM     35  H   UNL     1     -12.625  -1.062  13.286  0.00  0.00    +0.000 HD
ATOM     36  H   UNL     1     -11.777  -0.083  15.344  0.00  0.00    +0.000 HD
ENDROOT
TORSDOF 0
ENDMDL
MODEL 4
REMARK VINA RESULT:   -11.357      2.619      6.631
REMARK INTER + INTRA:         -11.357
REMARK INTER:                 -11.357
REMARK INTRA:                   0.000
REMARK UNBOUND:                 0.000
REMARK  Name = 
REMARK  0 active torsions:
REMARK  status: ('A' for Active; 'I' for Inactive)
REMARK                            x       y       z     vdW  Elec       q    Type
REMARK                         _______ _______ _______ _____ _____    ______ ____
ROOT
ATOM      1  O   UNL     1      -8.929  -6.292  20.514  0.00  0.00    +0.000 OA
ATOM      2  C   UNL     1      -8.848  -7.352  19.912  0.00  0.00    +0.000 C 
ATOM      3  N   UNL     1      -8.452  -8.490  20.529  0.00  0.00    +0.000 N 
ATOM      4  C   UNL     1      -8.439  -9.628  19.778  0.00  0.00    +0.000 C 
ATOM      5  O   UNL     1      -8.143 -10.676  20.326  0.00  0.00    +0.000 OA
ATOM      6  C   UNL     1      -8.835  -9.203  18.462  0.00  0.00    +0.000 A 
ATOM      7  C   UNL     1      -9.090  -7.781  18.569  0.00  0.00    +0.000 A 
ATOM      8  C   UNL     1      -9.515  -7.049  17.438  0.00  0.00    +0.000 A 
ATOM      9  C   UNL     1      -9.813  -5.688  17.358  0.00  0.00    +0.000 A 
ATOM     10  C   UNL     1      -9.843  -4.553  18.192  0.00  0.00    +0.000 A 
ATOM     11  C   UNL     1     -10.223  -3.309  17.678  0.00  0.00    +0.000 A 
ATOM     12  C   UNL     1     -10.574  -3.173  16.341  0.00  0.00    +0.000 A 
ATOM     13  C   UNL     1     -10.557  -4.275  15.481  0.00  0.00    +0.000 A 
ATOM     14  C   UNL     1     -10.176  -5.520  16.006  0.00  0.00    +0.000 A 
ATOM     15  N   UNL     1     -10.078  -6.758  15.370  0.00  0.00    +0.000 N 
ATOM     16  C   UNL     1      -9.668  -7.706  16.267  0.00  0.00    +0.000 A 
ATOM     17  C   UNL     1      -9.422  -9.055  16.154  0.00  0.00    +0.000 A 
ATOM     18  N   UNL     1      -9.527  -9.850  15.062  0.00  0.00    +0.000 N 
ATOM     19  C   UNL     1      -9.184 -11.148  15.392  0.00  0.00    +0.000 A 
ATOM     20  C   UNL     1      -9.173 -12.250  14.519  0.00  0.00    +0.000 A 
ATOM     21  C   UNL     1      -8.804 -13.488  15.008  0.00  0.00    +0.000 A 
ATOM     22  C   UNL     1      -8.452 -13.615  16.337  0.00  0.00    +0.000 A 
ATOM     23  C   UNL     1      -8.455 -12.512  17.224  0.00  0.00    +0.000 A 
ATOM     24 BR   UNL     1      -7.903 -13.046  18.947  0.00  0.00    +0.000 Br
ATOM     25  C   UNL     1      -8.834 -11.210  16.774  0.00  0.00    +0.000 A 
ATOM     26  C   UNL     1      -9.010  -9.854  17.189  0.00  0.00    +0.000 A 
ATOM     27  H   UNL     1      -8.230  -8.514  21.509  0.00  0.00    +0.000 HD
ATOM     28  H   UNL     1      -9.579  -4.605  19.242  0.00  0.00    +0.000 HD
ATOM     29  H   UNL     1     -10.239  -2.444  18.338  0.00  0.00    +0.000 HD
ATOM     30  H   UNL     1     -10.866  -2.195  15.964  0.00  0.00    +0.000 HD
ATOM     31  H   UNL     1     -10.835  -4.157  14.438  0.00  0.00    +0.000 HD
ATOM     32  H   UNL     1     -10.286  -6.906  14.393  0.00  0.00    +0.000 HD
ATOM     33  H   UNL     1      -9.811  -9.559  14.138  0.00  0.00    +0.000 HD
ATOM     34  H   UNL     1      -9.450 -12.141  13.474  0.00  0.00    +0.000 HD
ATOM     35  H   UNL     1      -8.786 -14.359  14.358  0.00  0.00    +0.000 HD
ATOM     36  H   UNL     1      -8.163 -14.603  16.696  0.00  0.00    +0.000 HD
ENDROOT
TORSDOF 0
ENDMDL
MODEL 5
REMARK VINA RESULT:   -11.271      2.263      4.057
REMARK INTER + INTRA:         -11.271
REMARK INTER:                 -11.271
REMARK INTRA:                   0.000
REMARK UNBOUND:                 0.000
REMARK  Name = 
REMARK  0 active torsions:
REMARK  status: ('A' for Active; 'I' for Inactive)
REMARK                            x       y       z     vdW  Elec       q    Type
REMARK                         _______ _______ _______ _____ _____    ______ ____
ROOT
ATOM      1  O   UNL     1     -11.117  -9.021  15.435  0.00  0.00    +0.000 OA
ATOM      2  C   UNL     1     -10.823  -8.036  16.094  0.00  0.00    +0.000 C 
ATOM      3  N   UNL     1     -11.278  -6.802  15.770  0.00  0.00    +0.000 N 
ATOM      4  C   UNL     1     -10.929  -5.777  16.596  0.00  0.00    +0.000 C 
ATOM      5  O   UNL     1     -11.374  -4.667  16.358  0.00  0.00    +0.000 OA
ATOM      6  C   UNL     1     -10.085  -6.380  17.593  0.00  0.00    +0.000 A 
ATOM      7  C   UNL     1     -10.037  -7.791  17.265  0.00  0.00    +0.000 A 
ATOM      8  C   UNL     1      -9.291  -8.682  18.067  0.00  0.00    +0.000 A 
ATOM      9  C   UNL     1      -9.140 -10.060  17.908  0.00  0.00    +0.000 A 
ATOM     10  C   UNL     1      -9.563 -11.085  17.040  0.00  0.00    +0.000 A 
ATOM     11  C   UNL     1      -9.155 -12.406  17.255  0.00  0.00    +0.000 A 
ATOM     12  C   UNL     1      -8.328 -12.725  18.323  0.00  0.00    +0.000 A 
ATOM     13  C   UNL     1      -7.884 -11.737  19.207  0.00  0.00    +0.000 A 
ATOM     14  C   UNL     1      -8.301 -10.414  18.985  0.00  0.00    +0.000 A 
ATOM     15  N   UNL     1      -8.006  -9.259  19.709  0.00  0.00    +0.000 N 
ATOM     16  C   UNL     1      -8.627  -8.183  19.134  0.00  0.00    +0.000 A 
ATOM     17  C   UNL     1      -8.662  -6.846  19.451  0.00  0.00    +0.000 A 
ATOM     18  N   UNL     1      -8.056  -6.198  20.475  0.00  0.00    +0.000 N 
ATOM     19  C   UNL     1      -8.358  -4.850  20.422  0.00  0.00    +0.000 A 
ATOM     20  C   UNL     1      -7.909  -3.864  21.318  0.00  0.00    +0.000 A 
ATOM     21  C   UNL     1      -8.304  -2.554  21.125  0.00  0.00    +0.000 A 
ATOM     22  C   UNL     1      -9.123  -2.243  20.058  0.00  0.00    +0.000 A 
ATOM     23  C   UNL     1      -9.577  -3.225  19.147  0.00  0.00    +0.000 A 
ATOM     24 BR   UNL     1     -10.656  -2.443  17.812  0.00  0.00    +0.000 Br
ATOM     25  C   UNL     1      -9.206  -4.596  19.302  0.00  0.00    +0.000 A 
ATOM     26  C   UNL     1      -9.356  -5.901  18.739  0.00  0.00    +0.000 A 
ATOM     27  H   UNL     1     -11.891  -6.652  14.987  0.00  0.00    +0.000 HD
ATOM     28  H   UNL     1     -10.210 -10.889  16.192  0.00  0.00    +0.000 HD
ATOM     29  H   UNL     1      -9.493 -13.183  16.573  0.00  0.00    +0.000 HD
ATOM     30  H   UNL     1      -8.022 -13.759  18.470  0.00  0.00    +0.000 HD
ATOM     31  H   UNL     1      -7.239 -11.999  20.039  0.00  0.00    +0.000 HD
ATOM     32  H   UNL     1      -7.421  -9.245  20.531  0.00  0.00    +0.000 HD
ATOM     33  H   UNL     1      -7.469  -6.617  21.181  0.00  0.00    +0.000 HD
ATOM     34  H   UNL     1      -7.263  -4.117  22.154  0.00  0.00    +0.000 HD
ATOM     35  H   UNL     1      -7.974  -1.769  21.801  0.00  0.00    +0.000 HD
ATOM     36  H   UNL     1      -9.418  -1.201  19.928  0.00  0.00    +0.000 HD
ENDROOT
TORSDOF 0
ENDMDL
MODEL 6
REMARK VINA RESULT:   -10.631      2.151      4.011
REMARK INTER + INTRA:         -10.631
REMARK INTER:                 -10.631
REMARK INTRA:                   0.000
REMARK UNBOUND:                 0.000
REMARK  Name = 
REMARK  0 active torsions:
REMARK  status: ('A' for Active; 'I' for Inactive)
REMARK                            x       y       z     vdW  Elec       q    Type
REMARK                         _______ _______ _______ _____ _____    ______ ____
ROOT
ATOM      1  O   UNL     1     -11.001  -8.264  15.667  0.00  0.00    +0.000 OA
ATOM      2  C   UNL     1     -10.761  -7.227  16.266  0.00  0.00    +0.000 C 
ATOM      3  N   UNL     1     -11.237  -6.033  15.840  0.00  0.00    +0.000 N 
ATOM      4  C   UNL     1     -10.950  -4.944  16.606  0.00  0.00    +0.000 C 
ATOM      5  O   UNL     1     -11.416  -3.867  16.275  0.00  0.00    +0.000 OA
ATOM      6  C   UNL     1     -10.129  -5.451  17.672  0.00  0.00    +0.000 A 
ATOM      7  C   UNL     1     -10.028  -6.879  17.445  0.00  0.00    +0.000 A 
ATOM      8  C   UNL     1      -9.289  -7.689  18.334  0.00  0.00    +0.000 A 
ATOM      9  C   UNL     1      -9.093  -9.070  18.277  0.00  0.00    +0.000 A 
ATOM     10  C   UNL     1      -9.453 -10.164  17.467  0.00  0.00    +0.000 A 
ATOM     11  C   UNL     1      -9.017 -11.454  17.788  0.00  0.00    +0.000 A 
ATOM     12  C   UNL     1      -8.223 -11.675  18.905  0.00  0.00    +0.000 A 
ATOM     13  C   UNL     1      -7.842 -10.615  19.734  0.00  0.00    +0.000 A 
ATOM     14  C   UNL     1      -8.286  -9.324  19.405  0.00  0.00    +0.000 A 
ATOM     15  N   UNL     1      -8.052  -8.113  20.058  0.00  0.00    +0.000 N 
ATOM     16  C   UNL     1      -8.680  -7.099  19.387  0.00  0.00    +0.000 A 
ATOM     17  C   UNL     1      -8.765  -5.745  19.609  0.00  0.00    +0.000 A 
ATOM     18  N   UNL     1      -8.218  -5.010  20.607  0.00  0.00    +0.000 N 
ATOM     19  C   UNL     1      -8.556  -3.679  20.449  0.00  0.00    +0.000 A 
ATOM     20  C   UNL     1      -8.169  -2.621  21.291  0.00  0.00    +0.000 A 
ATOM     21  C   UNL     1      -8.593  -1.339  20.993  0.00  0.00    +0.000 A 
ATOM     22  C   UNL     1      -9.379  -1.127  19.878  0.00  0.00    +0.000 A 
ATOM     23  C   UNL     1      -9.770  -2.183  19.021  0.00  0.00    +0.000 A 
ATOM     24 BR   UNL     1     -10.817  -1.528  17.597  0.00  0.00    +0.000 Br
ATOM     25  C   UNL     1      -9.366  -3.529  19.284  0.00  0.00    +0.000 A 
ATOM     26  C   UNL     1      -9.458  -4.873  18.809  0.00  0.00    +0.000 A 
ATOM     27  H   UNL     1     -11.824  -5.955  15.027  0.00  0.00    +0.000 HD
ATOM     28  H   UNL     1     -10.072 -10.047  16.585  0.00  0.00    +0.000 HD
ATOM     29  H   UNL     1      -9.306 -12.287  17.150  0.00  0.00    +0.000 HD
ATOM     30  H   UNL     1      -7.894 -12.686  19.135  0.00  0.00    +0.000 HD
ATOM     31  H   UNL     1      -7.222 -10.799  20.605  0.00  0.00    +0.000 HD
ATOM     32  H   UNL     1      -7.500  -8.025  20.898  0.00  0.00    +0.000 HD
ATOM     33  H   UNL     1      -7.647  -5.362  21.362  0.00  0.00    +0.000 HD
ATOM     34  H   UNL     1      -7.549  -2.796  22.165  0.00  0.00    +0.000 HD
ATOM     35  H   UNL     1      -8.311  -0.501  21.624  0.00  0.00    +0.000 HD
ATOM     36  H   UNL     1      -9.697  -0.107  19.665  0.00  0.00    +0.000 HD
ENDROOT
TORSDOF 0
ENDMDL
MODEL 7
REMARK VINA RESULT:   -10.558      2.399      4.638
REMARK INTER + INTRA:         -10.558
REMARK INTER:                 -10.558
REMARK INTRA:                   0.000
REMARK UNBOUND:                 0.000
REMARK  Name = 
REMARK  0 active torsions:
REMARK  status: ('A' for Active; 'I' for Inactive)
REMARK                            x       y       z     vdW  Elec       q    Type
REMARK                         _______ _______ _______ _____ _____    ______ ____
ROOT
ATOM      1  O   UNL     1     -11.669  -5.518  15.589  0.00  0.00    +0.000 OA
ATOM      2  C   UNL     1     -11.138  -4.897  16.497  0.00  0.00    +0.000 C 
ATOM      3  N   UNL     1     -11.325  -3.564  16.650  0.00  0.00    +0.000 N 
ATOM      4  C   UNL     1     -10.725  -2.975  17.722  0.00  0.00    +0.000 C 
ATOM      5  O   UNL     1     -10.926  -1.787  17.914  0.00  0.00    +0.000 OA
ATOM      6  C   UNL     1      -9.993  -4.035  18.361  0.00  0.00    +0.000 A 
ATOM      7  C   UNL     1     -10.269  -5.227  17.585  0.00  0.00    +0.000 A 
ATOM      8  C   UNL     1      -9.703  -6.466  17.959  0.00  0.00    +0.000 A 
ATOM      9  C   UNL     1      -9.864  -7.705  17.339  0.00  0.00    +0.000 A 
ATOM     10  C   UNL     1     -10.539  -8.266  16.237  0.00  0.00    +0.000 A 
ATOM     11  C   UNL     1     -10.421  -9.632  15.958  0.00  0.00    +0.000 A 
ATOM     12  C   UNL     1      -9.640 -10.453  16.759  0.00  0.00    +0.000 A 
ATOM     13  C   UNL     1      -8.953  -9.935  17.861  0.00  0.00    +0.000 A 
ATOM     14  C   UNL     1      -9.079  -8.564  18.135  0.00  0.00    +0.000 A 
ATOM     15  N   UNL     1      -8.507  -7.809  19.160  0.00  0.00    +0.000 N 
ATOM     16  C   UNL     1      -8.901  -6.504  19.046  0.00  0.00    +0.000 A 
ATOM     17  C   UNL     1      -8.628  -5.378  19.787  0.00  0.00    +0.000 A 
ATOM     18  N   UNL     1      -7.853  -5.253  20.890  0.00  0.00    +0.000 N 
ATOM     19  C   UNL     1      -7.854  -3.937  21.318  0.00  0.00    +0.000 A 
ATOM     20  C   UNL     1      -7.162  -3.428  22.431  0.00  0.00    +0.000 A 
ATOM     21  C   UNL     1      -7.267  -2.081  22.725  0.00  0.00    +0.000 A 
ATOM     22  C   UNL     1      -8.043  -1.270  21.922  0.00  0.00    +0.000 A 
ATOM     23  C   UNL     1      -8.740  -1.771  20.797  0.00  0.00    +0.000 A 
ATOM     24 BR   UNL     1      -9.676  -0.385  19.926  0.00  0.00    +0.000 Br
ATOM     25  C   UNL     1      -8.672  -3.155  20.449  0.00  0.00    +0.000 A 
ATOM     26  C   UNL     1      -9.128  -4.131  19.510  0.00  0.00    +0.000 A 
ATOM     27  H   UNL     1     -11.923  -3.038  16.037  0.00  0.00    +0.000 HD
ATOM     28  H   UNL     1     -11.162  -7.670  15.581  0.00  0.00    +0.000 HD
ATOM     29  H   UNL     1     -10.950 -10.046  15.101  0.00  0.00    +0.000 HD
ATOM     30  H   UNL     1      -9.563 -11.512  16.522  0.00  0.00    +0.000 HD
ATOM     31  H   UNL     1      -8.346 -10.587  18.481  0.00  0.00    +0.000 HD
ATOM     32  H   UNL     1      -7.899  -8.192  19.869  0.00  0.00    +0.000 HD
ATOM     33  H   UNL     1      -7.342  -5.994  21.347  0.00  0.00    +0.000 HD
ATOM     34  H   UNL     1      -6.552  -4.072  23.057  0.00  0.00    +0.000 HD
ATOM     35  H   UNL     1      -6.745  -1.658  23.579  0.00  0.00    +0.000 HD
ATOM     36  H   UNL     1      -8.107  -0.212  22.176  0.00  0.00    +0.000 HD
ENDROOT
TORSDOF 0
ENDMDL
MODEL 8
REMARK VINA RESULT:   -10.397      3.672      7.773
REMARK INTER + INTRA:         -10.397
REMARK INTER:                 -10.397
REMARK INTRA:                   0.000
REMARK UNBOUND:                 0.000
REMARK  Name = 
REMARK  0 active torsions:
REMARK  status: ('A' for Active; 'I' for Inactive)
REMARK                            x       y       z     vdW  Elec       q    Type
REMARK                         _______ _______ _______ _____ _____    ______ ____
ROOT
ATOM      1  O   UNL     1      -9.136  -6.401  15.099  0.00  0.00    +0.000 OA
ATOM      2  C   UNL     1      -9.089  -7.589  15.380  0.00  0.00    +0.000 C 
ATOM      3  N   UNL     1      -9.194  -8.548  14.430  0.00  0.00    +0.000 N 
ATOM      4  C   UNL     1      -9.083  -9.842  14.843  0.00  0.00    +0.000 C 
ATOM      5  O   UNL     1      -9.116 -10.722  13.999  0.00  0.00    +0.000 OA
ATOM      6  C   UNL     1      -8.927  -9.759  16.271  0.00  0.00    +0.000 A 
ATOM      7  C   UNL     1      -8.927  -8.345  16.584  0.00  0.00    +0.000 A 
ATOM      8  C   UNL     1      -8.777  -7.914  17.921  0.00  0.00    +0.000 A 
ATOM      9  C   UNL     1      -8.746  -6.605  18.403  0.00  0.00    +0.000 A 
ATOM     10  C   UNL     1      -8.831  -5.287  17.912  0.00  0.00    +0.000 A 
ATOM     11  C   UNL     1      -8.749  -4.200  18.790  0.00  0.00    +0.000 A 
ATOM     12  C   UNL     1      -8.584  -4.403  20.153  0.00  0.00    +0.000 A 
ATOM     13  C   UNL     1      -8.496  -5.696  20.680  0.00  0.00    +0.000 A 
ATOM     14  C   UNL     1      -8.578  -6.780  19.791  0.00  0.00    +0.000 A 
ATOM     15  N   UNL     1      -8.518  -8.148  20.056  0.00  0.00    +0.000 N 
ATOM     16  C   UNL     1      -8.641  -8.850  18.887  0.00  0.00    +0.000 A 
ATOM     17  C   UNL     1      -8.645 -10.194  18.600  0.00  0.00    +0.000 A 
ATOM     18  N   UNL     1      -8.521 -11.245  19.447  0.00  0.00    +0.000 N 
ATOM     19  C   UNL     1      -8.578 -12.430  18.736  0.00  0.00    +0.000 A 
ATOM     20  C   UNL     1      -8.486 -13.725  19.275  0.00  0.00    +0.000 A 
ATOM     21  C   UNL     1      -8.562 -14.811  18.424  0.00  0.00    +0.000 A 
ATOM     22  C   UNL     1      -8.730 -14.602  17.070  0.00  0.00    +0.000 A 
ATOM     23  C   UNL     1      -8.829 -13.303  16.517  0.00  0.00    +0.000 A 
ATOM     24 BR   UNL     1      -9.071 -13.396  14.649  0.00  0.00    +0.000 Br
ATOM     25  C   UNL     1      -8.751 -12.144  17.348  0.00  0.00    +0.000 A 
ATOM     26  C   UNL     1      -8.781 -10.715  17.339  0.00  0.00    +0.000 A 
ATOM     27  H   UNL     1      -9.295  -8.322  13.456  0.00  0.00    +0.000 HD
ATOM     28  H   UNL     1      -8.959  -5.073  16.857  0.00  0.00    +0.000 HD
ATOM     29  H   UNL     1      -8.816  -3.190  18.392  0.00  0.00    +0.000 HD
ATOM     30  H   UNL     1      -8.523  -3.543  20.817  0.00  0.00    +0.000 HD
ATOM     31  H   UNL     1      -8.367  -5.842  21.747  0.00  0.00    +0.000 HD
ATOM     32  H   UNL     1      -8.400  -8.538  20.979  0.00  0.00    +0.000 HD
ATOM     33  H   UNL     1      -8.404 -11.193  20.448  0.00  0.00    +0.000 HD
ATOM     34  H   UNL     1      -8.356 -13.881  20.342  0.00  0.00    +0.000 HD
ATOM     35  H   UNL     1      -8.494 -15.825  18.811  0.00  0.00    +0.000 HD
ATOM     36  H   UNL     1      -8.788 -15.476  16.423  0.00  0.00    +0.000 HD
ENDROOT
TORSDOF 0
ENDMDL
MODEL 9
REMARK VINA RESULT:    -9.289      2.160      3.537
REMARK INTER + INTRA:          -9.289
REMARK INTER:                  -9.289
REMARK INTRA:                   0.000
REMARK UNBOUND:                 0.000
REMARK  Name = 
REMARK  0 active torsions:
REMARK  status: ('A' for Active; 'I' for Inactive)
REMARK                            x       y       z     vdW  Elec       q    Type
REMARK                         _______ _______ _______ _____ _____    ______ ____
ROOT
ATOM      1  O   UNL     1      -9.406  -3.575  19.821  0.00  0.00    +0.000 OA
ATOM      2  C   UNL     1      -9.918  -3.202  18.777  0.00  0.00    +0.000 C 
ATOM      3  N   UNL     1     -10.265  -1.908  18.578  0.00  0.00    +0.000 N 
ATOM      4  C   UNL     1     -10.788  -1.588  17.361  0.00  0.00    +0.000 C 
ATOM      5  O   UNL     1     -11.053  -0.419  17.137  0.00  0.00    +0.000 OA
ATOM      6  C   UNL     1     -10.850  -2.837  16.649  0.00  0.00    +0.000 A 
ATOM      7  C   UNL     1     -10.298  -3.829  17.547  0.00  0.00    +0.000 A 
ATOM      8  C   UNL     1     -10.202  -5.179  17.142  0.00  0.00    +0.000 A 
ATOM      9  C   UNL     1      -9.694  -6.259  17.866  0.00  0.00    +0.000 A 
ATOM     10  C   UNL     1      -9.125  -6.523  19.127  0.00  0.00    +0.000 A 
ATOM     11  C   UNL     1      -8.733  -7.822  19.466  0.00  0.00    +0.000 A 
ATOM     12  C   UNL     1      -8.899  -8.869  18.569  0.00  0.00    +0.000 A 
ATOM     13  C   UNL     1      -9.462  -8.648  17.308  0.00  0.00    +0.000 A 
ATOM     14  C   UNL     1      -9.850  -7.341  16.975  0.00  0.00    +0.000 A 
ATOM     15  N   UNL     1     -10.427  -6.860  15.799  0.00  0.00    +0.000 N 
ATOM     16  C   UNL     1     -10.642  -5.513  15.908  0.00  0.00    +0.000 A 
ATOM     17  C   UNL     1     -11.173  -4.579  15.050  0.00  0.00    +0.000 A 
ATOM     18  N   UNL     1     -11.652  -4.753  13.795  0.00  0.00    +0.000 N 
ATOM     19  C   UNL     1     -12.092  -3.543  13.289  0.00  0.00    +0.000 A 
ATOM     20  C   UNL     1     -12.654  -3.333  12.017  0.00  0.00    +0.000 A 
ATOM     21  C   UNL     1     -13.045  -2.055  11.662  0.00  0.00    +0.000 A 
ATOM     22  C   UNL     1     -12.879  -1.021  12.561  0.00  0.00    +0.000 A 
ATOM     23  C   UNL     1     -12.320  -1.222  13.845  0.00  0.00    +0.000 A 
ATOM     24 BR   UNL     1     -12.265   0.400  14.805  0.00  0.00    +0.000 Br
ATOM     25  C   UNL     1     -11.893  -2.520  14.263  0.00  0.00    +0.000 A 
ATOM     26  C   UNL     1     -11.307  -3.247  15.345  0.00  0.00    +0.000 A 
ATOM     27  H   UNL     1     -10.096  -1.201  19.271  0.00  0.00    +0.000 HD
ATOM     28  H   UNL     1      -8.972  -5.743  19.863  0.00  0.00    +0.000 HD
ATOM     29  H   UNL     1      -8.294  -8.006  20.446  0.00  0.00    +0.000 HD
ATOM     30  H   UNL     1      -8.588  -9.871  18.855  0.00  0.00    +0.000 HD
ATOM     31  H   UNL     1      -9.586  -9.474  16.615  0.00  0.00    +0.000 HD
ATOM     32  H   UNL     1     -10.642  -7.439  15.001  0.00  0.00    +0.000 HD
ATOM     33  H   UNL     1     -11.692  -5.625  13.288  0.00  0.00    +0.000 HD
ATOM     34  H   UNL     1     -12.782  -4.153  11.317  0.00  0.00    +0.000 HD
ATOM     35  H   UNL     1     -13.482  -1.860  10.686  0.00  0.00    +0.000 HD
ATOM     36  H   UNL     1     -13.198  -0.024  12.255  0.00  0.00    +0.000 HD
ENDROOT
TORSDOF 0
ENDMDL
