
 OpenBabel01112422123D

 53 58  0  0  0  0  0  0  0  0999 V2000
    3.2929    0.6829    1.1399 C   0  0  0  0  0  0  0  0  0  0  0  0
    4.7485    0.5895    1.0165 N   0  0  0  0  0  0  0  0  0  0  0  0
    5.2650   -0.3258    2.0417 C   0  0  0  0  0  0  0  0  0  0  0  0
    5.1730    0.1274   -0.3134 C   0  0  0  0  0  0  0  0  0  0  0  0
    4.8315    1.0902   -1.4581 C   0  0  0  0  0  0  0  0  0  0  0  0
    5.4519    2.4947   -1.3462 C   0  0  0  0  0  0  0  0  0  0  0  0
    6.9076    2.5403   -1.4337 N   0  0  0  0  0  0  0  0  0  0  0  0
    7.6553    2.0781   -2.5322 C   0  0  0  0  0  0  0  0  0  0  0  0
    7.2375    1.6437   -3.8092 C   0  0  0  0  0  0  0  0  0  0  0  0
    8.2010    1.1774   -4.7062 C   0  0  0  0  0  0  0  0  0  0  0  0
    9.5514    1.1720   -4.3660 C   0  0  0  0  0  0  0  0  0  0  0  0
    9.9597    1.5946   -3.1092 C   0  0  0  0  0  0  0  0  0  0  0  0
    9.0179    2.0378   -2.1655 C   0  0  0  0  0  0  0  0  0  0  0  0
    8.9930    2.4435   -0.8411 C   0  0  0  0  0  0  0  0  0  0  0  0
   10.1001    2.5575    0.0354 C   0  0  0  0  0  0  0  0  0  0  0  0
    9.8401    2.7346    1.4256 C   0  0  0  0  0  0  0  0  0  0  0  0
    8.4802    2.8430    1.8573 C   0  0  0  0  0  0  0  0  0  0  0  0
    8.1349    3.3440    3.1029 C   0  0  0  0  0  0  0  0  0  0  0  0
    8.1495    2.9300    4.4434 C   0  0  0  0  0  0  0  0  0  0  0  0
    7.7291    3.8403    5.4172 C   0  0  0  0  0  0  0  0  0  0  0  0
    7.4493    5.1623    5.0688 C   0  0  0  0  0  0  0  0  0  0  0  0
    7.2990    5.5382    3.7269 C   0  0  0  0  0  0  0  0  0  0  0  0
    7.4459    4.5186    2.7810 C   0  0  0  0  0  0  0  0  0  0  0  0
    6.9752    4.3530    1.4725 N   0  0  0  0  0  0  0  0  0  0  0  0
    7.6365    3.2989    0.8893 C   0  0  0  0  0  0  0  0  0  0  0  0
    7.7674    2.8368   -0.4055 C   0  0  0  0  0  0  0  0  0  0  0  0
   11.0887    2.9250    2.0972 C   0  0  0  0  0  0  0  0  0  0  0  0
   11.4011    3.2251    3.2415 O   0  0  0  0  0  0  0  0  0  0  0  0
   12.0101    2.7622    1.0924 N   0  0  0  0  0  0  0  0  0  0  0  0
   11.5125    2.6024   -0.1729 C   0  0  0  0  0  0  0  0  0  0  0  0
   12.2346    2.6020   -1.1651 O   0  0  0  0  0  0  0  0  0  0  0  0
    3.0170    1.0246    2.1440 H   0  0  0  0  0  0  0  0  0  0  0  0
    2.7972   -0.2768    0.9542 H   0  0  0  0  0  0  0  0  0  0  0  0
    2.8817    1.4261    0.4503 H   0  0  0  0  0  0  0  0  0  0  0  0
    4.9941    0.0245    3.0439 H   0  0  0  0  0  0  0  0  0  0  0  0
    6.3592   -0.3688    2.0096 H   0  0  0  0  0  0  0  0  0  0  0  0
    4.8762   -1.3441    1.9176 H   0  0  0  0  0  0  0  0  0  0  0  0
    4.7220   -0.8507   -0.5341 H   0  0  0  0  0  0  0  0  0  0  0  0
    6.2592   -0.0312   -0.3176 H   0  0  0  0  0  0  0  0  0  0  0  0
    3.7436    1.1943   -1.5448 H   0  0  0  0  0  0  0  0  0  0  0  0
    5.1403    0.6062   -2.3900 H   0  0  0  0  0  0  0  0  0  0  0  0
    5.1411    2.9788   -0.4153 H   0  0  0  0  0  0  0  0  0  0  0  0
    5.0810    3.1200   -2.1675 H   0  0  0  0  0  0  0  0  0  0  0  0
    6.1912    1.6396   -4.0959 H   0  0  0  0  0  0  0  0  0  0  0  0
    7.8965    0.8073   -5.6792 H   0  0  0  0  0  0  0  0  0  0  0  0
   10.2917    0.8114   -5.0744 H   0  0  0  0  0  0  0  0  0  0  0  0
   11.0259    1.5539   -2.8633 H   0  0  0  0  0  0  0  0  0  0  0  0
    8.3747    1.8999    4.7023 H   0  0  0  0  0  0  0  0  0  0  0  0
    7.6349    3.5185    6.4514 H   0  0  0  0  0  0  0  0  0  0  0  0
    7.2758    5.8941    5.8548 H   0  0  0  0  0  0  0  0  0  0  0  0
    7.0282    6.5519    3.4555 H   0  0  0  0  0  0  0  0  0  0  0  0
    6.3525    4.9970    1.0084 H   0  0  0  0  0  0  0  0  0  0  0  0
   12.9883    2.9395    1.2436 H   0  0  0  0  0  0  0  0  0  0  0  0
  1  2  1  0  0  0  0
  1 32  1  0  0  0  0
  1 33  1  0  0  0  0
  1 34  1  0  0  0  0
  2  3  1  0  0  0  0
  2  4  1  0  0  0  0
  3 35  1  0  0  0  0
  3 36  1  0  0  0  0
  3 37  1  0  0  0  0
  4  5  1  0  0  0  0
  4 38  1  0  0  0  0
  4 39  1  0  0  0  0
  5  6  1  0  0  0  0
  5 40  1  0  0  0  0
  5 41  1  0  0  0  0
  6  7  1  0  0  0  0
  6 42  1  0  0  0  0
  6 43  1  0  0  0  0
  7  8  1  0  0  0  0
  7 26  1  0  0  0  0
  8  9  1  0  0  0  0
  8 13  2  0  0  0  0
  9 10  2  0  0  0  0
  9 44  1  0  0  0  0
 10 11  1  0  0  0  0
 10 45  1  0  0  0  0
 11 12  2  0  0  0  0
 11 46  1  0  0  0  0
 12 13  1  0  0  0  0
 12 47  1  0  0  0  0
 13 14  1  0  0  0  0
 14 15  1  0  0  0  0
 14 26  2  0  0  0  0
 15 16  2  0  0  0  0
 15 30  1  0  0  0  0
 16 17  1  0  0  0  0
 16 27  1  0  0  0  0
 17 18  1  0  0  0  0
 17 25  2  0  0  0  0
 18 19  1  0  0  0  0
 18 23  2  0  0  0  0
 19 20  2  0  0  0  0
 19 48  1  0  0  0  0
 20 21  1  0  0  0  0
 20 49  1  0  0  0  0
 21 22  2  0  0  0  0
 21 50  1  0  0  0  0
 22 23  1  0  0  0  0
 22 51  1  0  0  0  0
 23 24  1  0  0  0  0
 24 25  1  0  0  0  0
 24 52  1  0  0  0  0
 25 26  1  0  0  0  0
 27 28  2  0  0  0  0
 27 29  1  0  0  0  0
 29 30  1  0  0  0  0
 29 53  1  0  0  0  0
 30 31  2  0  0  0  0
M  END
$$$$
