REMARK  Name = 
REMARK  7 active torsions:
REMARK  status: ('A' for Active; 'I' for Inactive)
REMARK    1  A    between atoms: C_1  and  O_2
REMARK    2  A    between atoms: O_2  and  C_3
REMARK    3  A    between atoms: C_7  and  C_8
REMARK    4  A    between atoms: C_8  and  C_9
REMARK    5  A    between atoms: C_8  and  N_10
REMARK    6  A    between atoms: C_11  and  C_13
REMARK    7  A    between atoms: C_16  and  C_17
REMARK                            x       y       z     vdW  Elec       q    Type
REMARK                         _______ _______ _______ _____ _____    ______ ____
ROOT
ATOM      1  N   UNL     1      -0.128  -0.114  -1.544  0.00  0.00    +0.000 N 
ATOM      2  C   UNL     1       1.193   0.284  -1.606  0.00  0.00    +0.000 C 
ATOM      3  O   UNL     1       1.841   0.326  -2.645  0.00  0.00    +0.000 OA
ATOM      4  H   UNL     1      -0.665   0.043  -0.703  0.00  0.00    +0.000 HD
ENDROOT
BRANCH   2   5
ATOM      5  C   UNL     1       1.825   0.688  -0.326  0.00  0.00    +0.000 A 
ATOM      6  C   UNL     1       1.385   0.238   0.915  0.00  0.00    +0.000 A 
ATOM      7  C   UNL     1       2.058   0.637   2.070  0.00  0.00    +0.000 A 
ATOM      8  C   UNL     1       3.169   1.480   1.973  0.00  0.00    +0.000 A 
ATOM      9  N   UNL     1       3.615   1.915   0.766  0.00  0.00    +0.000 NA
ATOM     10  C   UNL     1       2.943   1.510  -0.348  0.00  0.00    +0.000 A 
ATOM     11  H   UNL     1       0.553  -0.454   1.007  0.00  0.00    +0.000 HD
ATOM     12  H   UNL     1       1.727   0.255   3.030  0.00  0.00    +0.000 HD
ATOM     13  H   UNL     1       3.352   1.882  -1.285  0.00  0.00    +0.000 HD
BRANCH   8  14
ATOM     14  C   UNL     1       3.954   1.903   3.151  0.00  0.00    +0.000 A 
ATOM     15  C   UNL     1       5.322   2.197   3.044  0.00  0.00    +0.000 A 
ATOM     16  C   UNL     1       6.042   2.538   4.180  0.00  0.00    +0.000 A 
ATOM     17  N   UNL     1       5.505   2.615   5.413  0.00  0.00    +0.000 NA
ATOM     18  C   UNL     1       4.188   2.355   5.503  0.00  0.00    +0.000 A 
ATOM     19  F   UNL     1       3.624   2.425   6.717  0.00  0.00    +0.000 F 
ATOM     20  C   UNL     1       3.386   2.009   4.428  0.00  0.00    +0.000 A 
ATOM     21  H   UNL     1       5.829   2.148   2.083  0.00  0.00    +0.000 HD
ATOM     22  H   UNL     1       7.104   2.757   4.122  0.00  0.00    +0.000 HD
ATOM     23  H   UNL     1       2.333   1.834   4.613  0.00  0.00    +0.000 HD
ENDBRANCH   8  14
ENDBRANCH   2   5
BRANCH   1  24
ATOM     24  C   UNL     1      -0.863  -0.512  -2.735  0.00  0.00    +0.000 C 
ATOM     25  H   UNL     1      -0.169  -1.083  -3.366  0.00  0.00    +0.000 HD
BRANCH  24  30
ATOM     26  C   UNL     1      -4.253  -1.712  -1.368  0.00  0.00    +0.000 A 
ATOM     27  C   UNL     1      -4.254  -3.040  -1.788  0.00  0.00    +0.000 A 
ATOM     28  C   UNL     1      -3.154  -3.555  -2.478  0.00  0.00    +0.000 A 
ATOM     29  C   UNL     1      -2.054  -2.744  -2.760  0.00  0.00    +0.000 A 
ATOM     30  C   UNL     1      -2.039  -1.400  -2.363  0.00  0.00    +0.000 A 
ATOM     31  C   UNL     1      -3.144  -0.905  -1.648  0.00  0.00    +0.000 A 
ATOM     32  H   UNL     1      -5.093  -3.701  -1.600  0.00  0.00    +0.000 HD
ATOM     33  H   UNL     1      -3.160  -4.592  -2.808  0.00  0.00    +0.000 HD
ATOM     34  H   UNL     1      -1.213  -3.167  -3.307  0.00  0.00    +0.000 HD
ATOM     35  H   UNL     1      -3.164   0.132  -1.318  0.00  0.00    +0.000 HD
BRANCH  26  36
ATOM     36  O   UNL     1      -5.263  -1.079  -0.696  0.00  0.00    +0.000 OA
BRANCH  36  37
ATOM     37  C   UNL     1      -6.439  -1.837  -0.437  0.00  0.00    +0.000 C 
ATOM     38  H   UNL     1      -7.180  -1.164   0.005  0.00  0.00    +0.000 HD
ATOM     39  H   UNL     1      -6.234  -2.634   0.286  0.00  0.00    +0.000 HD
ATOM     40  H   UNL     1      -6.870  -2.241  -1.359  0.00  0.00    +0.000 HD
ENDBRANCH  36  37
ENDBRANCH  26  36
ENDBRANCH  24  30
BRANCH  24  41
ATOM     41  C   UNL     1      -1.317   0.705  -3.546  0.00  0.00    +0.000 C 
ATOM     42  H   UNL     1      -1.977   1.360  -2.967  0.00  0.00    +0.000 HD
ATOM     43  H   UNL     1      -1.858   0.393  -4.446  0.00  0.00    +0.000 HD
ATOM     44  H   UNL     1      -0.460   1.311  -3.861  0.00  0.00    +0.000 HD
ENDBRANCH  24  41
ENDBRANCH   1  24
TORSDOF 7
