MODEL 1
REMARK VINA RESULT:   -10.607      0.000      0.000
REMARK INTER + INTRA:         -16.140
REMARK INTER:                 -15.258
REMARK INTRA:                  -0.881
REMARK UNBOUND:                -0.881
REMARK  Name = 
REMARK  9 active torsions:
REMARK  status: ('A' for Active; 'I' for Inactive)
REMARK    1  A    between atoms: C_1  and  C_2
REMARK    2  A    between atoms: C_2  and  N_3
REMARK    3  A    between atoms: N_3  and  C_4
REMARK    4  A    between atoms: N_3  and  C_6
REMARK    5  A    between atoms: C_4  and  C_5
REMARK    6  A    between atoms: C_6  and  C_7
REMARK    7  A    between atoms: C_7  and  C_8
REMARK    8  A    between atoms: C_8  and  C_9
REMARK    9  A    between atoms: N_23  and  C_24
REMARK                            x       y       z     vdW  Elec       q    Type
REMARK                         _______ _______ _______ _____ _____    ______ ____
ROOT
ATOM      1  C   UNL     1      -8.377  -3.163  20.988  0.00  0.00    +0.000 A 
ATOM      2  C   UNL     1      -8.875  -1.941  20.510  0.00  0.00    +0.000 A 
ATOM      3  C   UNL     1      -9.630  -1.872  19.345  0.00  0.00    +0.000 A 
ATOM      4  C   UNL     1      -9.889  -3.022  18.589  0.00  0.00    +0.000 A 
ATOM      5  C   UNL     1      -9.382  -4.270  19.002  0.00  0.00    +0.000 A 
ATOM      6  C   UNL     1      -8.656  -4.301  20.203  0.00  0.00    +0.000 A 
ATOM      7  N   UNL     1      -8.329  -5.620  20.458  0.00  0.00    +0.000 N 
ATOM      8  C   UNL     1      -8.759  -6.460  19.454  0.00  0.00    +0.000 A 
ATOM      9  C   UNL     1      -8.675  -7.849  19.276  0.00  0.00    +0.000 A 
ATOM     10  C   UNL     1      -8.087  -8.539  20.336  0.00  0.00    +0.000 A 
ATOM     11  C   UNL     1      -8.057  -9.912  20.314  0.00  0.00    +0.000 A 
ATOM     12  C   UNL     1      -8.432 -10.587  19.147  0.00  0.00    +0.000 A 
ATOM     13  C   UNL     1      -8.392 -11.973  18.887  0.00  0.00    +0.000 A 
ATOM     14  C   UNL     1      -8.273 -12.038  17.533  0.00  0.00    +0.000 A 
ATOM     15  N   UNL     1      -8.962 -10.935  17.058  0.00  0.00    +0.000 N 
ATOM     16  C   UNL     1      -8.922  -9.900  17.996  0.00  0.00    +0.000 A 
ATOM     17  C   UNL     1      -9.203  -8.486  18.088  0.00  0.00    +0.000 A 
ATOM     18  C   UNL     1      -9.898  -7.584  17.234  0.00  0.00    +0.000 A 
ATOM     19  C   UNL     1      -9.994  -6.145  17.437  0.00  0.00    +0.000 A 
ATOM     20  C   UNL     1      -9.379  -5.613  18.585  0.00  0.00    +0.000 A 
ATOM     21  C   UNL     1     -10.803  -5.538  16.406  0.00  0.00    +0.000 C 
ATOM     22  O   UNL     1     -11.251  -4.416  16.191  0.00  0.00    +0.000 OA
ATOM     23  N   UNL     1     -11.073  -6.607  15.601  0.00  0.00    +0.000 N 
ATOM     24  C   UNL     1     -10.761  -7.855  16.110  0.00  0.00    +0.000 C 
ATOM     25  O   UNL     1     -11.310  -8.863  15.681  0.00  0.00    +0.000 OA
ATOM     26  H   UNL     1      -8.695  -1.028  21.075  0.00  0.00    +0.000 HD
ATOM     27  H   UNL     1     -10.034  -0.915  19.025  0.00  0.00    +0.000 HD
ATOM     28  H   UNL     1     -10.495  -2.915  17.696  0.00  0.00    +0.000 HD
ATOM     29  H   UNL     1      -7.852  -5.921  21.295  0.00  0.00    +0.000 HD
ATOM     30  H   UNL     1      -7.679  -8.046  21.210  0.00  0.00    +0.000 HD
ATOM     31  H   UNL     1      -7.650 -10.468  21.153  0.00  0.00    +0.000 HD
ATOM     32  H   UNL     1      -8.213 -12.774  19.588  0.00  0.00    +0.000 HD
ATOM     33  H   UNL     1      -7.969 -12.851  16.886  0.00  0.00    +0.000 HD
ATOM     34  H   UNL     1     -11.755  -6.529  14.870  0.00  0.00    +0.000 HD
ENDROOT
BRANCH  15  35
ATOM     35  C   UNL     1      -9.698 -11.150  15.839  0.00  0.00    +0.000 C 
ATOM     36  H   UNL     1     -10.748 -11.309  16.007  0.00  0.00    +0.000 HD
ATOM     37  H   UNL     1      -9.191 -11.966  15.307  0.00  0.00    +0.000 HD
ATOM     38  H   UNL     1      -9.613 -10.252  15.208  0.00  0.00    +0.000 HD
ENDBRANCH  15  35
BRANCH   1  39
ATOM     39  C   UNL     1      -7.658  -3.218  22.316  0.00  0.00    +0.000 C 
ATOM     40  H   UNL     1      -8.175  -3.882  23.017  0.00  0.00    +0.000 HD
ATOM     41  H   UNL     1      -6.669  -3.669  22.159  0.00  0.00    +0.000 HD
BRANCH  39  42
ATOM     42  C   UNL     1      -7.488  -1.831  22.945  0.00  0.00    +0.000 C 
ATOM     43  H   UNL     1      -6.463  -1.730  23.316  0.00  0.00    +0.000 HD
ATOM     44  H   UNL     1      -7.587  -1.060  22.171  0.00  0.00    +0.000 HD
BRANCH  42  45
ATOM     45  C   UNL     1      -8.500  -1.516  24.062  0.00  0.00    +0.000 C 
ATOM     46  H   UNL     1      -7.981  -0.915  24.820  0.00  0.00    +0.000 HD
ATOM     47  H   UNL     1      -9.281  -0.869  23.643  0.00  0.00    +0.000 HD
BRANCH  45  48
ATOM     48  N   UNL     1      -9.132  -2.697  24.688  0.00  0.00    +0.000 NA
BRANCH  48  49
ATOM     49  C   UNL     1      -8.556  -2.971  26.015  0.00  0.00    +0.000 C 
ATOM     50  H   UNL     1      -8.995  -3.896  26.402  0.00  0.00    +0.000 HD
ATOM     51  H   UNL     1      -7.474  -3.135  25.956  0.00  0.00    +0.000 HD
BRANCH  49  52
ATOM     52  C   UNL     1      -8.853  -1.913  27.071  0.00  0.00    +0.000 C 
ATOM     53  H   UNL     1      -9.370  -1.067  26.606  0.00  0.00    +0.000 HD
ATOM     54  H   UNL     1      -7.930  -1.531  27.522  0.00  0.00    +0.000 HD
ATOM     55  H   UNL     1      -9.501  -2.301  27.861  0.00  0.00    +0.000 HD
ENDBRANCH  49  52
ENDBRANCH  48  49
BRANCH  48  56
ATOM     56  C   UNL     1     -10.603  -2.558  24.692  0.00  0.00    +0.000 C 
ATOM     57  H   UNL     1     -10.906  -1.874  25.494  0.00  0.00    +0.000 HD
ATOM     58  H   UNL     1     -11.047  -3.521  24.979  0.00  0.00    +0.000 HD
BRANCH  56  59
ATOM     59  C   UNL     1     -11.251  -2.105  23.385  0.00  0.00    +0.000 C 
ATOM     60  H   UNL     1     -10.574  -1.505  22.769  0.00  0.00    +0.000 HD
ATOM     61  H   UNL     1     -12.131  -1.489  23.598  0.00  0.00    +0.000 HD
ATOM     62  H   UNL     1     -11.589  -2.962  22.792  0.00  0.00    +0.000 HD
ENDBRANCH  56  59
ENDBRANCH  48  56
ENDBRANCH  45  48
ENDBRANCH  42  45
ENDBRANCH  39  42
ENDBRANCH   1  39
TORSDOF 9
ENDMDL
MODEL 2
REMARK VINA RESULT:   -10.591      3.945      6.611
REMARK INTER + INTRA:         -16.116
REMARK INTER:                 -15.192
REMARK INTRA:                  -0.924
REMARK UNBOUND:                -0.881
REMARK  Name = 
REMARK  9 active torsions:
REMARK  status: ('A' for Active; 'I' for Inactive)
REMARK    1  A    between atoms: C_1  and  C_2
REMARK    2  A    between atoms: C_2  and  N_3
REMARK    3  A    between atoms: N_3  and  C_4
REMARK    4  A    between atoms: N_3  and  C_6
REMARK    5  A    between atoms: C_4  and  C_5
REMARK    6  A    between atoms: C_6  and  C_7
REMARK    7  A    between atoms: C_7  and  C_8
REMARK    8  A    between atoms: C_8  and  C_9
REMARK    9  A    between atoms: N_23  and  C_24
REMARK                            x       y       z     vdW  Elec       q    Type
REMARK                         _______ _______ _______ _____ _____    ______ ____
ROOT
ATOM      1  C   UNL     1     -10.686  -4.649  15.726  0.00  0.00    +0.000 A 
ATOM      2  C   UNL     1     -10.721  -3.611  16.670  0.00  0.00    +0.000 A 
ATOM      3  C   UNL     1     -10.326  -3.814  17.987  0.00  0.00    +0.000 A 
ATOM      4  C   UNL     1      -9.913  -5.079  18.424  0.00  0.00    +0.000 A 
ATOM      5  C   UNL     1      -9.893  -6.167  17.529  0.00  0.00    +0.000 A 
ATOM      6  C   UNL     1     -10.264  -5.908  16.199  0.00  0.00    +0.000 A 
ATOM      7  N   UNL     1     -10.095  -7.080  15.485  0.00  0.00    +0.000 N 
ATOM      8  C   UNL     1      -9.679  -8.118  16.290  0.00  0.00    +0.000 A 
ATOM      9  C   UNL     1      -9.368  -9.461  16.025  0.00  0.00    +0.000 A 
ATOM     10  C   UNL     1      -9.442  -9.822  14.681  0.00  0.00    +0.000 A 
ATOM     11  C   UNL     1      -9.048 -11.081  14.298  0.00  0.00    +0.000 A 
ATOM     12  C   UNL     1      -8.774 -12.041  15.279  0.00  0.00    +0.000 A 
ATOM     13  C   UNL     1      -8.443 -13.401  15.104  0.00  0.00    +0.000 A 
ATOM     14  C   UNL     1      -8.856 -13.980  16.264  0.00  0.00    +0.000 A 
ATOM     15  N   UNL     1      -8.679 -13.008  17.234  0.00  0.00    +0.000 N 
ATOM     16  C   UNL     1      -8.811 -11.735  16.673  0.00  0.00    +0.000 A 
ATOM     17  C   UNL     1      -8.969 -10.360  17.087  0.00  0.00    +0.000 A 
ATOM     18  C   UNL     1      -8.814  -9.709  18.343  0.00  0.00    +0.000 A 
ATOM     19  C   UNL     1      -9.123  -8.310  18.603  0.00  0.00    +0.000 A 
ATOM     20  C   UNL     1      -9.579  -7.537  17.519  0.00  0.00    +0.000 A 
ATOM     21  C   UNL     1      -8.814  -7.965  19.971  0.00  0.00    +0.000 C 
ATOM     22  O   UNL     1      -8.802  -6.932  20.632  0.00  0.00    +0.000 OA
ATOM     23  N   UNL     1      -8.427  -9.171  20.479  0.00  0.00    +0.000 N 
ATOM     24  C   UNL     1      -8.205 -10.183  19.561  0.00  0.00    +0.000 C 
ATOM     25  O   UNL     1      -7.490 -11.139  19.840  0.00  0.00    +0.000 OA
ATOM     26  H   UNL     1     -11.034  -2.614  16.363  0.00  0.00    +0.000 HD
ATOM     27  H   UNL     1     -10.329  -2.978  18.682  0.00  0.00    +0.000 HD
ATOM     28  H   UNL     1      -9.602  -5.181  19.458  0.00  0.00    +0.000 HD
ATOM     29  H   UNL     1     -10.240  -7.147  14.489  0.00  0.00    +0.000 HD
ATOM     30  H   UNL     1      -9.761  -9.142  13.901  0.00  0.00    +0.000 HD
ATOM     31  H   UNL     1      -9.050 -11.365  13.250  0.00  0.00    +0.000 HD
ATOM     32  H   UNL     1      -8.191 -13.909  14.185  0.00  0.00    +0.000 HD
ATOM     33  H   UNL     1      -9.039 -15.018  16.513  0.00  0.00    +0.000 HD
ATOM     34  H   UNL     1      -7.999  -9.225  21.384  0.00  0.00    +0.000 HD
ENDROOT
BRANCH  15  35
ATOM     35  C   UNL     1      -8.226 -13.494  18.513  0.00  0.00    +0.000 C 
ATOM     36  H   UNL     1      -8.916 -13.280  19.310  0.00  0.00    +0.000 HD
ATOM     37  H   UNL     1      -7.216 -13.090  18.661  0.00  0.00    +0.000 HD
ATOM     38  H   UNL     1      -8.132 -14.589  18.464  0.00  0.00    +0.000 HD
ENDBRANCH  15  35
BRANCH   1  39
ATOM     39  C   UNL     1     -11.012  -4.365  14.278  0.00  0.00    +0.000 C 
ATOM     40  H   UNL     1     -11.111  -5.294  13.706  0.00  0.00    +0.000 HD
ATOM     41  H   UNL     1     -11.998  -3.884  14.231  0.00  0.00    +0.000 HD
BRANCH  39  42
ATOM     42  C   UNL     1      -9.973  -3.456  13.614  0.00  0.00    +0.000 C 
ATOM     43  H   UNL     1      -9.066  -3.440  14.228  0.00  0.00    +0.000 HD
ATOM     44  H   UNL     1      -9.658  -3.889  12.657  0.00  0.00    +0.000 HD
BRANCH  42  45
ATOM     45  C   UNL     1     -10.467  -2.022  13.346  0.00  0.00    +0.000 C 
ATOM     46  H   UNL     1      -9.854  -1.341  13.951  0.00  0.00    +0.000 HD
ATOM     47  H   UNL     1     -10.251  -1.775  12.299  0.00  0.00    +0.000 HD
BRANCH  45  48
ATOM     48  N   UNL     1     -11.903  -1.793  13.613  0.00  0.00    +0.000 NA
BRANCH  48  49
ATOM     49  C   UNL     1     -12.098  -0.739  14.622  0.00  0.00    +0.000 C 
ATOM     50  H   UNL     1     -11.161  -0.606  15.174  0.00  0.00    +0.000 HD
ATOM     51  H   UNL     1     -12.329   0.225  14.155  0.00  0.00    +0.000 HD
BRANCH  49  52
ATOM     52  C   UNL     1     -13.147  -1.055  15.681  0.00  0.00    +0.000 C 
ATOM     53  H   UNL     1     -13.192  -2.137  15.842  0.00  0.00    +0.000 HD
ATOM     54  H   UNL     1     -14.143  -0.724  15.367  0.00  0.00    +0.000 HD
ATOM     55  H   UNL     1     -12.905  -0.589  16.641  0.00  0.00    +0.000 HD
ENDBRANCH  49  52
ENDBRANCH  48  49
BRANCH  48  56
ATOM     56  C   UNL     1     -12.633  -1.553  12.351  0.00  0.00    +0.000 C 
ATOM     57  H   UNL     1     -12.072  -0.846  11.729  0.00  0.00    +0.000 HD
ATOM     58  H   UNL     1     -13.569  -1.025  12.580  0.00  0.00    +0.000 HD
BRANCH  56  59
ATOM     59  C   UNL     1     -12.975  -2.785  11.514  0.00  0.00    +0.000 C 
ATOM     60  H   UNL     1     -12.102  -3.196  11.000  0.00  0.00    +0.000 HD
ATOM     61  H   UNL     1     -13.712  -2.523  10.747  0.00  0.00    +0.000 HD
ATOM     62  H   UNL     1     -13.415  -3.575  12.133  0.00  0.00    +0.000 HD
ENDBRANCH  56  59
ENDBRANCH  48  56
ENDBRANCH  45  48
ENDBRANCH  42  45
ENDBRANCH  39  42
ENDBRANCH   1  39
TORSDOF 9
ENDMDL
MODEL 3
REMARK VINA RESULT:    -9.705      2.968      9.129
REMARK INTER + INTRA:         -14.841
REMARK INTER:                 -14.279
REMARK INTRA:                  -0.562
REMARK UNBOUND:                -0.881
REMARK  Name = 
REMARK  9 active torsions:
REMARK  status: ('A' for Active; 'I' for Inactive)
REMARK    1  A    between atoms: C_1  and  C_2
REMARK    2  A    between atoms: C_2  and  N_3
REMARK    3  A    between atoms: N_3  and  C_4
REMARK    4  A    between atoms: N_3  and  C_6
REMARK    5  A    between atoms: C_4  and  C_5
REMARK    6  A    between atoms: C_6  and  C_7
REMARK    7  A    between atoms: C_7  and  C_8
REMARK    8  A    between atoms: C_8  and  C_9
REMARK    9  A    between atoms: N_23  and  C_24
REMARK                            x       y       z     vdW  Elec       q    Type
REMARK                         _______ _______ _______ _____ _____    ______ ____
ROOT
ATOM      1  C   UNL     1      -9.387  -8.761  17.726  0.00  0.00    +0.000 A 
ATOM      2  C   UNL     1      -8.751  -9.374  18.817  0.00  0.00    +0.000 A 
ATOM      3  C   UNL     1      -8.301  -8.634  19.904  0.00  0.00    +0.000 A 
ATOM      4  C   UNL     1      -8.438  -7.240  19.928  0.00  0.00    +0.000 A 
ATOM      5  C   UNL     1      -9.035  -6.568  18.843  0.00  0.00    +0.000 A 
ATOM      6  C   UNL     1      -9.509  -7.358  17.783  0.00  0.00    +0.000 A 
ATOM      7  N   UNL     1     -10.124  -6.513  16.878  0.00  0.00    +0.000 N 
ATOM      8  C   UNL     1     -10.034  -5.193  17.263  0.00  0.00    +0.000 A 
ATOM      9  C   UNL     1     -10.507  -4.002  16.691  0.00  0.00    +0.000 A 
ATOM     10  C   UNL     1     -11.259  -4.171  15.529  0.00  0.00    +0.000 A 
ATOM     11  C   UNL     1     -11.863  -3.081  14.952  0.00  0.00    +0.000 A 
ATOM     12  C   UNL     1     -11.552  -1.799  15.418  0.00  0.00    +0.000 A 
ATOM     13  C   UNL     1     -11.988  -0.555  14.913  0.00  0.00    +0.000 A 
ATOM     14  C   UNL     1     -10.999   0.302  15.284  0.00  0.00    +0.000 A 
ATOM     15  N   UNL     1     -10.522  -0.197  16.484  0.00  0.00    +0.000 N 
ATOM     16  C   UNL     1     -10.684  -1.584  16.529  0.00  0.00    +0.000 A 
ATOM     17  C   UNL     1     -10.246  -2.719  17.308  0.00  0.00    +0.000 A 
ATOM     18  C   UNL     1      -9.597  -2.829  18.570  0.00  0.00    +0.000 A 
ATOM     19  C   UNL     1      -9.126  -4.072  19.164  0.00  0.00    +0.000 A 
ATOM     20  C   UNL     1      -9.361  -5.259  18.446  0.00  0.00    +0.000 A 
ATOM     21  C   UNL     1      -8.550  -3.830  20.466  0.00  0.00    +0.000 C 
ATOM     22  O   UNL     1      -8.119  -4.530  21.377  0.00  0.00    +0.000 OA
ATOM     23  N   UNL     1      -8.621  -2.470  20.551  0.00  0.00    +0.000 N 
ATOM     24  C   UNL     1      -9.391  -1.833  19.594  0.00  0.00    +0.000 C 
ATOM     25  O   UNL     1      -9.849  -0.715  19.798  0.00  0.00    +0.000 OA
ATOM     26  H   UNL     1      -8.631 -10.457  18.833  0.00  0.00    +0.000 HD
ATOM     27  H   UNL     1      -7.848  -9.146  20.750  0.00  0.00    +0.000 HD
ATOM     28  H   UNL     1      -8.082  -6.712  20.805  0.00  0.00    +0.000 HD
ATOM     29  H   UNL     1     -10.598  -6.840  16.050  0.00  0.00    +0.000 HD
ATOM     30  H   UNL     1     -11.429  -5.137  15.068  0.00  0.00    +0.000 HD
ATOM     31  H   UNL     1     -12.495  -3.200  14.076  0.00  0.00    +0.000 HD
ATOM     32  H   UNL     1     -12.759  -0.371  14.180  0.00  0.00    +0.000 HD
ATOM     33  H   UNL     1     -10.755   1.298  14.936  0.00  0.00    +0.000 HD
ATOM     34  H   UNL     1      -8.434  -2.007  21.420  0.00  0.00    +0.000 HD
ENDROOT
BRANCH  15  35
ATOM     35  C   UNL     1     -10.155   0.798  17.459  0.00  0.00    +0.000 C 
ATOM     36  H   UNL     1     -10.877   1.591  17.540  0.00  0.00    +0.000 HD
ATOM     37  H   UNL     1      -9.140   1.128  17.203  0.00  0.00    +0.000 HD
ATOM     38  H   UNL     1     -10.099   0.322  18.450  0.00  0.00    +0.000 HD
ENDBRANCH  15  35
BRANCH   1  39
ATOM     39  C   UNL     1      -9.965  -9.608  16.616  0.00  0.00    +0.000 C 
ATOM     40  H   UNL     1     -11.008  -9.339  16.417  0.00  0.00    +0.000 HD
ATOM     41  H   UNL     1      -9.423  -9.383  15.688  0.00  0.00    +0.000 HD
BRANCH  39  42
ATOM     42  C   UNL     1      -9.863 -11.107  16.913  0.00  0.00    +0.000 C 
ATOM     43  H   UNL     1      -9.645 -11.247  17.977  0.00  0.00    +0.000 HD
ATOM     44  H   UNL     1     -10.840 -11.582  16.760  0.00  0.00    +0.000 HD
BRANCH  42  45
ATOM     45  C   UNL     1      -8.831 -11.854  16.048  0.00  0.00    +0.000 C 
ATOM     46  H   UNL     1      -9.329 -12.146  15.114  0.00  0.00    +0.000 HD
ATOM     47  H   UNL     1      -8.044 -11.144  15.765  0.00  0.00    +0.000 HD
BRANCH  45  48
ATOM     48  N   UNL     1      -8.212 -13.035  16.690  0.00  0.00    +0.000 NA
BRANCH  48  49
ATOM     49  C   UNL     1      -8.243 -12.923  18.157  0.00  0.00    +0.000 C 
ATOM     50  H   UNL     1      -7.213 -12.861  18.525  0.00  0.00    +0.000 HD
ATOM     51  H   UNL     1      -8.747 -12.004  18.478  0.00  0.00    +0.000 HD
BRANCH  49  52
ATOM     52  C   UNL     1      -8.857 -14.117  18.877  0.00  0.00    +0.000 C 
ATOM     53  H   UNL     1      -8.254 -14.363  19.757  0.00  0.00    +0.000 HD
ATOM     54  H   UNL     1      -8.880 -15.002  18.232  0.00  0.00    +0.000 HD
ATOM     55  H   UNL     1      -9.872 -13.902  19.223  0.00  0.00    +0.000 HD
ENDBRANCH  49  52
ENDBRANCH  48  49
BRANCH  48  56
ATOM     56  C   UNL     1      -8.814 -14.281  16.173  0.00  0.00    +0.000 C 
ATOM     57  H   UNL     1      -9.844 -14.372  16.537  0.00  0.00    +0.000 HD
ATOM     58  H   UNL     1      -8.293 -15.137  16.626  0.00  0.00    +0.000 HD
BRANCH  56  59
ATOM     59  C   UNL     1      -8.807 -14.467  14.657  0.00  0.00    +0.000 C 
ATOM     60  H   UNL     1      -9.811 -14.612  14.249  0.00  0.00    +0.000 HD
ATOM     61  H   UNL     1      -8.215 -15.350  14.391  0.00  0.00    +0.000 HD
ATOM     62  H   UNL     1      -8.351 -13.606  14.155  0.00  0.00    +0.000 HD
ENDBRANCH  56  59
ENDBRANCH  48  56
ENDBRANCH  45  48
ENDBRANCH  42  45
ENDBRANCH  39  42
ENDBRANCH   1  39
TORSDOF 9
ENDMDL
MODEL 4
REMARK VINA RESULT:    -9.467      2.948      9.326
REMARK INTER + INTRA:         -14.499
REMARK INTER:                 -14.047
REMARK INTRA:                  -0.453
REMARK UNBOUND:                -0.881
REMARK  Name = 
REMARK  9 active torsions:
REMARK  status: ('A' for Active; 'I' for Inactive)
REMARK    1  A    between atoms: C_1  and  C_2
REMARK    2  A    between atoms: C_2  and  N_3
REMARK    3  A    between atoms: N_3  and  C_4
REMARK    4  A    between atoms: N_3  and  C_6
REMARK    5  A    between atoms: C_4  and  C_5
REMARK    6  A    between atoms: C_6  and  C_7
REMARK    7  A    between atoms: C_7  and  C_8
REMARK    8  A    between atoms: C_8  and  C_9
REMARK    9  A    between atoms: N_23  and  C_24
REMARK                            x       y       z     vdW  Elec       q    Type
REMARK                         _______ _______ _______ _____ _____    ______ ____
ROOT
ATOM      1  C   UNL     1      -9.510  -8.082  17.741  0.00  0.00    +0.000 A 
ATOM      2  C   UNL     1      -8.716  -8.790  18.657  0.00  0.00    +0.000 A 
ATOM      3  C   UNL     1      -8.106  -8.154  19.731  0.00  0.00    +0.000 A 
ATOM      4  C   UNL     1      -8.235  -6.771  19.913  0.00  0.00    +0.000 A 
ATOM      5  C   UNL     1      -8.989  -6.004  19.003  0.00  0.00    +0.000 A 
ATOM      6  C   UNL     1      -9.619  -6.693  17.954  0.00  0.00    +0.000 A 
ATOM      7  N   UNL     1     -10.363  -5.772  17.240  0.00  0.00    +0.000 N 
ATOM      8  C   UNL     1     -10.214  -4.494  17.735  0.00  0.00    +0.000 A 
ATOM      9  C   UNL     1     -10.766  -3.260  17.361  0.00  0.00    +0.000 A 
ATOM     10  C   UNL     1     -11.686  -3.325  16.316  0.00  0.00    +0.000 A 
ATOM     11  C   UNL     1     -12.369  -2.192  15.947  0.00  0.00    +0.000 A 
ATOM     12  C   UNL     1     -11.989  -0.957  16.484  0.00  0.00    +0.000 A 
ATOM     13  C   UNL     1     -12.495   0.324  16.177  0.00  0.00    +0.000 A 
ATOM     14  C   UNL     1     -11.460   1.154  16.477  0.00  0.00    +0.000 A 
ATOM     15  N   UNL     1     -10.806   0.547  17.536  0.00  0.00    +0.000 N 
ATOM     16  C   UNL     1     -10.962  -0.840  17.468  0.00  0.00    +0.000 A 
ATOM     17  C   UNL     1     -10.412  -2.040  18.056  0.00  0.00    +0.000 A 
ATOM     18  C   UNL     1      -9.580  -2.264  19.188  0.00  0.00    +0.000 A 
ATOM     19  C   UNL     1      -9.026  -3.553  19.578  0.00  0.00    +0.000 A 
ATOM     20  C   UNL     1      -9.369  -4.667  18.790  0.00  0.00    +0.000 A 
ATOM     21  C   UNL     1      -8.259  -3.432  20.796  0.00  0.00    +0.000 C 
ATOM     22  O   UNL     1      -7.696  -4.211  21.557  0.00  0.00    +0.000 OA
ATOM     23  N   UNL     1      -8.314  -2.087  21.024  0.00  0.00    +0.000 N 
ATOM     24  C   UNL     1      -9.219  -1.370  20.262  0.00  0.00    +0.000 C 
ATOM     25  O   UNL     1      -9.639  -0.283  20.642  0.00  0.00    +0.000 OA
ATOM     26  H   UNL     1      -8.597  -9.867  18.548  0.00  0.00    +0.000 HD
ATOM     27  H   UNL     1      -7.530  -8.739  20.444  0.00  0.00    +0.000 HD
ATOM     28  H   UNL     1      -7.750  -6.326  20.775  0.00  0.00    +0.000 HD
ATOM     29  H   UNL     1     -10.959  -6.022  16.465  0.00  0.00    +0.000 HD
ATOM     30  H   UNL     1     -11.926  -4.243  15.793  0.00  0.00    +0.000 HD
ATOM     31  H   UNL     1     -13.127  -2.233  15.170  0.00  0.00    +0.000 HD
ATOM     32  H   UNL     1     -13.367   0.569  15.591  0.00  0.00    +0.000 HD
ATOM     33  H   UNL     1     -11.270   2.182  16.195  0.00  0.00    +0.000 HD
ATOM     34  H   UNL     1      -7.996  -1.709  21.896  0.00  0.00    +0.000 HD
ENDROOT
BRANCH  15  35
ATOM     35  C   UNL     1     -10.294   1.447  18.537  0.00  0.00    +0.000 C 
ATOM     36  H   UNL     1     -10.567   2.471  18.358  0.00  0.00    +0.000 HD
ATOM     37  H   UNL     1      -9.213   1.264  18.598  0.00  0.00    +0.000 HD
ATOM     38  H   UNL     1     -10.723   1.173  19.513  0.00  0.00    +0.000 HD
ENDBRANCH  15  35
BRANCH   1  39
ATOM     39  C   UNL     1     -10.251  -8.824  16.653  0.00  0.00    +0.000 C 
ATOM     40  H   UNL     1     -11.281  -8.461  16.560  0.00  0.00    +0.000 HD
ATOM     41  H   UNL     1      -9.773  -8.599  15.690  0.00  0.00    +0.000 HD
BRANCH  39  42
ATOM     42  C   UNL     1     -10.253 -10.339  16.878  0.00  0.00    +0.000 C 
ATOM     43  H   UNL     1     -10.095 -10.543  17.942  0.00  0.00    +0.000 HD
ATOM     44  H   UNL     1     -11.247 -10.746  16.657  0.00  0.00    +0.000 HD
BRANCH  42  45
ATOM     45  C   UNL     1      -9.226 -11.106  16.024  0.00  0.00    +0.000 C 
ATOM     46  H   UNL     1      -9.573 -11.079  14.983  0.00  0.00    +0.000 HD
ATOM     47  H   UNL     1      -8.280 -10.549  16.044  0.00  0.00    +0.000 HD
BRANCH  45  48
ATOM     48  N   UNL     1      -8.977 -12.502  16.445  0.00  0.00    +0.000 NA
BRANCH  48  49
ATOM     49  C   UNL     1      -8.153 -13.219  15.458  0.00  0.00    +0.000 C 
ATOM     50  H   UNL     1      -7.983 -12.559  14.600  0.00  0.00    +0.000 HD
ATOM     51  H   UNL     1      -7.167 -13.468  15.865  0.00  0.00    +0.000 HD
BRANCH  49  52
ATOM     52  C   UNL     1      -8.797 -14.473  14.879  0.00  0.00    +0.000 C 
ATOM     53  H   UNL     1      -8.555 -15.334  15.512  0.00  0.00    +0.000 HD
ATOM     54  H   UNL     1      -8.421 -14.685  13.872  0.00  0.00    +0.000 HD
ATOM     55  H   UNL     1      -9.887 -14.388  14.842  0.00  0.00    +0.000 HD
ENDBRANCH  49  52
ENDBRANCH  48  49
BRANCH  48  56
ATOM     56  C   UNL     1      -8.432 -12.540  17.818  0.00  0.00    +0.000 C 
ATOM     57  H   UNL     1      -8.740 -11.640  18.362  0.00  0.00    +0.000 HD
ATOM     58  H   UNL     1      -7.337 -12.459  17.765  0.00  0.00    +0.000 HD
BRANCH  56  59
ATOM     59  C   UNL     1      -8.779 -13.769  18.657  0.00  0.00    +0.000 C 
ATOM     60  H   UNL     1      -9.851 -13.982  18.661  0.00  0.00    +0.000 HD
ATOM     61  H   UNL     1      -8.474 -13.608  19.697  0.00  0.00    +0.000 HD
ATOM     62  H   UNL     1      -8.250 -14.657  18.296  0.00  0.00    +0.000 HD
ENDBRANCH  56  59
ENDBRANCH  48  56
ENDBRANCH  45  48
ENDBRANCH  42  45
ENDBRANCH  39  42
ENDBRANCH   1  39
TORSDOF 9
ENDMDL
MODEL 5
REMARK VINA RESULT:    -9.339      4.070      9.539
REMARK INTER + INTRA:         -14.315
REMARK INTER:                 -13.774
REMARK INTRA:                  -0.541
REMARK UNBOUND:                -0.881
REMARK  Name = 
REMARK  9 active torsions:
REMARK  status: ('A' for Active; 'I' for Inactive)
REMARK    1  A    between atoms: C_1  and  C_2
REMARK    2  A    between atoms: C_2  and  N_3
REMARK    3  A    between atoms: N_3  and  C_4
REMARK    4  A    between atoms: N_3  and  C_6
REMARK    5  A    between atoms: C_4  and  C_5
REMARK    6  A    between atoms: C_6  and  C_7
REMARK    7  A    between atoms: C_7  and  C_8
REMARK    8  A    between atoms: C_8  and  C_9
REMARK    9  A    between atoms: N_23  and  C_24
REMARK                            x       y       z     vdW  Elec       q    Type
REMARK                         _______ _______ _______ _____ _____    ______ ____
ROOT
ATOM      1  C   UNL     1      -9.163  -7.314  16.260  0.00  0.00    +0.000 A 
ATOM      2  C   UNL     1      -8.752  -7.543  17.583  0.00  0.00    +0.000 A 
ATOM      3  C   UNL     1      -8.983  -6.609  18.586  0.00  0.00    +0.000 A 
ATOM      4  C   UNL     1      -9.606  -5.388  18.299  0.00  0.00    +0.000 A 
ATOM      5  C   UNL     1     -10.007  -5.089  16.981  0.00  0.00    +0.000 A 
ATOM      6  C   UNL     1      -9.787  -6.076  16.006  0.00  0.00    +0.000 A 
ATOM      7  N   UNL     1     -10.324  -5.614  14.819  0.00  0.00    +0.000 N 
ATOM      8  C   UNL     1     -10.843  -4.344  14.948  0.00  0.00    +0.000 A 
ATOM      9  C   UNL     1     -11.490  -3.485  14.046  0.00  0.00    +0.000 A 
ATOM     10  C   UNL     1     -11.700  -4.022  12.777  0.00  0.00    +0.000 A 
ATOM     11  C   UNL     1     -12.424  -3.309  11.854  0.00  0.00    +0.000 A 
ATOM     12  C   UNL     1     -12.763  -1.979  12.129  0.00  0.00    +0.000 A 
ATOM     13  C   UNL     1     -13.419  -1.052  11.291  0.00  0.00    +0.000 A 
ATOM     14  C   UNL     1     -12.983   0.153  11.747  0.00  0.00    +0.000 A 
ATOM     15  N   UNL     1     -12.787  -0.027  13.106  0.00  0.00    +0.000 N 
ATOM     16  C   UNL     1     -12.451  -1.357  13.374  0.00  0.00    +0.000 A 
ATOM     17  C   UNL     1     -11.923  -2.164  14.450  0.00  0.00    +0.000 A 
ATOM     18  C   UNL     1     -11.736  -1.915  15.839  0.00  0.00    +0.000 A 
ATOM     19  C   UNL     1     -11.080  -2.821  16.770  0.00  0.00    +0.000 A 
ATOM     20  C   UNL     1     -10.625  -4.052  16.261  0.00  0.00    +0.000 A 
ATOM     21  C   UNL     1     -11.096  -2.277  18.108  0.00  0.00    +0.000 C 
ATOM     22  O   UNL     1     -10.773  -2.680  19.221  0.00  0.00    +0.000 OA
ATOM     23  N   UNL     1     -11.670  -1.056  17.903  0.00  0.00    +0.000 N 
ATOM     24  C   UNL     1     -12.251  -0.849  16.664  0.00  0.00    +0.000 C 
ATOM     25  O   UNL     1     -13.116   0.005  16.511  0.00  0.00    +0.000 OA
ATOM     26  H   UNL     1      -8.267  -8.483  17.842  0.00  0.00    +0.000 HD
ATOM     27  H   UNL     1      -8.686  -6.835  19.607  0.00  0.00    +0.000 HD
ATOM     28  H   UNL     1      -9.775  -4.700  19.120  0.00  0.00    +0.000 HD
ATOM     29  H   UNL     1     -10.348  -6.161  13.971  0.00  0.00    +0.000 HD
ATOM     30  H   UNL     1     -11.353  -5.006  12.485  0.00  0.00    +0.000 HD
ATOM     31  H   UNL     1     -12.643  -3.732  10.878  0.00  0.00    +0.000 HD
ATOM     32  H   UNL     1     -13.914  -1.244  10.350  0.00  0.00    +0.000 HD
ATOM     33  H   UNL     1     -13.008   1.135  11.293  0.00  0.00    +0.000 HD
ATOM     34  H   UNL     1     -11.959  -0.496  18.682  0.00  0.00    +0.000 HD
ENDROOT
BRANCH  15  35
ATOM     35  C   UNL     1     -13.145   1.098  13.931  0.00  0.00    +0.000 C 
ATOM     36  H   UNL     1     -12.733   2.026  13.575  0.00  0.00    +0.000 HD
ATOM     37  H   UNL     1     -12.860   0.836  14.959  0.00  0.00    +0.000 HD
ATOM     38  H   UNL     1     -14.239   1.215  13.919  0.00  0.00    +0.000 HD
ENDBRANCH  15  35
BRANCH   1  39
ATOM     39  C   UNL     1      -8.998  -8.398  15.220  0.00  0.00    +0.000 C 
ATOM     40  H   UNL     1      -9.259  -8.029  14.222  0.00  0.00    +0.000 HD
ATOM     41  H   UNL     1      -7.936  -8.669  15.165  0.00  0.00    +0.000 HD
BRANCH  39  42
ATOM     42  C   UNL     1      -9.824  -9.647  15.544  0.00  0.00    +0.000 C 
ATOM     43  H   UNL     1      -9.969  -9.709  16.628  0.00  0.00    +0.000 HD
ATOM     44  H   UNL     1     -10.834  -9.541  15.130  0.00  0.00    +0.000 HD
BRANCH  42  45
ATOM     45  C   UNL     1      -9.225 -10.959  15.004  0.00  0.00    +0.000 C 
ATOM     46  H   UNL     1      -9.846 -11.285  14.160  0.00  0.00    +0.000 HD
ATOM     47  H   UNL     1      -8.235 -10.736  14.585  0.00  0.00    +0.000 HD
BRANCH  45  48
ATOM     48  N   UNL     1      -9.097 -12.046  15.998  0.00  0.00    +0.000 NA
BRANCH  48  49
ATOM     49  C   UNL     1      -8.158 -13.083  15.538  0.00  0.00    +0.000 C 
ATOM     50  H   UNL     1      -7.595 -12.691  14.685  0.00  0.00    +0.000 HD
ATOM     51  H   UNL     1      -7.424 -13.331  16.314  0.00  0.00    +0.000 HD
BRANCH  49  52
ATOM     52  C   UNL     1      -8.815 -14.362  15.034  0.00  0.00    +0.000 C 
ATOM     53  H   UNL     1      -8.586 -15.186  15.717  0.00  0.00    +0.000 HD
ATOM     54  H   UNL     1      -8.440 -14.638  14.042  0.00  0.00    +0.000 HD
ATOM     55  H   UNL     1      -9.904 -14.266  14.987  0.00  0.00    +0.000 HD
ENDBRANCH  49  52
ENDBRANCH  48  49
BRANCH  48  56
ATOM     56  C   UNL     1      -8.774 -11.496  17.331  0.00  0.00    +0.000 C 
ATOM     57  H   UNL     1      -9.629 -10.926  17.711  0.00  0.00    +0.000 HD
ATOM     58  H   UNL     1      -7.979 -10.745  17.218  0.00  0.00    +0.000 HD
BRANCH  56  59
ATOM     59  C   UNL     1      -8.333 -12.499  18.396  0.00  0.00    +0.000 C 
ATOM     60  H   UNL     1      -8.511 -12.134  19.411  0.00  0.00    +0.000 HD
ATOM     61  H   UNL     1      -7.260 -12.695  18.303  0.00  0.00    +0.000 HD
ATOM     62  H   UNL     1      -8.852 -13.457  18.277  0.00  0.00    +0.000 HD
ENDBRANCH  56  59
ENDBRANCH  48  56
ENDBRANCH  45  48
ENDBRANCH  42  45
ENDBRANCH  39  42
ENDBRANCH   1  39
TORSDOF 9
ENDMDL
MODEL 6
REMARK VINA RESULT:    -9.079      2.235      8.760
REMARK INTER + INTRA:         -13.941
REMARK INTER:                 -13.370
REMARK INTRA:                  -0.571
REMARK UNBOUND:                -0.881
REMARK  Name = 
REMARK  9 active torsions:
REMARK  status: ('A' for Active; 'I' for Inactive)
REMARK    1  A    between atoms: C_1  and  C_2
REMARK    2  A    between atoms: C_2  and  N_3
REMARK    3  A    between atoms: N_3  and  C_4
REMARK    4  A    between atoms: N_3  and  C_6
REMARK    5  A    between atoms: C_4  and  C_5
REMARK    6  A    between atoms: C_6  and  C_7
REMARK    7  A    between atoms: C_7  and  C_8
REMARK    8  A    between atoms: C_8  and  C_9
REMARK    9  A    between atoms: N_23  and  C_24
REMARK                            x       y       z     vdW  Elec       q    Type
REMARK                         _______ _______ _______ _____ _____    ______ ____
ROOT
ATOM      1  C   UNL     1      -9.169  -6.755  17.912  0.00  0.00    +0.000 A 
ATOM      2  C   UNL     1      -9.760  -6.973  16.657  0.00  0.00    +0.000 A 
ATOM      3  C   UNL     1     -10.443  -5.963  15.991  0.00  0.00    +0.000 A 
ATOM      4  C   UNL     1     -10.595  -4.697  16.572  0.00  0.00    +0.000 A 
ATOM      5  C   UNL     1     -10.055  -4.432  17.846  0.00  0.00    +0.000 A 
ATOM      6  C   UNL     1      -9.341  -5.470  18.467  0.00  0.00    +0.000 A 
ATOM      7  N   UNL     1      -8.834  -4.974  19.654  0.00  0.00    +0.000 N 
ATOM      8  C   UNL     1      -9.224  -3.670  19.875  0.00  0.00    +0.000 A 
ATOM      9  C   UNL     1      -8.955  -2.761  20.909  0.00  0.00    +0.000 A 
ATOM     10  C   UNL     1      -8.087  -3.234  21.892  0.00  0.00    +0.000 A 
ATOM     11  C   UNL     1      -7.669  -2.387  22.888  0.00  0.00    +0.000 A 
ATOM     12  C   UNL     1      -8.274  -1.131  23.018  0.00  0.00    +0.000 A 
ATOM     13  C   UNL     1      -8.057  -0.155  24.013  0.00  0.00    +0.000 A 
ATOM     14  C   UNL     1      -9.228   0.537  24.038  0.00  0.00    +0.000 A 
ATOM     15  N   UNL     1      -9.696   0.500  22.736  0.00  0.00    +0.000 N 
ATOM     16  C   UNL     1      -9.260  -0.664  22.099  0.00  0.00    +0.000 A 
ATOM     17  C   UNL     1      -9.524  -1.430  20.902  0.00  0.00    +0.000 A 
ATOM     18  C   UNL     1     -10.244  -1.136  19.710  0.00  0.00    +0.000 A 
ATOM     19  C   UNL     1     -10.502  -2.083  18.634  0.00  0.00    +0.000 A 
ATOM     20  C   UNL     1      -9.969  -3.378  18.772  0.00  0.00    +0.000 A 
ATOM     21  C   UNL     1     -11.225  -1.447  17.558  0.00  0.00    +0.000 C 
ATOM     22  O   UNL     1     -11.582  -1.773  16.430  0.00  0.00    +0.000 OA
ATOM     23  N   UNL     1     -11.440  -0.200  18.068  0.00  0.00    +0.000 N 
ATOM     24  C   UNL     1     -10.736   0.126  19.214  0.00  0.00    +0.000 C 
ATOM     25  O   UNL     1     -10.534   1.296  19.516  0.00  0.00    +0.000 OA
ATOM     26  H   UNL     1      -9.658  -7.944  16.175  0.00  0.00    +0.000 HD
ATOM     27  H   UNL     1     -10.854  -6.155  15.003  0.00  0.00    +0.000 HD
ATOM     28  H   UNL     1     -11.125  -3.940  16.004  0.00  0.00    +0.000 HD
ATOM     29  H   UNL     1      -8.233  -5.506  20.265  0.00  0.00    +0.000 HD
ATOM     30  H   UNL     1      -7.684  -4.240  21.892  0.00  0.00    +0.000 HD
ATOM     31  H   UNL     1      -6.953  -2.721  23.633  0.00  0.00    +0.000 HD
ATOM     32  H   UNL     1      -7.280  -0.132  24.762  0.00  0.00    +0.000 HD
ATOM     33  H   UNL     1      -9.638   1.212  24.780  0.00  0.00    +0.000 HD
ATOM     34  H   UNL     1     -11.792   0.533  17.481  0.00  0.00    +0.000 HD
ENDROOT
BRANCH  15  35
ATOM     35  C   UNL     1     -10.341   1.706  22.281  0.00  0.00    +0.000 C 
ATOM     36  H   UNL     1      -9.755   2.589  22.466  0.00  0.00    +0.000 HD
ATOM     37  H   UNL     1     -11.340   1.717  22.736  0.00  0.00    +0.000 HD
ATOM     38  H   UNL     1     -10.483   1.645  21.192  0.00  0.00    +0.000 HD
ENDBRANCH  15  35
BRANCH   1  39
ATOM     39  C   UNL     1      -8.337  -7.840  18.554  0.00  0.00    +0.000 C 
ATOM     40  H   UNL     1      -7.512  -8.143  17.900  0.00  0.00    +0.000 HD
ATOM     41  H   UNL     1      -7.862  -7.428  19.454  0.00  0.00    +0.000 HD
BRANCH  39  42
ATOM     42  C   UNL     1      -9.173  -9.065  18.938  0.00  0.00    +0.000 C 
ATOM     43  H   UNL     1      -9.471  -8.981  19.989  0.00  0.00    +0.000 HD
ATOM     44  H   UNL     1     -10.115  -9.061  18.376  0.00  0.00    +0.000 HD
BRANCH  42  45
ATOM     45  C   UNL     1      -8.473 -10.413  18.682  0.00  0.00    +0.000 C 
ATOM     46  H   UNL     1      -7.503 -10.200  18.214  0.00  0.00    +0.000 HD
ATOM     47  H   UNL     1      -8.248 -10.872  19.653  0.00  0.00    +0.000 HD
BRANCH  45  48
ATOM     48  N   UNL     1      -9.241 -11.373  17.859  0.00  0.00    +0.000 NA
BRANCH  48  49
ATOM     49  C   UNL     1      -9.654 -10.770  16.581  0.00  0.00    +0.000 C 
ATOM     50  H   UNL     1     -10.703 -11.021  16.399  0.00  0.00    +0.000 HD
ATOM     51  H   UNL     1      -9.593  -9.676  16.617  0.00  0.00    +0.000 HD
BRANCH  49  52
ATOM     52  C   UNL     1      -8.899 -11.281  15.360  0.00  0.00    +0.000 C 
ATOM     53  H   UNL     1      -9.595 -11.793  14.687  0.00  0.00    +0.000 HD
ATOM     54  H   UNL     1      -8.122 -11.998  15.643  0.00  0.00    +0.000 HD
ATOM     55  H   UNL     1      -8.440 -10.463  14.797  0.00  0.00    +0.000 HD
ENDBRANCH  49  52
ENDBRANCH  48  49
BRANCH  48  56
ATOM     56  C   UNL     1      -8.496 -12.640  17.709  0.00  0.00    +0.000 C 
ATOM     57  H   UNL     1      -7.419 -12.442  17.757  0.00  0.00    +0.000 HD
ATOM     58  H   UNL     1      -8.654 -13.022  16.690  0.00  0.00    +0.000 HD
BRANCH  56  59
ATOM     59  C   UNL     1      -8.839 -13.755  18.695  0.00  0.00    +0.000 C 
ATOM     60  H   UNL     1      -9.742 -13.539  19.272  0.00  0.00    +0.000 HD
ATOM     61  H   UNL     1      -8.019 -13.887  19.409  0.00  0.00    +0.000 HD
ATOM     62  H   UNL     1      -8.978 -14.711  18.179  0.00  0.00    +0.000 HD
ENDBRANCH  56  59
ENDBRANCH  48  56
ENDBRANCH  45  48
ENDBRANCH  42  45
ENDBRANCH  39  42
ENDBRANCH   1  39
TORSDOF 9
ENDMDL
MODEL 7
REMARK VINA RESULT:    -8.882      2.149      8.678
REMARK INTER + INTRA:         -13.658
REMARK INTER:                 -13.258
REMARK INTRA:                  -0.400
REMARK UNBOUND:                -0.881
REMARK  Name = 
REMARK  9 active torsions:
REMARK  status: ('A' for Active; 'I' for Inactive)
REMARK    1  A    between atoms: C_1  and  C_2
REMARK    2  A    between atoms: C_2  and  N_3
REMARK    3  A    between atoms: N_3  and  C_4
REMARK    4  A    between atoms: N_3  and  C_6
REMARK    5  A    between atoms: C_4  and  C_5
REMARK    6  A    between atoms: C_6  and  C_7
REMARK    7  A    between atoms: C_7  and  C_8
REMARK    8  A    between atoms: C_8  and  C_9
REMARK    9  A    between atoms: N_23  and  C_24
REMARK                            x       y       z     vdW  Elec       q    Type
REMARK                         _______ _______ _______ _____ _____    ______ ____
ROOT
ATOM      1  C   UNL     1      -9.518  -8.945  17.632  0.00  0.00    +0.000 A 
ATOM      2  C   UNL     1     -10.354  -9.260  16.549  0.00  0.00    +0.000 A 
ATOM      3  C   UNL     1     -11.105  -8.284  15.904  0.00  0.00    +0.000 A 
ATOM      4  C   UNL     1     -11.077  -6.953  16.341  0.00  0.00    +0.000 A 
ATOM      5  C   UNL     1     -10.284  -6.587  17.447  0.00  0.00    +0.000 A 
ATOM      6  C   UNL     1      -9.513  -7.597  18.045  0.00  0.00    +0.000 A 
ATOM      7  N   UNL     1      -8.759  -7.008  19.043  0.00  0.00    +0.000 N 
ATOM      8  C   UNL     1      -9.033  -5.663  19.170  0.00  0.00    +0.000 A 
ATOM      9  C   UNL     1      -8.522  -4.665  20.013  0.00  0.00    +0.000 A 
ATOM     10  C   UNL     1      -7.501  -5.086  20.864  0.00  0.00    +0.000 A 
ATOM     11  C   UNL     1      -6.854  -4.165  21.650  0.00  0.00    +0.000 A 
ATOM     12  C   UNL     1      -7.359  -2.862  21.735  0.00  0.00    +0.000 A 
ATOM     13  C   UNL     1      -6.903  -1.798  22.542  0.00  0.00    +0.000 A 
ATOM     14  C   UNL     1      -8.011  -1.025  22.702  0.00  0.00    +0.000 A 
ATOM     15  N   UNL     1      -8.728  -1.174  21.527  0.00  0.00    +0.000 N 
ATOM     16  C   UNL     1      -8.483  -2.432  20.969  0.00  0.00    +0.000 A 
ATOM     17  C   UNL     1      -9.015  -3.306  19.949  0.00  0.00    +0.000 A 
ATOM     18  C   UNL     1      -9.940  -3.097  18.888  0.00  0.00    +0.000 A 
ATOM     19  C   UNL     1     -10.451  -4.137  18.006  0.00  0.00    +0.000 A 
ATOM     20  C   UNL     1      -9.966  -5.444  18.201  0.00  0.00    +0.000 A 
ATOM     21  C   UNL     1     -11.340  -3.576  17.016  0.00  0.00    +0.000 C 
ATOM     22  O   UNL     1     -11.928  -4.000  16.026  0.00  0.00    +0.000 OA
ATOM     23  N   UNL     1     -11.389  -2.267  17.399  0.00  0.00    +0.000 N 
ATOM     24  C   UNL     1     -10.458  -1.866  18.341  0.00  0.00    +0.000 C 
ATOM     25  O   UNL     1     -10.143  -0.687  18.452  0.00  0.00    +0.000 OA
ATOM     26  H   UNL     1     -10.397 -10.284  16.181  0.00  0.00    +0.000 HD
ATOM     27  H   UNL     1     -11.711  -8.556  15.044  0.00  0.00    +0.000 HD
ATOM     28  H   UNL     1     -11.671  -6.229  15.795  0.00  0.00    +0.000 HD
ATOM     29  H   UNL     1      -8.077  -7.510  19.590  0.00  0.00    +0.000 HD
ATOM     30  H   UNL     1      -7.156  -6.112  20.914  0.00  0.00    +0.000 HD
ATOM     31  H   UNL     1      -6.023  -4.464  22.281  0.00  0.00    +0.000 HD
ATOM     32  H   UNL     1      -5.994  -1.748  23.121  0.00  0.00    +0.000 HD
ATOM     33  H   UNL     1      -8.234  -0.243  23.419  0.00  0.00    +0.000 HD
ATOM     34  H   UNL     1     -11.813  -1.581  16.803  0.00  0.00    +0.000 HD
ENDROOT
BRANCH  15  35
ATOM     35  C   UNL     1      -9.389   0.016  21.057  0.00  0.00    +0.000 C 
ATOM     36  H   UNL     1      -8.942   0.420  20.166  0.00  0.00    +0.000 HD
ATOM     37  H   UNL     1      -9.424   0.710  21.907  0.00  0.00    +0.000 HD
ATOM     38  H   UNL     1     -10.430  -0.233  20.801  0.00  0.00    +0.000 HD
ENDBRANCH  15  35
BRANCH   1  39
ATOM     39  C   UNL     1      -8.630 -10.009  18.235  0.00  0.00    +0.000 C 
ATOM     40  H   UNL     1      -7.621  -9.966  17.811  0.00  0.00    +0.000 HD
ATOM     41  H   UNL     1      -8.508  -9.795  19.305  0.00  0.00    +0.000 HD
BRANCH  39  42
ATOM     42  C   UNL     1      -9.207 -11.417  18.061  0.00  0.00    +0.000 C 
ATOM     43  H   UNL     1      -9.768 -11.687  18.962  0.00  0.00    +0.000 HD
ATOM     44  H   UNL     1      -9.950 -11.416  17.255  0.00  0.00    +0.000 HD
BRANCH  42  45
ATOM     45  C   UNL     1      -8.156 -12.495  17.737  0.00  0.00    +0.000 C 
ATOM     46  H   UNL     1      -7.170 -12.086  17.994  0.00  0.00    +0.000 HD
ATOM     47  H   UNL     1      -8.318 -13.345  18.412  0.00  0.00    +0.000 HD
BRANCH  45  48
ATOM     48  N   UNL     1      -8.163 -12.978  16.339  0.00  0.00    +0.000 NA
BRANCH  48  49
ATOM     49  C   UNL     1      -8.596 -14.383  16.261  0.00  0.00    +0.000 C 
ATOM     50  H   UNL     1      -7.752 -15.024  16.537  0.00  0.00    +0.000 HD
ATOM     51  H   UNL     1      -9.399 -14.595  16.976  0.00  0.00    +0.000 HD
BRANCH  49  52
ATOM     52  C   UNL     1      -9.017 -14.847  14.872  0.00  0.00    +0.000 C 
ATOM     53  H   UNL     1      -9.781 -15.625  14.962  0.00  0.00    +0.000 HD
ATOM     54  H   UNL     1      -8.172 -15.273  14.321  0.00  0.00    +0.000 HD
ATOM     55  H   UNL     1      -9.447 -14.029  14.286  0.00  0.00    +0.000 HD
ENDBRANCH  49  52
ENDBRANCH  48  49
BRANCH  48  56
ATOM     56  C   UNL     1      -8.943 -12.064  15.479  0.00  0.00    +0.000 C 
ATOM     57  H   UNL     1      -9.629 -11.472  16.096  0.00  0.00    +0.000 HD
ATOM     58  H   UNL     1      -9.607 -12.664  14.840  0.00  0.00    +0.000 HD
BRANCH  56  59
ATOM     59  C   UNL     1      -8.143 -11.120  14.582  0.00  0.00    +0.000 C 
ATOM     60  H   UNL     1      -8.060 -10.115  15.004  0.00  0.00    +0.000 HD
ATOM     61  H   UNL     1      -8.635 -11.026  13.607  0.00  0.00    +0.000 HD
ATOM     62  H   UNL     1      -7.134 -11.506  14.402  0.00  0.00    +0.000 HD
ENDBRANCH  56  59
ENDBRANCH  48  56
ENDBRANCH  45  48
ENDBRANCH  42  45
ENDBRANCH  39  42
ENDBRANCH   1  39
TORSDOF 9
ENDMDL
MODEL 8
REMARK VINA RESULT:    -8.671      3.963      7.808
REMARK INTER + INTRA:         -13.355
REMARK INTER:                 -12.854
REMARK INTRA:                  -0.501
REMARK UNBOUND:                -0.881
REMARK  Name = 
REMARK  9 active torsions:
REMARK  status: ('A' for Active; 'I' for Inactive)
REMARK    1  A    between atoms: C_1  and  C_2
REMARK    2  A    between atoms: C_2  and  N_3
REMARK    3  A    between atoms: N_3  and  C_4
REMARK    4  A    between atoms: N_3  and  C_6
REMARK    5  A    between atoms: C_4  and  C_5
REMARK    6  A    between atoms: C_6  and  C_7
REMARK    7  A    between atoms: C_7  and  C_8
REMARK    8  A    between atoms: C_8  and  C_9
REMARK    9  A    between atoms: N_23  and  C_24
REMARK                            x       y       z     vdW  Elec       q    Type
REMARK                         _______ _______ _______ _____ _____    ______ ____
ROOT
ATOM      1  C   UNL     1     -11.448  -3.544  14.511  0.00  0.00    +0.000 A 
ATOM      2  C   UNL     1     -11.472  -2.250  15.053  0.00  0.00    +0.000 A 
ATOM      3  C   UNL     1     -10.943  -1.980  16.310  0.00  0.00    +0.000 A 
ATOM      4  C   UNL     1     -10.398  -3.006  17.094  0.00  0.00    +0.000 A 
ATOM      5  C   UNL     1     -10.382  -4.331  16.614  0.00  0.00    +0.000 A 
ATOM      6  C   UNL     1     -10.893  -4.552  15.325  0.00  0.00    +0.000 A 
ATOM      7  N   UNL     1     -10.705  -5.889  15.027  0.00  0.00    +0.000 N 
ATOM      8  C   UNL     1     -10.140  -6.577  16.080  0.00  0.00    +0.000 A 
ATOM      9  C   UNL     1      -9.757  -7.917  16.243  0.00  0.00    +0.000 A 
ATOM     10  C   UNL     1      -9.928  -8.715  15.113  0.00  0.00    +0.000 A 
ATOM     11  C   UNL     1      -9.481 -10.013  15.129  0.00  0.00    +0.000 A 
ATOM     12  C   UNL     1      -9.046 -10.572  16.336  0.00  0.00    +0.000 A 
ATOM     13  C   UNL     1      -8.634 -11.898  16.587  0.00  0.00    +0.000 A 
ATOM     14  C   UNL     1      -8.893 -12.066  17.912  0.00  0.00    +0.000 A 
ATOM     15  N   UNL     1      -8.698 -10.817  18.477  0.00  0.00    +0.000 N 
ATOM     16  C   UNL     1      -8.976  -9.815  17.543  0.00  0.00    +0.000 A 
ATOM     17  C   UNL     1      -9.196  -8.388  17.491  0.00  0.00    +0.000 A 
ATOM     18  C   UNL     1      -8.973  -7.344  18.433  0.00  0.00    +0.000 A 
ATOM     19  C   UNL     1      -9.359  -5.953  18.246  0.00  0.00    +0.000 A 
ATOM     20  C   UNL     1      -9.969  -5.611  17.025  0.00  0.00    +0.000 A 
ATOM     21  C   UNL     1      -8.951  -5.154  19.378  0.00  0.00    +0.000 C 
ATOM     22  O   UNL     1      -8.953  -3.958  19.653  0.00  0.00    +0.000 OA
ATOM     23  N   UNL     1      -8.430  -6.102  20.211  0.00  0.00    +0.000 N 
ATOM     24  C   UNL     1      -8.220  -7.355  19.664  0.00  0.00    +0.000 C 
ATOM     25  O   UNL     1      -7.414  -8.132  20.162  0.00  0.00    +0.000 OA
ATOM     26  H   UNL     1     -11.885  -1.428  14.470  0.00  0.00    +0.000 HD
ATOM     27  H   UNL     1     -10.942  -0.959  16.683  0.00  0.00    +0.000 HD
ATOM     28  H   UNL     1      -9.986  -2.740  18.060  0.00  0.00    +0.000 HD
ATOM     29  H   UNL     1     -10.936  -6.295  14.133  0.00  0.00    +0.000 HD
ATOM     30  H   UNL     1     -10.368  -8.351  14.191  0.00  0.00    +0.000 HD
ATOM     31  H   UNL     1      -9.558 -10.634  14.242  0.00  0.00    +0.000 HD
ATOM     32  H   UNL     1      -8.431 -12.677  15.867  0.00  0.00    +0.000 HD
ATOM     33  H   UNL     1      -8.975 -12.964  18.511  0.00  0.00    +0.000 HD
ATOM     34  H   UNL     1      -7.917  -5.829  21.029  0.00  0.00    +0.000 HD
ENDROOT
BRANCH  15  35
ATOM     35  C   UNL     1      -8.095 -10.823  19.785  0.00  0.00    +0.000 C 
ATOM     36  H   UNL     1      -7.415 -11.645  19.928  0.00  0.00    +0.000 HD
ATOM     37  H   UNL     1      -8.918 -10.778  20.509  0.00  0.00    +0.000 HD
ATOM     38  H   UNL     1      -7.505  -9.902  19.909  0.00  0.00    +0.000 HD
ENDBRANCH  15  35
BRANCH   1  39
ATOM     39  C   UNL     1     -11.928  -3.780  13.097  0.00  0.00    +0.000 C 
ATOM     40  H   UNL     1     -11.524  -4.715  12.694  0.00  0.00    +0.000 HD
ATOM     41  H   UNL     1     -13.017  -3.914  13.116  0.00  0.00    +0.000 HD
BRANCH  39  42
ATOM     42  C   UNL     1     -11.577  -2.618  12.162  0.00  0.00    +0.000 C 
ATOM     43  H   UNL     1     -11.305  -1.744  12.763  0.00  0.00    +0.000 HD
ATOM     44  H   UNL     1     -10.672  -2.861  11.592  0.00  0.00    +0.000 HD
BRANCH  42  45
ATOM     45  C   UNL     1     -12.687  -2.257  11.157  0.00  0.00    +0.000 C 
ATOM     46  H   UNL     1     -12.868  -3.141  10.531  0.00  0.00    +0.000 HD
ATOM     47  H   UNL     1     -13.614  -2.087  11.719  0.00  0.00    +0.000 HD
BRANCH  45  48
ATOM     48  N   UNL     1     -12.408  -1.077  10.311  0.00  0.00    +0.000 NA
BRANCH  48  49
ATOM     49  C   UNL     1     -12.291  -1.452   8.893  0.00  0.00    +0.000 C 
ATOM     50  H   UNL     1     -13.022  -2.238   8.677  0.00  0.00    +0.000 HD
ATOM     51  H   UNL     1     -12.530  -0.609   8.234  0.00  0.00    +0.000 HD
BRANCH  49  52
ATOM     52  C   UNL     1     -10.942  -2.039   8.496  0.00  0.00    +0.000 C 
ATOM     53  H   UNL     1     -10.970  -3.128   8.605  0.00  0.00    +0.000 HD
ATOM     54  H   UNL     1     -10.139  -1.662   9.139  0.00  0.00    +0.000 HD
ATOM     55  H   UNL     1     -10.696  -1.818   7.454  0.00  0.00    +0.000 HD
ENDBRANCH  49  52
ENDBRANCH  48  49
BRANCH  48  56
ATOM     56  C   UNL     1     -13.398  -0.010  10.567  0.00  0.00    +0.000 C 
ATOM     57  H   UNL     1     -14.012   0.145   9.672  0.00  0.00    +0.000 HD
ATOM     58  H   UNL     1     -12.864   0.943  10.694  0.00  0.00    +0.000 HD
BRANCH  56  59
ATOM     59  C   UNL     1     -14.318  -0.205  11.771  0.00  0.00    +0.000 C 
ATOM     60  H   UNL     1     -14.100   0.495  12.581  0.00  0.00    +0.000 HD
ATOM     61  H   UNL     1     -14.198  -1.217  12.172  0.00  0.00    +0.000 HD
ATOM     62  H   UNL     1     -15.370  -0.089  11.488  0.00  0.00    +0.000 HD
ENDBRANCH  56  59
ENDBRANCH  48  56
ENDBRANCH  45  48
ENDBRANCH  42  45
ENDBRANCH  39  42
ENDBRANCH   1  39
TORSDOF 9
ENDMDL
MODEL 9
REMARK VINA RESULT:    -8.618      2.984      9.389
REMARK INTER + INTRA:         -13.278
REMARK INTER:                 -12.580
REMARK INTRA:                  -0.698
REMARK UNBOUND:                -0.881
REMARK  Name = 
REMARK  9 active torsions:
REMARK  status: ('A' for Active; 'I' for Inactive)
REMARK    1  A    between atoms: C_1  and  C_2
REMARK    2  A    between atoms: C_2  and  N_3
REMARK    3  A    between atoms: N_3  and  C_4
REMARK    4  A    between atoms: N_3  and  C_6
REMARK    5  A    between atoms: C_4  and  C_5
REMARK    6  A    between atoms: C_6  and  C_7
REMARK    7  A    between atoms: C_7  and  C_8
REMARK    8  A    between atoms: C_8  and  C_9
REMARK    9  A    between atoms: N_23  and  C_24
REMARK                            x       y       z     vdW  Elec       q    Type
REMARK                         _______ _______ _______ _____ _____    ______ ____
ROOT
ATOM      1  C   UNL     1      -9.275  -5.922  17.839  0.00  0.00    +0.000 A 
ATOM      2  C   UNL     1      -8.112  -6.705  17.754  0.00  0.00    +0.000 A 
ATOM      3  C   UNL     1      -7.005  -6.448  18.553  0.00  0.00    +0.000 A 
ATOM      4  C   UNL     1      -7.001  -5.371  19.449  0.00  0.00    +0.000 A 
ATOM      5  C   UNL     1      -8.127  -4.529  19.549  0.00  0.00    +0.000 A 
ATOM      6  C   UNL     1      -9.238  -4.848  18.750  0.00  0.00    +0.000 A 
ATOM      7  N   UNL     1     -10.245  -3.954  19.064  0.00  0.00    +0.000 N 
ATOM      8  C   UNL     1      -9.837  -3.025  19.997  0.00  0.00    +0.000 A 
ATOM      9  C   UNL     1     -10.495  -1.955  20.622  0.00  0.00    +0.000 A 
ATOM     10  C   UNL     1     -11.840  -1.817  20.282  0.00  0.00    +0.000 A 
ATOM     11  C   UNL     1     -12.605  -0.872  20.921  0.00  0.00    +0.000 A 
ATOM     12  C   UNL     1     -11.981   0.066  21.752  0.00  0.00    +0.000 A 
ATOM     13  C   UNL     1     -12.562   1.161  22.426  0.00  0.00    +0.000 A 
ATOM     14  C   UNL     1     -11.528   2.033  22.566  0.00  0.00    +0.000 A 
ATOM     15  N   UNL     1     -10.403   1.237  22.702  0.00  0.00    +0.000 N 
ATOM     16  C   UNL     1     -10.581   0.029  22.023  0.00  0.00    +0.000 A 
ATOM     17  C   UNL     1      -9.807  -1.104  21.569  0.00  0.00    +0.000 A 
ATOM     18  C   UNL     1      -8.489  -1.551  21.867  0.00  0.00    +0.000 A 
ATOM     19  C   UNL     1      -7.822  -2.675  21.225  0.00  0.00    +0.000 A 
ATOM     20  C   UNL     1      -8.552  -3.392  20.259  0.00  0.00    +0.000 A 
ATOM     21  C   UNL     1      -6.508  -2.879  21.790  0.00  0.00    +0.000 C 
ATOM     22  O   UNL     1      -5.624  -3.721  21.668  0.00  0.00    +0.000 OA
ATOM     23  N   UNL     1      -6.418  -1.835  22.663  0.00  0.00    +0.000 N 
ATOM     24  C   UNL     1      -7.588  -1.141  22.917  0.00  0.00    +0.000 C 
ATOM     25  O   UNL     1      -7.719  -0.484  23.942  0.00  0.00    +0.000 OA
ATOM     26  H   UNL     1      -8.082  -7.553  17.071  0.00  0.00    +0.000 HD
ATOM     27  H   UNL     1      -6.136  -7.098  18.490  0.00  0.00    +0.000 HD
ATOM     28  H   UNL     1      -6.118  -5.222  20.059  0.00  0.00    +0.000 HD
ATOM     29  H   UNL     1     -11.172  -4.003  18.668  0.00  0.00    +0.000 HD
ATOM     30  H   UNL     1     -12.336  -2.451  19.556  0.00  0.00    +0.000 HD
ATOM     31  H   UNL     1     -13.666  -0.785  20.708  0.00  0.00    +0.000 HD
ATOM     32  H   UNL     1     -13.612   1.382  22.549  0.00  0.00    +0.000 HD
ATOM     33  H   UNL     1     -11.517   3.091  22.797  0.00  0.00    +0.000 HD
ATOM     34  H   UNL     1      -5.668  -1.794  23.327  0.00  0.00    +0.000 HD
ENDROOT
BRANCH  15  35
ATOM     35  C   UNL     1      -9.415   1.725  23.631  0.00  0.00    +0.000 C 
ATOM     36  H   UNL     1      -8.415   1.686  23.237  0.00  0.00    +0.000 HD
ATOM     37  H   UNL     1      -9.562   1.167  24.565  0.00  0.00    +0.000 HD
ATOM     38  H   UNL     1      -9.626   2.783  23.850  0.00  0.00    +0.000 HD
ENDBRANCH  15  35
BRANCH   1  39
ATOM     39  C   UNL     1     -10.500  -6.300  17.039  0.00  0.00    +0.000 C 
ATOM     40  H   UNL     1     -11.293  -5.554  17.156  0.00  0.00    +0.000 HD
ATOM     41  H   UNL     1     -10.238  -6.285  15.973  0.00  0.00    +0.000 HD
BRANCH  39  42
ATOM     42  C   UNL     1     -11.034  -7.687  17.410  0.00  0.00    +0.000 C 
ATOM     43  H   UNL     1     -10.563  -8.013  18.344  0.00  0.00    +0.000 HD
ATOM     44  H   UNL     1     -12.104  -7.623  17.640  0.00  0.00    +0.000 HD
BRANCH  42  45
ATOM     45  C   UNL     1     -10.847  -8.751  16.312  0.00  0.00    +0.000 C 
ATOM     46  H   UNL     1     -11.681  -9.461  16.393  0.00  0.00    +0.000 HD
ATOM     47  H   UNL     1     -10.959  -8.260  15.337  0.00  0.00    +0.000 HD
BRANCH  45  48
ATOM     48  N   UNL     1      -9.555  -9.470  16.349  0.00  0.00    +0.000 NA
BRANCH  48  49
ATOM     49  C   UNL     1      -9.587 -10.578  17.318  0.00  0.00    +0.000 C 
ATOM     50  H   UNL     1     -10.592 -10.636  17.749  0.00  0.00    +0.000 HD
ATOM     51  H   UNL     1      -9.397 -11.541  16.831  0.00  0.00    +0.000 HD
BRANCH  49  52
ATOM     52  C   UNL     1      -8.648 -10.415  18.506  0.00  0.00    +0.000 C 
ATOM     53  H   UNL     1      -8.855  -9.465  19.009  0.00  0.00    +0.000 HD
ATOM     54  H   UNL     1      -7.600 -10.400  18.187  0.00  0.00    +0.000 HD
ATOM     55  H   UNL     1      -8.784 -11.213  19.242  0.00  0.00    +0.000 HD
ENDBRANCH  49  52
ENDBRANCH  48  49
BRANCH  48  56
ATOM     56  C   UNL     1      -9.150  -9.879  14.988  0.00  0.00    +0.000 C 
ATOM     57  H   UNL     1      -8.437  -9.152  14.582  0.00  0.00    +0.000 HD
ATOM     58  H   UNL     1     -10.022  -9.800  14.322  0.00  0.00    +0.000 HD
BRANCH  56  59
ATOM     59  C   UNL     1      -8.564 -11.282  14.841  0.00  0.00    +0.000 C 
ATOM     60  H   UNL     1      -9.327 -12.062  14.911  0.00  0.00    +0.000 HD
ATOM     61  H   UNL     1      -7.834 -11.467  15.636  0.00  0.00    +0.000 HD
ATOM     62  H   UNL     1      -8.041 -11.395  13.885  0.00  0.00    +0.000 HD
ENDBRANCH  56  59
ENDBRANCH  48  56
ENDBRANCH  45  48
ENDBRANCH  42  45
ENDBRANCH  39  42
ENDBRANCH   1  39
TORSDOF 9
ENDMDL
