MODEL 1
REMARK VINA RESULT:    -8.864      0.000      0.000
REMARK INTER + INTRA:         -11.465
REMARK INTER:                 -10.937
REMARK INTRA:                  -0.528
REMARK UNBOUND:                -0.528
REMARK  Name = 
REMARK  6 active torsions:
REMARK  status: ('A' for Active; 'I' for Inactive)
REMARK    1  A    between atoms: O_1  and  C_2
REMARK    2  A    between atoms: C_8  and  O_9
REMARK    3  A    between atoms: C_10  and  O_11
REMARK    4  A    between atoms: N_13  and  C_14
REMARK    5  A    between atoms: C_14  and  C_15
REMARK    6  A    between atoms: C_24  and  O_25
REMARK                            x       y       z     vdW  Elec       q    Type
REMARK                         _______ _______ _______ _____ _____    ______ ____
ROOT
ATOM      1  C   UNL     1      -5.684  -4.476  20.630  0.00  0.00    +0.000 A 
ATOM      2  C   UNL     1      -6.925  -3.859  20.468  0.00  0.00    +0.000 A 
ATOM      3  C   UNL     1      -7.849  -4.399  19.549  0.00  0.00    +0.000 A 
ATOM      4  C   UNL     1      -9.170  -4.028  19.161  0.00  0.00    +0.000 A 
ATOM      5  C   UNL     1     -10.015  -2.948  19.508  0.00  0.00    +0.000 A 
ATOM      6  C   UNL     1     -11.313  -2.879  18.990  0.00  0.00    +0.000 A 
ATOM      7  C   UNL     1     -11.778  -3.898  18.175  0.00  0.00    +0.000 A 
ATOM      8  C   UNL     1     -10.964  -4.978  17.823  0.00  0.00    +0.000 A 
ATOM      9  C   UNL     1      -9.640  -5.004  18.279  0.00  0.00    +0.000 A 
ATOM     10  N   UNL     1      -8.581  -5.851  18.011  0.00  0.00    +0.000 N 
ATOM     11  C   UNL     1      -7.499  -5.543  18.823  0.00  0.00    +0.000 A 
ATOM     12  C   UNL     1      -6.241  -6.160  18.967  0.00  0.00    +0.000 A 
ATOM     13  C   UNL     1      -5.348  -5.603  19.889  0.00  0.00    +0.000 A 
ATOM     14  H   UNL     1      -7.194  -2.979  21.041  0.00  0.00    +0.000 HD
ATOM     15  H   UNL     1      -9.654  -2.169  20.173  0.00  0.00    +0.000 HD
ATOM     16  H   UNL     1     -11.941  -2.034  19.254  0.00  0.00    +0.000 HD
ATOM     17  H   UNL     1      -5.986  -7.045  18.396  0.00  0.00    +0.000 HD
ENDROOT
BRANCH  10  18
ATOM     18  C   UNL     1      -8.546  -6.809  16.904  0.00  0.00    +0.000 C 
ATOM     19  H   UNL     1      -7.572  -6.666  16.417  0.00  0.00    +0.000 HD
ATOM     20  H   UNL     1      -9.304  -6.525  16.167  0.00  0.00    +0.000 HD
BRANCH  18  21
ATOM     21  C   UNL     1      -8.691  -8.263  17.290  0.00  0.00    +0.000 A 
ATOM     22  C   UNL     1      -8.624  -8.727  18.610  0.00  0.00    +0.000 A 
ATOM     23  C   UNL     1      -8.690 -10.097  18.888  0.00  0.00    +0.000 A 
ATOM     24  C   UNL     1      -8.847 -11.011  17.849  0.00  0.00    +0.000 A 
ATOM     25 BR   UNL     1      -8.859 -12.863  18.221  0.00  0.00    +0.000 Br
ATOM     26  C   UNL     1      -8.980 -10.568  16.537  0.00  0.00    +0.000 A 
ATOM     27  C   UNL     1      -8.907  -9.201  16.262  0.00  0.00    +0.000 A 
ATOM     28  H   UNL     1      -8.508  -8.037  19.443  0.00  0.00    +0.000 HD
ATOM     29  H   UNL     1      -8.610 -10.435  19.915  0.00  0.00    +0.000 HD
ATOM     30  H   UNL     1      -9.128 -11.274  15.725  0.00  0.00    +0.000 HD
ATOM     31  H   UNL     1      -9.010  -8.868  15.230  0.00  0.00    +0.000 HD
ENDBRANCH  18  21
ENDBRANCH  10  18
BRANCH   1  32
ATOM     32  O   UNL     1      -4.788  -3.977  21.537  0.00  0.00    +0.000 OA
ATOM     33  H   UNL     1      -4.073  -4.617  21.663  0.00  0.00    +0.000 HD
ENDBRANCH   1  32
BRANCH   7  34
ATOM     34  O   UNL     1     -13.053  -3.887  17.672  0.00  0.00    +0.000 OA
ATOM     35  H   UNL     1     -12.990  -3.890  16.701  0.00  0.00    +0.000 HD
ENDBRANCH   7  34
BRANCH   8  36
ATOM     36  O   UNL     1     -11.490  -5.989  17.058  0.00  0.00    +0.000 OA
ATOM     37  H   UNL     1     -12.432  -6.020  17.317  0.00  0.00    +0.000 HD
ENDBRANCH   8  36
BRANCH  13  38
ATOM     38  O   UNL     1      -4.119  -6.176  20.076  0.00  0.00    +0.000 OA
ATOM     39  H   UNL     1      -3.613  -5.641  20.707  0.00  0.00    +0.000 HD
ENDBRANCH  13  38
TORSDOF 6
ENDMDL
MODEL 2
REMARK VINA RESULT:    -8.525      3.625      5.780
REMARK INTER + INTRA:         -11.047
REMARK INTER:                 -10.269
REMARK INTRA:                  -0.778
REMARK UNBOUND:                -0.528
REMARK  Name = 
REMARK  6 active torsions:
REMARK  status: ('A' for Active; 'I' for Inactive)
REMARK    1  A    between atoms: O_1  and  C_2
REMARK    2  A    between atoms: C_8  and  O_9
REMARK    3  A    between atoms: C_10  and  O_11
REMARK    4  A    between atoms: N_13  and  C_14
REMARK    5  A    between atoms: C_14  and  C_15
REMARK    6  A    between atoms: C_24  and  O_25
REMARK                            x       y       z     vdW  Elec       q    Type
REMARK                         _______ _______ _______ _____ _____    ______ ____
ROOT
ATOM      1  C   UNL     1      -8.075  -4.807  20.497  0.00  0.00    +0.000 A 
ATOM      2  C   UNL     1      -8.047  -6.173  20.213  0.00  0.00    +0.000 A 
ATOM      3  C   UNL     1      -8.788  -6.666  19.118  0.00  0.00    +0.000 A 
ATOM      4  C   UNL     1      -8.963  -7.968  18.565  0.00  0.00    +0.000 A 
ATOM      5  C   UNL     1      -8.508  -9.252  18.945  0.00  0.00    +0.000 A 
ATOM      6  C   UNL     1      -8.808 -10.366  18.153  0.00  0.00    +0.000 A 
ATOM      7  C   UNL     1      -9.510 -10.194  16.971  0.00  0.00    +0.000 A 
ATOM      8  C   UNL     1      -9.965  -8.934  16.571  0.00  0.00    +0.000 A 
ATOM      9  C   UNL     1      -9.731  -7.834  17.406  0.00  0.00    +0.000 A 
ATOM     10  N   UNL     1     -10.149  -6.518  17.348  0.00  0.00    +0.000 N 
ATOM     11  C   UNL     1      -9.534  -5.771  18.342  0.00  0.00    +0.000 A 
ATOM     12  C   UNL     1      -9.582  -4.394  18.634  0.00  0.00    +0.000 A 
ATOM     13  C   UNL     1      -8.834  -3.936  19.723  0.00  0.00    +0.000 A 
ATOM     14  H   UNL     1      -7.459  -6.859  20.812  0.00  0.00    +0.000 HD
ATOM     15  H   UNL     1      -7.931  -9.375  19.858  0.00  0.00    +0.000 HD
ATOM     16  H   UNL     1      -8.465 -11.346  18.470  0.00  0.00    +0.000 HD
ATOM     17  H   UNL     1     -10.165  -3.716  18.022  0.00  0.00    +0.000 HD
ENDROOT
BRANCH  10  18
ATOM     18  C   UNL     1     -11.223  -6.027  16.481  0.00  0.00    +0.000 C 
ATOM     19  H   UNL     1     -11.941  -5.533  17.148  0.00  0.00    +0.000 HD
ATOM     20  H   UNL     1     -11.745  -6.885  16.046  0.00  0.00    +0.000 HD
BRANCH  18  21
ATOM     21  C   UNL     1     -10.803  -5.051  15.405  0.00  0.00    +0.000 A 
ATOM     22  C   UNL     1      -9.690  -5.238  14.576  0.00  0.00    +0.000 A 
ATOM     23  C   UNL     1      -9.316  -4.256  13.653  0.00  0.00    +0.000 A 
ATOM     24  C   UNL     1     -10.066  -3.090  13.535  0.00  0.00    +0.000 A 
ATOM     25 BR   UNL     1      -9.515  -1.733  12.341  0.00  0.00    +0.000 Br
ATOM     26  C   UNL     1     -11.213  -2.911  14.303  0.00  0.00    +0.000 A 
ATOM     27  C   UNL     1     -11.580  -3.890  15.229  0.00  0.00    +0.000 A 
ATOM     28  H   UNL     1      -9.088  -6.142  14.641  0.00  0.00    +0.000 HD
ATOM     29  H   UNL     1      -8.435  -4.411  13.040  0.00  0.00    +0.000 HD
ATOM     30  H   UNL     1     -11.817  -2.015  14.198  0.00  0.00    +0.000 HD
ATOM     31  H   UNL     1     -12.478  -3.736  15.826  0.00  0.00    +0.000 HD
ENDBRANCH  18  21
ENDBRANCH  10  18
BRANCH   1  32
ATOM     32  O   UNL     1      -7.341  -4.313  21.541  0.00  0.00    +0.000 OA
ATOM     33  H   UNL     1      -6.866  -5.040  21.968  0.00  0.00    +0.000 HD
ENDBRANCH   1  32
BRANCH   7  34
ATOM     34  O   UNL     1      -9.797 -11.251  16.148  0.00  0.00    +0.000 OA
ATOM     35  H   UNL     1      -9.066 -11.890  16.220  0.00  0.00    +0.000 HD
ENDBRANCH   7  34
BRANCH   8  36
ATOM     36  O   UNL     1     -10.607  -8.808  15.365  0.00  0.00    +0.000 OA
ATOM     37  H   UNL     1     -11.037  -7.931  15.412  0.00  0.00    +0.000 HD
ENDBRANCH   8  36
BRANCH  13  38
ATOM     38  O   UNL     1      -8.837  -2.603  20.038  0.00  0.00    +0.000 OA
ATOM     39  H   UNL     1      -9.623  -2.407  20.571  0.00  0.00    +0.000 HD
ENDBRANCH  13  38
TORSDOF 6
ENDMDL
MODEL 3
REMARK VINA RESULT:    -8.409      3.306      6.575
REMARK INTER + INTRA:         -10.903
REMARK INTER:                 -10.316
REMARK INTRA:                  -0.587
REMARK UNBOUND:                -0.528
REMARK  Name = 
REMARK  6 active torsions:
REMARK  status: ('A' for Active; 'I' for Inactive)
REMARK    1  A    between atoms: O_1  and  C_2
REMARK    2  A    between atoms: C_8  and  O_9
REMARK    3  A    between atoms: C_10  and  O_11
REMARK    4  A    between atoms: N_13  and  C_14
REMARK    5  A    between atoms: C_14  and  C_15
REMARK    6  A    between atoms: C_24  and  O_25
REMARK                            x       y       z     vdW  Elec       q    Type
REMARK                         _______ _______ _______ _____ _____    ______ ____
ROOT
ATOM      1  C   UNL     1     -11.210  -5.074  15.792  0.00  0.00    +0.000 A 
ATOM      2  C   UNL     1     -10.791  -6.333  15.361  0.00  0.00    +0.000 A 
ATOM      3  C   UNL     1     -10.238  -7.233  16.296  0.00  0.00    +0.000 A 
ATOM      4  C   UNL     1      -9.734  -8.563  16.192  0.00  0.00    +0.000 A 
ATOM      5  C   UNL     1      -9.547  -9.446  15.103  0.00  0.00    +0.000 A 
ATOM      6  C   UNL     1      -9.068 -10.742  15.324  0.00  0.00    +0.000 A 
ATOM      7  C   UNL     1      -8.825 -11.167  16.621  0.00  0.00    +0.000 A 
ATOM      8  C   UNL     1      -9.009 -10.315  17.713  0.00  0.00    +0.000 A 
ATOM      9  C   UNL     1      -9.413  -8.995  17.481  0.00  0.00    +0.000 A 
ATOM     10  N   UNL     1      -9.559  -7.906  18.321  0.00  0.00    +0.000 N 
ATOM     11  C   UNL     1     -10.125  -6.840  17.636  0.00  0.00    +0.000 A 
ATOM     12  C   UNL     1     -10.528  -5.564  18.074  0.00  0.00    +0.000 A 
ATOM     13  C   UNL     1     -11.076  -4.696  17.123  0.00  0.00    +0.000 A 
ATOM     14  H   UNL     1     -10.891  -6.635  14.325  0.00  0.00    +0.000 HD
ATOM     15  H   UNL     1      -9.768  -9.114  14.092  0.00  0.00    +0.000 HD
ATOM     16  H   UNL     1      -8.914 -11.399  14.475  0.00  0.00    +0.000 HD
ATOM     17  H   UNL     1     -10.433  -5.277  19.114  0.00  0.00    +0.000 HD
ENDROOT
BRANCH  10  18
ATOM     18  C   UNL     1      -9.026  -7.833  19.683  0.00  0.00    +0.000 C 
ATOM     19  H   UNL     1      -8.642  -8.837  19.906  0.00  0.00    +0.000 HD
ATOM     20  H   UNL     1      -9.853  -7.655  20.376  0.00  0.00    +0.000 HD
BRANCH  18  21
ATOM     21  C   UNL     1      -7.918  -6.827  19.899  0.00  0.00    +0.000 A 
ATOM     22  C   UNL     1      -6.612  -6.993  19.420  0.00  0.00    +0.000 A 
ATOM     23  C   UNL     1      -5.618  -6.057  19.724  0.00  0.00    +0.000 A 
ATOM     24  C   UNL     1      -5.927  -4.936  20.489  0.00  0.00    +0.000 A 
ATOM     25 BR   UNL     1      -4.565  -3.714  20.960  0.00  0.00    +0.000 Br
ATOM     26  C   UNL     1      -7.232  -4.718  20.920  0.00  0.00    +0.000 A 
ATOM     27  C   UNL     1      -8.221  -5.657  20.622  0.00  0.00    +0.000 A 
ATOM     28  H   UNL     1      -6.342  -7.855  18.815  0.00  0.00    +0.000 HD
ATOM     29  H   UNL     1      -4.607  -6.220  19.365  0.00  0.00    +0.000 HD
ATOM     30  H   UNL     1      -7.485  -3.833  21.497  0.00  0.00    +0.000 HD
ATOM     31  H   UNL     1      -9.238  -5.476  20.969  0.00  0.00    +0.000 HD
ENDBRANCH  18  21
ENDBRANCH  10  18
BRANCH   1  32
ATOM     32  O   UNL     1     -11.771  -4.201  14.899  0.00  0.00    +0.000 OA
ATOM     33  H   UNL     1     -12.431  -4.669  14.368  0.00  0.00    +0.000 HD
ENDBRANCH   1  32
BRANCH   7  34
ATOM     34  O   UNL     1      -8.388 -12.438  16.886  0.00  0.00    +0.000 OA
ATOM     35  H   UNL     1      -8.445 -12.951  16.061  0.00  0.00    +0.000 HD
ENDBRANCH   7  34
BRANCH   8  36
ATOM     36  O   UNL     1      -8.809 -10.803  18.980  0.00  0.00    +0.000 OA
ATOM     37  H   UNL     1      -7.994 -10.355  19.284  0.00  0.00    +0.000 HD
ENDBRANCH   8  36
BRANCH  13  38
ATOM     38  O   UNL     1     -11.497  -3.450  17.503  0.00  0.00    +0.000 OA
ATOM     39  H   UNL     1     -11.567  -3.421  18.470  0.00  0.00    +0.000 HD
ENDBRANCH  13  38
TORSDOF 6
ENDMDL
MODEL 4
REMARK VINA RESULT:    -7.986      3.615      5.976
REMARK INTER + INTRA:         -10.381
REMARK INTER:                  -9.632
REMARK INTRA:                  -0.749
REMARK UNBOUND:                -0.528
REMARK  Name = 
REMARK  6 active torsions:
REMARK  status: ('A' for Active; 'I' for Inactive)
REMARK    1  A    between atoms: O_1  and  C_2
REMARK    2  A    between atoms: C_8  and  O_9
REMARK    3  A    between atoms: C_10  and  O_11
REMARK    4  A    between atoms: N_13  and  C_14
REMARK    5  A    between atoms: C_14  and  C_15
REMARK    6  A    between atoms: C_24  and  O_25
REMARK                            x       y       z     vdW  Elec       q    Type
REMARK                         _______ _______ _______ _____ _____    ______ ____
ROOT
ATOM      1  C   UNL     1      -7.332  -4.176  20.847  0.00  0.00    +0.000 A 
ATOM      2  C   UNL     1      -7.512  -5.388  20.179  0.00  0.00    +0.000 A 
ATOM      3  C   UNL     1      -8.570  -5.517  19.255  0.00  0.00    +0.000 A 
ATOM      4  C   UNL     1      -9.013  -6.585  18.420  0.00  0.00    +0.000 A 
ATOM      5  C   UNL     1      -8.593  -7.925  18.256  0.00  0.00    +0.000 A 
ATOM      6  C   UNL     1      -9.203  -8.739  17.296  0.00  0.00    +0.000 A 
ATOM      7  C   UNL     1     -10.186  -8.209  16.477  0.00  0.00    +0.000 A 
ATOM      8  C   UNL     1     -10.613  -6.885  16.616  0.00  0.00    +0.000 A 
ATOM      9  C   UNL     1     -10.056  -6.097  17.630  0.00  0.00    +0.000 A 
ATOM     10  N   UNL     1     -10.348  -4.825  18.085  0.00  0.00    +0.000 N 
ATOM     11  C   UNL     1      -9.414  -4.423  19.029  0.00  0.00    +0.000 A 
ATOM     12  C   UNL     1      -9.251  -3.203  19.713  0.00  0.00    +0.000 A 
ATOM     13  C   UNL     1      -8.191  -3.106  20.621  0.00  0.00    +0.000 A 
ATOM     14  H   UNL     1      -6.848  -6.228  20.351  0.00  0.00    +0.000 HD
ATOM     15  H   UNL     1      -7.800  -8.325  18.882  0.00  0.00    +0.000 HD
ATOM     16  H   UNL     1      -8.879  -9.771  17.197  0.00  0.00    +0.000 HD
ATOM     17  H   UNL     1      -9.914  -2.368  19.527  0.00  0.00    +0.000 HD
ENDROOT
BRANCH  10  18
ATOM     18  C   UNL     1     -11.570  -4.087  17.755  0.00  0.00    +0.000 C 
ATOM     19  H   UNL     1     -11.854  -3.556  18.673  0.00  0.00    +0.000 HD
ATOM     20  H   UNL     1     -12.371  -4.804  17.552  0.00  0.00    +0.000 HD
BRANCH  18  21
ATOM     21  C   UNL     1     -11.446  -3.086  16.629  0.00  0.00    +0.000 A 
ATOM     22  C   UNL     1     -10.357  -3.035  15.749  0.00  0.00    +0.000 A 
ATOM     23  C   UNL     1     -10.273  -2.032  14.778  0.00  0.00    +0.000 A 
ATOM     24  C   UNL     1     -11.289  -1.087  14.662  0.00  0.00    +0.000 A 
ATOM     25 BR   UNL     1     -11.135   0.310  13.399  0.00  0.00    +0.000 Br
ATOM     26  C   UNL     1     -12.410  -1.157  15.483  0.00  0.00    +0.000 A 
ATOM     27  C   UNL     1     -12.489  -2.155  16.457  0.00  0.00    +0.000 A 
ATOM     28  H   UNL     1      -9.552  -3.764  15.810  0.00  0.00    +0.000 HD
ATOM     29  H   UNL     1      -9.408  -1.996  14.124  0.00  0.00    +0.000 HD
ATOM     30  H   UNL     1     -13.217  -0.438  15.382  0.00  0.00    +0.000 HD
ATOM     31  H   UNL     1     -13.371  -2.196  17.095  0.00  0.00    +0.000 HD
ENDBRANCH  18  21
ENDBRANCH  10  18
BRANCH   1  32
ATOM     32  O   UNL     1      -6.294  -4.031  21.728  0.00  0.00    +0.000 OA
ATOM     33  H   UNL     1      -5.937  -3.134  21.651  0.00  0.00    +0.000 HD
ENDBRANCH   1  32
BRANCH   7  34
ATOM     34  O   UNL     1     -10.787  -8.960  15.501  0.00  0.00    +0.000 OA
ATOM     35  H   UNL     1     -11.237  -8.351  14.891  0.00  0.00    +0.000 HD
ENDBRANCH   7  34
BRANCH   8  36
ATOM     36  O   UNL     1     -11.550  -6.392  15.742  0.00  0.00    +0.000 OA
ATOM     37  H   UNL     1     -11.032  -6.136  14.954  0.00  0.00    +0.000 HD
ENDBRANCH   8  36
BRANCH  13  38
ATOM     38  O   UNL     1      -7.982  -1.935  21.299  0.00  0.00    +0.000 OA
ATOM     39  H   UNL     1      -7.135  -1.555  21.020  0.00  0.00    +0.000 HD
ENDBRANCH  13  38
TORSDOF 6
ENDMDL
MODEL 5
REMARK VINA RESULT:    -7.921      3.570      6.650
REMARK INTER + INTRA:         -10.301
REMARK INTER:                  -9.465
REMARK INTRA:                  -0.836
REMARK UNBOUND:                -0.528
REMARK  Name = 
REMARK  6 active torsions:
REMARK  status: ('A' for Active; 'I' for Inactive)
REMARK    1  A    between atoms: O_1  and  C_2
REMARK    2  A    between atoms: C_8  and  O_9
REMARK    3  A    between atoms: C_10  and  O_11
REMARK    4  A    between atoms: N_13  and  C_14
REMARK    5  A    between atoms: C_14  and  C_15
REMARK    6  A    between atoms: C_24  and  O_25
REMARK                            x       y       z     vdW  Elec       q    Type
REMARK                         _______ _______ _______ _____ _____    ______ ____
ROOT
ATOM      1  C   UNL     1      -9.585  -8.832  16.779  0.00  0.00    +0.000 A 
ATOM      2  C   UNL     1      -8.590  -8.216  17.538  0.00  0.00    +0.000 A 
ATOM      3  C   UNL     1      -8.837  -6.944  18.098  0.00  0.00    +0.000 A 
ATOM      4  C   UNL     1      -8.059  -6.067  18.909  0.00  0.00    +0.000 A 
ATOM      5  C   UNL     1      -6.735  -6.121  19.401  0.00  0.00    +0.000 A 
ATOM      6  C   UNL     1      -6.256  -5.109  20.240  0.00  0.00    +0.000 A 
ATOM      7  C   UNL     1      -7.103  -4.081  20.622  0.00  0.00    +0.000 A 
ATOM      8  C   UNL     1      -8.418  -4.010  20.153  0.00  0.00    +0.000 A 
ATOM      9  C   UNL     1      -8.869  -4.982  19.252  0.00  0.00    +0.000 A 
ATOM     10  N   UNL     1     -10.045  -5.112  18.537  0.00  0.00    +0.000 N 
ATOM     11  C   UNL     1     -10.077  -6.332  17.878  0.00  0.00    +0.000 A 
ATOM     12  C   UNL     1     -11.079  -6.940  17.097  0.00  0.00    +0.000 A 
ATOM     13  C   UNL     1     -10.806  -8.202  16.559  0.00  0.00    +0.000 A 
ATOM     14  H   UNL     1      -7.636  -8.700  17.713  0.00  0.00    +0.000 HD
ATOM     15  H   UNL     1      -6.086  -6.947  19.122  0.00  0.00    +0.000 HD
ATOM     16  H   UNL     1      -5.231  -5.158  20.593  0.00  0.00    +0.000 HD
ATOM     17  H   UNL     1     -12.033  -6.451  16.937  0.00  0.00    +0.000 HD
ENDROOT
BRANCH  10  18
ATOM     18  C   UNL     1     -11.026  -4.040  18.354  0.00  0.00    +0.000 C 
ATOM     19  H   UNL     1     -10.962  -3.421  19.259  0.00  0.00    +0.000 HD
ATOM     20  H   UNL     1     -12.029  -4.478  18.349  0.00  0.00    +0.000 HD
BRANCH  18  21
ATOM     21  C   UNL     1     -10.818  -3.159  17.143  0.00  0.00    +0.000 A 
ATOM     22  C   UNL     1     -10.002  -2.021  17.140  0.00  0.00    +0.000 A 
ATOM     23  C   UNL     1      -9.916  -1.209  16.005  0.00  0.00    +0.000 A 
ATOM     24  C   UNL     1     -10.627  -1.542  14.855  0.00  0.00    +0.000 A 
ATOM     25 BR   UNL     1     -10.568  -0.403  13.349  0.00  0.00    +0.000 Br
ATOM     26  C   UNL     1     -11.392  -2.703  14.814  0.00  0.00    +0.000 A 
ATOM     27  C   UNL     1     -11.482  -3.509  15.952  0.00  0.00    +0.000 A 
ATOM     28  H   UNL     1      -9.430  -1.738  18.021  0.00  0.00    +0.000 HD
ATOM     29  H   UNL     1      -9.299  -0.317  16.034  0.00  0.00    +0.000 HD
ATOM     30  H   UNL     1     -11.930  -2.983  13.913  0.00  0.00    +0.000 HD
ATOM     31  H   UNL     1     -12.088  -4.413  15.907  0.00  0.00    +0.000 HD
ENDBRANCH  18  21
ENDBRANCH  10  18
BRANCH   1  32
ATOM     32  O   UNL     1      -9.368 -10.077  16.251  0.00  0.00    +0.000 OA
ATOM     33  H   UNL     1      -9.197  -9.994  15.302  0.00  0.00    +0.000 HD
ENDBRANCH   1  32
BRANCH   7  34
ATOM     34  O   UNL     1      -6.686  -3.087  21.468  0.00  0.00    +0.000 OA
ATOM     35  H   UNL     1      -5.856  -2.724  21.114  0.00  0.00    +0.000 HD
ENDBRANCH   7  34
BRANCH   8  36
ATOM     36  O   UNL     1      -9.233  -3.003  20.606  0.00  0.00    +0.000 OA
ATOM     37  H   UNL     1      -9.135  -2.295  19.938  0.00  0.00    +0.000 HD
ENDBRANCH   8  36
BRANCH  13  38
ATOM     38  O   UNL     1     -11.754  -8.840  15.805  0.00  0.00    +0.000 OA
ATOM     39  H   UNL     1     -12.567  -8.925  16.326  0.00  0.00    +0.000 HD
ENDBRANCH  13  38
TORSDOF 6
ENDMDL
MODEL 6
REMARK VINA RESULT:    -7.827      3.991      7.099
REMARK INTER + INTRA:         -10.185
REMARK INTER:                 -10.871
REMARK INTRA:                   0.686
REMARK UNBOUND:                -0.528
REMARK  Name = 
REMARK  6 active torsions:
REMARK  status: ('A' for Active; 'I' for Inactive)
REMARK    1  A    between atoms: O_1  and  C_2
REMARK    2  A    between atoms: C_8  and  O_9
REMARK    3  A    between atoms: C_10  and  O_11
REMARK    4  A    between atoms: N_13  and  C_14
REMARK    5  A    between atoms: C_14  and  C_15
REMARK    6  A    between atoms: C_24  and  O_25
REMARK                            x       y       z     vdW  Elec       q    Type
REMARK                         _______ _______ _______ _____ _____    ______ ____
ROOT
ATOM      1  C   UNL     1      -8.738  -9.494  20.680  0.00  0.00    +0.000 A 
ATOM      2  C   UNL     1      -8.736 -10.808  20.210  0.00  0.00    +0.000 A 
ATOM      3  C   UNL     1      -8.779 -11.043  18.820  0.00  0.00    +0.000 A 
ATOM      4  C   UNL     1      -8.780 -12.231  18.030  0.00  0.00    +0.000 A 
ATOM      5  C   UNL     1      -8.800 -13.608  18.351  0.00  0.00    +0.000 A 
ATOM      6  C   UNL     1      -8.741 -14.566  17.333  0.00  0.00    +0.000 A 
ATOM      7  C   UNL     1      -8.614 -14.156  16.016  0.00  0.00    +0.000 A 
ATOM      8  C   UNL     1      -8.586 -12.801  15.675  0.00  0.00    +0.000 A 
ATOM      9  C   UNL     1      -8.725 -11.845  16.689  0.00  0.00    +0.000 A 
ATOM     10  N   UNL     1      -8.854 -10.469  16.658  0.00  0.00    +0.000 N 
ATOM     11  C   UNL     1      -8.821  -9.951  17.945  0.00  0.00    +0.000 A 
ATOM     12  C   UNL     1      -8.842  -8.623  18.412  0.00  0.00    +0.000 A 
ATOM     13  C   UNL     1      -8.795  -8.422  19.796  0.00  0.00    +0.000 A 
ATOM     14  H   UNL     1      -8.693 -11.648  20.893  0.00  0.00    +0.000 HD
ATOM     15  H   UNL     1      -8.869 -13.922  19.389  0.00  0.00    +0.000 HD
ATOM     16  H   UNL     1      -8.775 -15.618  17.598  0.00  0.00    +0.000 HD
ATOM     17  H   UNL     1      -8.876  -7.790  17.721  0.00  0.00    +0.000 HD
ENDROOT
BRANCH  10  18
ATOM     18  C   UNL     1      -9.165  -9.693  15.455  0.00  0.00    +0.000 C 
ATOM     19  H   UNL     1      -9.939 -10.264  14.925  0.00  0.00    +0.000 HD
ATOM     20  H   UNL     1      -8.286  -9.684  14.804  0.00  0.00    +0.000 HD
BRANCH  18  21
ATOM     21  C   UNL     1      -9.670  -8.288  15.693  0.00  0.00    +0.000 A 
ATOM     22  C   UNL     1      -8.921  -7.136  15.423  0.00  0.00    +0.000 A 
ATOM     23  C   UNL     1      -9.423  -5.869  15.740  0.00  0.00    +0.000 A 
ATOM     24  C   UNL     1     -10.688  -5.744  16.308  0.00  0.00    +0.000 A 
ATOM     25 BR   UNL     1     -11.331  -4.038  16.804  0.00  0.00    +0.000 Br
ATOM     26  C   UNL     1     -11.476  -6.870  16.525  0.00  0.00    +0.000 A 
ATOM     27  C   UNL     1     -10.969  -8.134  16.214  0.00  0.00    +0.000 A 
ATOM     28  H   UNL     1      -7.932  -7.201  14.974  0.00  0.00    +0.000 HD
ATOM     29  H   UNL     1      -8.814  -4.992  15.547  0.00  0.00    +0.000 HD
ATOM     30  H   UNL     1     -12.473  -6.777  16.944  0.00  0.00    +0.000 HD
ATOM     31  H   UNL     1     -11.595  -9.007  16.392  0.00  0.00    +0.000 HD
ENDBRANCH  18  21
ENDBRANCH  10  18
BRANCH   1  32
ATOM     32  O   UNL     1      -8.671  -9.251  22.026  0.00  0.00    +0.000 OA
ATOM     33  H   UNL     1      -8.516  -8.307  22.171  0.00  0.00    +0.000 HD
ENDBRANCH   1  32
BRANCH   7  34
ATOM     34  O   UNL     1      -8.519 -15.060  14.991  0.00  0.00    +0.000 OA
ATOM     35  H   UNL     1      -7.791 -15.672  15.200  0.00  0.00    +0.000 HD
ENDBRANCH   7  34
BRANCH   8  36
ATOM     36  O   UNL     1      -8.402 -12.447  14.362  0.00  0.00    +0.000 OA
ATOM     37  H   UNL     1      -7.993 -13.236  13.955  0.00  0.00    +0.000 HD
ENDBRANCH   8  36
BRANCH  13  38
ATOM     38  O   UNL     1      -8.799  -7.149  20.299  0.00  0.00    +0.000 OA
ATOM     39  H   UNL     1      -8.752  -7.191  21.266  0.00  0.00    +0.000 HD
ENDBRANCH  13  38
TORSDOF 6
ENDMDL
MODEL 7
REMARK VINA RESULT:    -7.810      3.513      6.441
REMARK INTER + INTRA:         -10.165
REMARK INTER:                 -10.315
REMARK INTRA:                   0.150
REMARK UNBOUND:                -0.528
REMARK  Name = 
REMARK  6 active torsions:
REMARK  status: ('A' for Active; 'I' for Inactive)
REMARK    1  A    between atoms: O_1  and  C_2
REMARK    2  A    between atoms: C_8  and  O_9
REMARK    3  A    between atoms: C_10  and  O_11
REMARK    4  A    between atoms: N_13  and  C_14
REMARK    5  A    between atoms: C_14  and  C_15
REMARK    6  A    between atoms: C_24  and  O_25
REMARK                            x       y       z     vdW  Elec       q    Type
REMARK                         _______ _______ _______ _____ _____    ______ ____
ROOT
ATOM      1  C   UNL     1      -8.637 -12.469  16.900  0.00  0.00    +0.000 A 
ATOM      2  C   UNL     1      -8.781 -11.453  15.955  0.00  0.00    +0.000 A 
ATOM      3  C   UNL     1      -8.873 -10.114  16.389  0.00  0.00    +0.000 A 
ATOM      4  C   UNL     1      -9.014  -8.872  15.703  0.00  0.00    +0.000 A 
ATOM      5  C   UNL     1      -9.173  -8.531  14.340  0.00  0.00    +0.000 A 
ATOM      6  C   UNL     1      -9.233  -7.187  13.955  0.00  0.00    +0.000 A 
ATOM      7  C   UNL     1      -9.086  -6.196  14.913  0.00  0.00    +0.000 A 
ATOM      8  C   UNL     1      -8.921  -6.509  16.265  0.00  0.00    +0.000 A 
ATOM      9  C   UNL     1      -8.941  -7.853  16.655  0.00  0.00    +0.000 A 
ATOM     10  N   UNL     1      -8.925  -8.461  17.897  0.00  0.00    +0.000 N 
ATOM     11  C   UNL     1      -8.815  -9.837  17.760  0.00  0.00    +0.000 A 
ATOM     12  C   UNL     1      -8.688 -10.858  18.722  0.00  0.00    +0.000 A 
ATOM     13  C   UNL     1      -8.596 -12.175  18.259  0.00  0.00    +0.000 A 
ATOM     14  H   UNL     1      -8.815 -11.673  14.894  0.00  0.00    +0.000 HD
ATOM     15  H   UNL     1      -9.256  -9.313  13.591  0.00  0.00    +0.000 HD
ATOM     16  H   UNL     1      -9.373  -6.944  12.907  0.00  0.00    +0.000 HD
ATOM     17  H   UNL     1      -8.646 -10.626  19.778  0.00  0.00    +0.000 HD
ENDROOT
BRANCH  10  18
ATOM     18  C   UNL     1      -9.173  -7.766  19.163  0.00  0.00    +0.000 C 
ATOM     19  H   UNL     1      -9.261  -8.554  19.922  0.00  0.00    +0.000 HD
ATOM     20  H   UNL     1     -10.150  -7.276  19.110  0.00  0.00    +0.000 HD
BRANCH  18  21
ATOM     21  C   UNL     1      -8.104  -6.788  19.595  0.00  0.00    +0.000 A 
ATOM     22  C   UNL     1      -6.735  -6.985  19.375  0.00  0.00    +0.000 A 
ATOM     23  C   UNL     1      -5.796  -6.075  19.870  0.00  0.00    +0.000 A 
ATOM     24  C   UNL     1      -6.220  -4.947  20.568  0.00  0.00    +0.000 A 
ATOM     25 BR   UNL     1      -4.946  -3.760  21.301  0.00  0.00    +0.000 Br
ATOM     26  C   UNL     1      -7.577  -4.698  20.742  0.00  0.00    +0.000 A 
ATOM     27  C   UNL     1      -8.513  -5.613  20.253  0.00  0.00    +0.000 A 
ATOM     28  H   UNL     1      -6.373  -7.853  18.827  0.00  0.00    +0.000 HD
ATOM     29  H   UNL     1      -4.739  -6.261  19.711  0.00  0.00    +0.000 HD
ATOM     30  H   UNL     1      -7.916  -3.808  21.264  0.00  0.00    +0.000 HD
ATOM     31  H   UNL     1      -9.573  -5.407  20.399  0.00  0.00    +0.000 HD
ENDBRANCH  18  21
ENDBRANCH  10  18
BRANCH   1  32
ATOM     32  O   UNL     1      -8.521 -13.770  16.490  0.00  0.00    +0.000 OA
ATOM     33  H   UNL     1      -9.097 -13.914  15.726  0.00  0.00    +0.000 HD
ENDBRANCH   1  32
BRANCH   7  34
ATOM     34  O   UNL     1      -9.105  -4.867  14.576  0.00  0.00    +0.000 OA
ATOM     35  H   UNL     1      -9.654  -4.402  15.231  0.00  0.00    +0.000 HD
ENDBRANCH   7  34
BRANCH   8  36
ATOM     36  O   UNL     1      -8.724  -5.492  17.166  0.00  0.00    +0.000 OA
ATOM     37  H   UNL     1      -8.950  -4.682  16.667  0.00  0.00    +0.000 HD
ENDBRANCH   8  36
BRANCH  13  38
ATOM     38  O   UNL     1      -8.457 -13.202  19.154  0.00  0.00    +0.000 OA
ATOM     39  H   UNL     1      -9.244 -13.767  19.112  0.00  0.00    +0.000 HD
ENDBRANCH  13  38
TORSDOF 6
ENDMDL
MODEL 8
REMARK VINA RESULT:    -7.594      3.527      7.225
REMARK INTER + INTRA:          -9.898
REMARK INTER:                  -9.079
REMARK INTRA:                  -0.819
REMARK UNBOUND:                -0.528
REMARK  Name = 
REMARK  6 active torsions:
REMARK  status: ('A' for Active; 'I' for Inactive)
REMARK    1  A    between atoms: O_1  and  C_2
REMARK    2  A    between atoms: C_8  and  O_9
REMARK    3  A    between atoms: C_10  and  O_11
REMARK    4  A    between atoms: N_13  and  C_14
REMARK    5  A    between atoms: C_14  and  C_15
REMARK    6  A    between atoms: C_24  and  O_25
REMARK                            x       y       z     vdW  Elec       q    Type
REMARK                         _______ _______ _______ _____ _____    ______ ____
ROOT
ATOM      1  C   UNL     1      -9.163  -7.574  16.344  0.00  0.00    +0.000 A 
ATOM      2  C   UNL     1      -8.003  -7.228  17.038  0.00  0.00    +0.000 A 
ATOM      3  C   UNL     1      -8.055  -6.192  17.994  0.00  0.00    +0.000 A 
ATOM      4  C   UNL     1      -7.082  -5.613  18.860  0.00  0.00    +0.000 A 
ATOM      5  C   UNL     1      -5.694  -5.822  19.036  0.00  0.00    +0.000 A 
ATOM      6  C   UNL     1      -4.999  -5.122  20.028  0.00  0.00    +0.000 A 
ATOM      7  C   UNL     1      -5.689  -4.261  20.866  0.00  0.00    +0.000 A 
ATOM      8  C   UNL     1      -7.061  -4.043  20.716  0.00  0.00    +0.000 A 
ATOM      9  C   UNL     1      -7.738  -4.685  19.672  0.00  0.00    +0.000 A 
ATOM     10  N   UNL     1      -9.034  -4.582  19.202  0.00  0.00    +0.000 N 
ATOM     11  C   UNL     1      -9.271  -5.538  18.225  0.00  0.00    +0.000 A 
ATOM     12  C   UNL     1     -10.441  -5.869  17.515  0.00  0.00    +0.000 A 
ATOM     13  C   UNL     1     -10.359  -6.903  16.576  0.00  0.00    +0.000 A 
ATOM     14  H   UNL     1      -7.068  -7.746  16.862  0.00  0.00    +0.000 HD
ATOM     15  H   UNL     1      -5.166  -6.523  18.394  0.00  0.00    +0.000 HD
ATOM     16  H   UNL     1      -3.931  -5.283  20.136  0.00  0.00    +0.000 HD
ATOM     17  H   UNL     1     -11.374  -5.352  17.705  0.00  0.00    +0.000 HD
ENDROOT
BRANCH  10  18
ATOM     18  C   UNL     1      -9.960  -3.503  19.555  0.00  0.00    +0.000 C 
ATOM     19  H   UNL     1      -9.801  -3.313  20.625  0.00  0.00    +0.000 HD
ATOM     20  H   UNL     1     -10.985  -3.872  19.456  0.00  0.00    +0.000 HD
BRANCH  18  21
ATOM     21  C   UNL     1      -9.779  -2.209  18.795  0.00  0.00    +0.000 A 
ATOM     22  C   UNL     1      -9.942  -2.092  17.409  0.00  0.00    +0.000 A 
ATOM     23  C   UNL     1      -9.683  -0.879  16.761  0.00  0.00    +0.000 A 
ATOM     24  C   UNL     1      -9.282   0.232  17.498  0.00  0.00    +0.000 A 
ATOM     25 BR   UNL     1      -8.861   1.846  16.611  0.00  0.00    +0.000 Br
ATOM     26  C   UNL     1      -9.176   0.156  18.883  0.00  0.00    +0.000 A 
ATOM     27  C   UNL     1      -9.428  -1.058  19.527  0.00  0.00    +0.000 A 
ATOM     28  H   UNL     1     -10.261  -2.940  16.807  0.00  0.00    +0.000 HD
ATOM     29  H   UNL     1      -9.791  -0.818  15.683  0.00  0.00    +0.000 HD
ATOM     30  H   UNL     1      -8.888   1.025  19.467  0.00  0.00    +0.000 HD
ATOM     31  H   UNL     1      -9.338  -1.105  20.611  0.00  0.00    +0.000 HD
ENDBRANCH  18  21
ENDBRANCH  10  18
BRANCH   1  32
ATOM     32  O   UNL     1      -9.132  -8.594  15.431  0.00  0.00    +0.000 OA
ATOM     33  H   UNL     1      -8.239  -8.666  15.065  0.00  0.00    +0.000 HD
ENDBRANCH   1  32
BRANCH   7  34
ATOM     34  O   UNL     1      -5.054  -3.580  21.872  0.00  0.00    +0.000 OA
ATOM     35  H   UNL     1      -4.431  -4.194  22.299  0.00  0.00    +0.000 HD
ENDBRANCH   7  34
BRANCH   8  36
ATOM     36  O   UNL     1      -7.707  -3.223  21.607  0.00  0.00    +0.000 OA
ATOM     37  H   UNL     1      -8.571  -3.044  21.185  0.00  0.00    +0.000 HD
ENDBRANCH   8  36
BRANCH  13  38
ATOM     38  O   UNL     1     -11.473  -7.271  15.870  0.00  0.00    +0.000 OA
ATOM     39  H   UNL     1     -11.260  -8.043  15.324  0.00  0.00    +0.000 HD
ENDBRANCH  13  38
TORSDOF 6
ENDMDL
MODEL 9
REMARK VINA RESULT:    -7.506      3.702      6.661
REMARK INTER + INTRA:          -9.790
REMARK INTER:                  -9.037
REMARK INTRA:                  -0.752
REMARK UNBOUND:                -0.528
REMARK  Name = 
REMARK  6 active torsions:
REMARK  status: ('A' for Active; 'I' for Inactive)
REMARK    1  A    between atoms: O_1  and  C_2
REMARK    2  A    between atoms: C_8  and  O_9
REMARK    3  A    between atoms: C_10  and  O_11
REMARK    4  A    between atoms: N_13  and  C_14
REMARK    5  A    between atoms: C_14  and  C_15
REMARK    6  A    between atoms: C_24  and  O_25
REMARK                            x       y       z     vdW  Elec       q    Type
REMARK                         _______ _______ _______ _____ _____    ______ ____
ROOT
ATOM      1  C   UNL     1     -12.482   0.212  21.397  0.00  0.00    +0.000 A 
ATOM      2  C   UNL     1     -12.069  -0.501  22.523  0.00  0.00    +0.000 A 
ATOM      3  C   UNL     1     -10.893  -1.277  22.455  0.00  0.00    +0.000 A 
ATOM      4  C   UNL     1     -10.207  -2.096  23.400  0.00  0.00    +0.000 A 
ATOM      5  C   UNL     1     -10.486  -2.479  24.732  0.00  0.00    +0.000 A 
ATOM      6  C   UNL     1      -9.574  -3.270  25.440  0.00  0.00    +0.000 A 
ATOM      7  C   UNL     1      -8.377  -3.633  24.842  0.00  0.00    +0.000 A 
ATOM      8  C   UNL     1      -8.077  -3.260  23.529  0.00  0.00    +0.000 A 
ATOM      9  C   UNL     1      -9.026  -2.536  22.798  0.00  0.00    +0.000 A 
ATOM     10  N   UNL     1      -9.073  -2.135  21.475  0.00  0.00    +0.000 N 
ATOM     11  C   UNL     1     -10.167  -1.310  21.258  0.00  0.00    +0.000 A 
ATOM     12  C   UNL     1     -10.588  -0.608  20.112  0.00  0.00    +0.000 A 
ATOM     13  C   UNL     1     -11.756   0.155  20.213  0.00  0.00    +0.000 A 
ATOM     14  H   UNL     1     -12.630  -0.463  23.449  0.00  0.00    +0.000 HD
ATOM     15  H   UNL     1     -11.412  -2.165  25.204  0.00  0.00    +0.000 HD
ATOM     16  H   UNL     1      -9.813  -3.569  26.455  0.00  0.00    +0.000 HD
ATOM     17  H   UNL     1     -10.014  -0.646  19.194  0.00  0.00    +0.000 HD
ENDROOT
BRANCH  10  18
ATOM     18  C   UNL     1      -8.200  -2.656  20.421  0.00  0.00    +0.000 C 
ATOM     19  H   UNL     1      -7.192  -2.682  20.855  0.00  0.00    +0.000 HD
ATOM     20  H   UNL     1      -8.165  -1.931  19.602  0.00  0.00    +0.000 HD
BRANCH  18  21
ATOM     21  C   UNL     1      -8.545  -4.034  19.904  0.00  0.00    +0.000 A 
ATOM     22  C   UNL     1      -7.917  -5.208  20.339  0.00  0.00    +0.000 A 
ATOM     23  C   UNL     1      -8.234  -6.442  19.761  0.00  0.00    +0.000 A 
ATOM     24  C   UNL     1      -9.200  -6.515  18.762  0.00  0.00    +0.000 A 
ATOM     25 BR   UNL     1      -9.572  -8.171  17.932  0.00  0.00    +0.000 Br
ATOM     26  C   UNL     1      -9.883  -5.371  18.360  0.00  0.00    +0.000 A 
ATOM     27  C   UNL     1      -9.559  -4.139  18.933  0.00  0.00    +0.000 A 
ATOM     28  H   UNL     1      -7.163  -5.184  21.123  0.00  0.00    +0.000 HD
ATOM     29  H   UNL     1      -7.715  -7.334  20.095  0.00  0.00    +0.000 HD
ATOM     30  H   UNL     1     -10.655  -5.425  17.598  0.00  0.00    +0.000 HD
ATOM     31  H   UNL     1     -10.100  -3.252  18.607  0.00  0.00    +0.000 HD
ENDBRANCH  18  21
ENDBRANCH  10  18
BRANCH   1  32
ATOM     32  O   UNL     1     -13.609   0.988  21.458  0.00  0.00    +0.000 OA
ATOM     33  H   UNL     1     -13.431   1.763  22.011  0.00  0.00    +0.000 HD
ENDBRANCH   1  32
BRANCH   7  34
ATOM     34  O   UNL     1      -7.441  -4.378  25.510  0.00  0.00    +0.000 OA
ATOM     35  H   UNL     1      -7.823  -4.637  26.367  0.00  0.00    +0.000 HD
ENDBRANCH   7  34
BRANCH   8  36
ATOM     36  O   UNL     1      -6.855  -3.597  23.003  0.00  0.00    +0.000 OA
ATOM     37  H   UNL     1      -6.964  -3.466  22.040  0.00  0.00    +0.000 HD
ENDBRANCH   8  36
BRANCH  13  38
ATOM     38  O   UNL     1     -12.198   0.867  19.130  0.00  0.00    +0.000 OA
ATOM     39  H   UNL     1     -12.153   0.304  18.342  0.00  0.00    +0.000 HD
ENDBRANCH  13  38
TORSDOF 6
ENDMDL
