REMARK  Name = 
REMARK  5 active torsions:
REMARK  status: ('A' for Active; 'I' for Inactive)
REMARK    1  A    between atoms: C_1  and  N_2
REMARK    2  A    between atoms: N_2  and  C_3
REMARK    3  A    between atoms: C_7  and  C_8
REMARK    4  A    between atoms: C_9  and  O_10
REMARK    5  A    between atoms: O_10  and  C_11
REMARK                            x       y       z     vdW  Elec       q    Type
REMARK                         _______ _______ _______ _____ _____    ______ ____
ROOT
ATOM      1  C   UNL     1       3.190  -0.945  -0.130  0.00  0.00    +0.000 C 
ATOM      2  C   UNL     1       2.074  -1.743   0.559  0.00  0.00    +0.000 C 
ATOM      3  C   UNL     1       0.983  -2.043  -0.450  0.00  0.00    +0.000 C 
ATOM      4  O   UNL     1       1.095  -1.261  -1.640  0.00  0.00    +0.000 OA
ATOM      5  C   UNL     1       1.293   0.171  -1.469  0.00  0.00    +0.000 C 
ATOM      6  C   UNL     1       2.586   0.436  -0.565  0.00  0.00    +0.000 C 
ATOM      7  N   UNL     1       0.086   0.813  -0.939  0.00  0.00    +0.000 N 
ATOM      8  C   UNL     1      -0.310   2.170  -0.834  0.00  0.00    +0.000 A 
ATOM      9  C   UNL     1       0.067   3.323  -1.537  0.00  0.00    +0.000 A 
ATOM     10  C   UNL     1      -0.359   4.574  -1.066  0.00  0.00    +0.000 A 
ATOM     11  C   UNL     1      -1.065   4.696   0.122  0.00  0.00    +0.000 A 
ATOM     12  C   UNL     1      -1.606   3.563   0.725  0.00  0.00    +0.000 A 
ATOM     13  C   UNL     1      -1.370   2.297   0.151  0.00  0.00    +0.000 A 
ATOM     14  C   UNL     1      -1.976   1.032   0.240  0.00  0.00    +0.000 A 
ATOM     15  C   UNL     1      -3.362   0.795   0.273  0.00  0.00    +0.000 A 
ATOM     16  C   UNL     1      -3.725  -0.486  -0.225  0.00  0.00    +0.000 A 
ATOM     17  C   UNL     1      -2.649  -1.389  -0.438  0.00  0.00    +0.000 A 
ATOM     18  C   UNL     1      -2.565  -2.587   0.366  0.00  0.00    +0.000 A 
ATOM     19  C   UNL     1      -3.514  -3.494   0.879  0.00  0.00    +0.000 A 
ATOM     20  C   UNL     1      -3.130  -4.441   1.835  0.00  0.00    +0.000 A 
ATOM     21  C   UNL     1      -1.832  -4.470   2.335  0.00  0.00    +0.000 A 
ATOM     22  C   UNL     1      -0.834  -3.661   1.791  0.00  0.00    +0.000 A 
ATOM     23  C   UNL     1      -1.180  -2.784   0.752  0.00  0.00    +0.000 A 
ATOM     24  N   UNL     1      -0.368  -1.932   0.016  0.00  0.00    +0.000 N 
ATOM     25  C   UNL     1      -1.293  -1.074  -0.461  0.00  0.00    +0.000 A 
ATOM     26  C   UNL     1      -0.983   0.258  -0.351  0.00  0.00    +0.000 A 
ATOM     27  C   UNL     1      -5.035  -0.394  -0.761  0.00  0.00    +0.000 C 
ATOM     28  O   UNL     1      -5.645  -1.062  -1.586  0.00  0.00    +0.000 OA
ATOM     29  N   UNL     1      -5.468   0.823  -0.282  0.00  0.00    +0.000 N 
ATOM     30  C   UNL     1      -4.518   1.620   0.298  0.00  0.00    +0.000 C 
ATOM     31  O   UNL     1      -4.713   2.778   0.651  0.00  0.00    +0.000 OA
ATOM     32  H   UNL     1       3.508  -1.484  -1.033  0.00  0.00    +0.000 HD
ATOM     33  H   UNL     1       1.677  -1.194   1.422  0.00  0.00    +0.000 HD
ATOM     34  H   UNL     1       2.446  -2.693   0.964  0.00  0.00    +0.000 HD
ATOM     35  H   UNL     1       1.092  -3.086  -0.775  0.00  0.00    +0.000 HD
ATOM     36  H   UNL     1       3.311   1.018  -1.149  0.00  0.00    +0.000 HD
ATOM     37  H   UNL     1       0.610   3.274  -2.467  0.00  0.00    +0.000 HD
ATOM     38  H   UNL     1      -0.115   5.470  -1.636  0.00  0.00    +0.000 HD
ATOM     39  H   UNL     1      -1.260   5.674   0.546  0.00  0.00    +0.000 HD
ATOM     40  H   UNL     1      -2.211   3.660   1.626  0.00  0.00    +0.000 HD
ATOM     41  H   UNL     1      -4.541  -3.463   0.525  0.00  0.00    +0.000 HD
ATOM     42  H   UNL     1      -3.867  -5.143   2.216  0.00  0.00    +0.000 HD
ATOM     43  H   UNL     1      -1.585  -5.141   3.155  0.00  0.00    +0.000 HD
ATOM     44  H   UNL     1       0.170  -3.676   2.206  0.00  0.00    +0.000 HD
ATOM     45  H   UNL     1      -6.329   1.227  -0.608  0.00  0.00    +0.000 HD
ENDROOT
BRANCH   5  46
ATOM     46  C   UNL     1       1.482   0.571  -2.943  0.00  0.00    +0.000 C 
ATOM     47  H   UNL     1       0.576   0.316  -3.520  0.00  0.00    +0.000 HD
ATOM     48  H   UNL     1       1.682   1.629  -3.089  0.00  0.00    +0.000 HD
ATOM     49  H   UNL     1       2.299   0.007  -3.404  0.00  0.00    +0.000 HD
ENDBRANCH   5  46
BRANCH   1  50
ATOM     50  N   UNL     1       4.334  -0.969   0.797  0.00  0.00    +0.000 NA
ATOM     51  H   UNL     1       4.050  -0.649   1.722  0.00  0.00    +0.000 HD
BRANCH  50  52
ATOM     52  C   UNL     1       5.519  -0.275   0.334  0.00  0.00    +0.000 C 
ATOM     53  H   UNL     1       5.331   0.771   0.091  0.00  0.00    +0.000 HD
ATOM     54  H   UNL     1       5.951  -0.767  -0.541  0.00  0.00    +0.000 HD
ATOM     55  H   UNL     1       6.270  -0.291   1.130  0.00  0.00    +0.000 HD
ENDBRANCH  50  52
ENDBRANCH   1  50
BRANCH   6  56
ATOM     56  O   UNL     1       2.193   1.189   0.603  0.00  0.00    +0.000 OA
BRANCH  56  57
ATOM     57  C   UNL     1       3.198   1.952   1.245  0.00  0.00    +0.000 C 
ATOM     58  H   UNL     1       3.786   1.325   1.916  0.00  0.00    +0.000 HD
ATOM     59  H   UNL     1       2.707   2.697   1.875  0.00  0.00    +0.000 HD
ATOM     60  H   UNL     1       3.845   2.470   0.532  0.00  0.00    +0.000 HD
ENDBRANCH  56  57
ENDBRANCH   6  56
TORSDOF 5
