REMARK  Name = 
REMARK  6 active torsions:
REMARK  status: ('A' for Active; 'I' for Inactive)
REMARK    1  A    between atoms: C_4  and  O_5
REMARK    2  A    between atoms: C_6  and  O_7
REMARK    3  A    between atoms: C_13  and  O_14
REMARK    4  A    between atoms: C_15  and  O_16
REMARK    5  A    between atoms: N_19  and  C_20
REMARK    6  A    between atoms: C_20  and  C_21
REMARK                            x       y       z     vdW  Elec       q    Type
REMARK                         _______ _______ _______ _____ _____    ______ ____
ROOT
ATOM      1  O   UNL     1      -2.610   1.005  -0.417  0.00  0.00    +0.000 OA
ATOM      2  C   UNL     1      -1.388   0.918  -0.564  0.00  0.00    +0.000 A 
ATOM      3  C   UNL     1      -0.618   2.177  -0.620  0.00  0.00    +0.000 A 
ATOM      4  C   UNL     1      -1.306   3.404  -0.632  0.00  0.00    +0.000 A 
ATOM      5  C   UNL     1      -0.605   4.597  -0.722  0.00  0.00    +0.000 A 
ATOM      6  C   UNL     1       0.775   4.597  -0.782  0.00  0.00    +0.000 A 
ATOM      7  C   UNL     1       1.462   3.378  -0.766  0.00  0.00    +0.000 A 
ATOM      8  C   UNL     1       0.787   2.138  -0.690  0.00  0.00    +0.000 A 
ATOM      9  C   UNL     1       1.481   0.829  -0.700  0.00  0.00    +0.000 A 
ATOM     10  C   UNL     1       2.894   0.726  -0.691  0.00  0.00    +0.000 A 
ATOM     11  C   UNL     1       3.520  -0.515  -0.720  0.00  0.00    +0.000 A 
ATOM     12  C   UNL     1       2.764  -1.672  -0.753  0.00  0.00    +0.000 A 
ATOM     13  C   UNL     1       1.380  -1.611  -0.752  0.00  0.00    +0.000 A 
ATOM     14  C   UNL     1       0.719  -0.368  -0.723  0.00  0.00    +0.000 A 
ATOM     15  N   UNL     1      -0.711  -0.291  -0.689  0.00  0.00    +0.000 N 
ATOM     16  H   UNL     1       1.316   5.538  -0.850  0.00  0.00    +0.000 HD
ATOM     17  H   UNL     1       2.545   3.436  -0.828  0.00  0.00    +0.000 HD
ATOM     18  H   UNL     1       3.518   1.611  -0.657  0.00  0.00    +0.000 HD
ATOM     19  H   UNL     1       0.847  -2.556  -0.753  0.00  0.00    +0.000 HD
ENDROOT
BRANCH  15  20
ATOM     20  C   UNL     1      -1.539  -1.502  -0.718  0.00  0.00    +0.000 C 
ATOM     21  H   UNL     1      -1.139  -2.179  -1.482  0.00  0.00    +0.000 HD
ATOM     22  H   UNL     1      -2.547  -1.242  -1.065  0.00  0.00    +0.000 HD
BRANCH  20  23
ATOM     23  C   UNL     1      -1.683  -2.228   0.605  0.00  0.00    +0.000 A 
ATOM     24  C   UNL     1      -1.257  -1.686   1.826  0.00  0.00    +0.000 A 
ATOM     25  C   UNL     1      -1.363  -2.420   3.008  0.00  0.00    +0.000 A 
ATOM     26  C   UNL     1      -1.918  -3.697   2.990  0.00  0.00    +0.000 A 
ATOM     27  C   UNL     1      -2.390  -4.231   1.794  0.00  0.00    +0.000 A 
ATOM     28  C   UNL     1      -2.278  -3.500   0.610  0.00  0.00    +0.000 A 
ATOM     29  H   UNL     1      -0.826  -0.690   1.876  0.00  0.00    +0.000 HD
ATOM     30  H   UNL     1      -1.005  -1.995   3.942  0.00  0.00    +0.000 HD
ATOM     31  H   UNL     1      -1.986  -4.272   3.909  0.00  0.00    +0.000 HD
ATOM     32  H   UNL     1      -2.840  -5.220   1.782  0.00  0.00    +0.000 HD
ATOM     33  H   UNL     1      -2.654  -3.934  -0.315  0.00  0.00    +0.000 HD
ENDBRANCH  20  23
ENDBRANCH  15  20
BRANCH   4  34
ATOM     34  O   UNL     1      -2.676   3.520  -0.570  0.00  0.00    +0.000 OA
ATOM     35  H   UNL     1      -3.043   2.610  -0.467  0.00  0.00    +0.000 HD
ENDBRANCH   4  34
BRANCH   5  36
ATOM     36  O   UNL     1      -1.277   5.784  -0.759  0.00  0.00    +0.000 OA
ATOM     37  H   UNL     1      -2.223   5.529  -0.725  0.00  0.00    +0.000 HD
ENDBRANCH   5  36
BRANCH  11  38
ATOM     38  O   UNL     1       4.880  -0.646  -0.712  0.00  0.00    +0.000 OA
ATOM     39  H   UNL     1       5.281   0.239  -0.680  0.00  0.00    +0.000 HD
ENDBRANCH  11  38
BRANCH  12  40
ATOM     40  O   UNL     1       3.379  -2.891  -0.779  0.00  0.00    +0.000 OA
ATOM     41  H   UNL     1       4.335  -2.689  -0.759  0.00  0.00    +0.000 HD
ENDBRANCH  12  40
TORSDOF 6
