
 OpenBabel01112422243D

 74 82  0  0  1  0  0  0  0  0999 V2000
    0.6928    1.2237   -3.2512 C   0  0  0  0  0  0  0  0  0  0  0  0
    0.0841    0.7695   -2.0435 O   0  0  0  0  0  0  0  0  0  0  0  0
    0.9739    0.4396   -0.9645 C   0  0  1  0  0  0  0  0  0  0  0  0
    1.8905    1.6743   -0.5757 C   0  0  1  0  0  0  0  0  0  0  0  0
    3.3574    1.6070   -0.8057 N   0  0  0  0  0  0  0  0  0  0  0  0
    3.8564    1.4479   -2.1492 C   0  0  0  0  0  0  0  0  0  0  0  0
    4.1137    2.5688    0.0226 C   0  0  0  0  0  0  0  0  0  0  0  0
    5.6105    2.3416    0.1710 C   0  0  0  0  0  0  0  0  0  0  0  0
    6.5062    3.2681   -0.3898 C   0  0  0  0  0  0  0  0  0  0  0  0
    7.8773    3.1989   -0.1267 C   0  0  0  0  0  0  0  0  0  0  0  0
    8.3795    2.1938    0.6867 C   0  0  0  0  0  0  0  0  0  0  0  0
    7.5113    1.2307    1.2181 C   0  0  0  0  0  0  0  0  0  0  0  0
    6.1404    1.3033    0.9626 C   0  0  0  0  0  0  0  0  0  0  0  0
    0.9118    2.9102   -0.6135 C   0  0  0  0  0  0  0  0  0  0  0  0
   -0.4531    2.4786    0.0999 C   0  0  2  0  0  0  0  0  0  0  0  0
    0.0435    1.5202    1.0951 O   0  0  0  0  0  0  0  0  0  0  0  0
    0.2966    0.2038    0.4956 C   0  0  2  0  0  0  0  0  0  0  0  0
    1.4473   -0.6566    1.1640 C   0  0  0  0  0  0  0  0  0  0  0  0
   -0.9188   -0.4093    0.9365 N   0  0  0  0  0  0  0  0  0  0  0  0
   -1.1846   -0.8386    2.2907 C   0  0  0  0  0  0  0  0  0  0  0  0
   -0.3786   -0.8659    3.4467 C   0  0  0  0  0  0  0  0  0  0  0  0
   -0.8100   -1.5060    4.5960 C   0  0  0  0  0  0  0  0  0  0  0  0
   -2.0630   -2.1070    4.6382 C   0  0  0  0  0  0  0  0  0  0  0  0
   -2.9694   -1.8758    3.6125 C   0  0  0  0  0  0  0  0  0  0  0  0
   -2.5851   -1.1091    2.4996 C   0  0  0  0  0  0  0  0  0  0  0  0
   -3.2127   -0.3372    1.5406 C   0  0  0  0  0  0  0  0  0  0  0  0
   -4.5526    0.0596    1.6081 C   0  0  0  0  0  0  0  0  0  0  0  0
   -4.9628    0.4128    0.3385 C   0  0  0  0  0  0  0  0  0  0  0  0
   -3.9340    1.0574   -0.4147 C   0  0  0  0  0  0  0  0  0  0  0  0
   -3.8519    2.5035   -0.1116 C   0  0  0  0  0  0  0  0  0  0  0  0
   -4.8752    3.4493    0.0401 C   0  0  0  0  0  0  0  0  0  0  0  0
   -5.5458    3.6376   -1.1487 C   0  0  0  0  0  0  0  0  0  0  0  0
   -4.8271    3.4369   -2.3316 C   0  0  0  0  0  0  0  0  0  0  0  0
   -3.4116    3.1578   -2.3168 C   0  0  0  0  0  0  0  0  0  0  0  0
   -2.8064    2.8563   -1.0504 C   0  0  0  0  0  0  0  0  0  0  0  0
   -1.6853    2.0244   -0.6398 N   0  0  0  0  0  0  0  0  0  0  0  0
   -2.4978    0.9386   -0.2900 C   0  0  0  0  0  0  0  0  0  0  0  0
   -2.1773   -0.0135    0.6465 C   0  0  0  0  0  0  0  0  0  0  0  0
   -6.0980   -0.4231    0.0767 C   0  0  0  0  0  0  0  0  0  0  0  0
   -6.5264   -0.9647   -0.9330 O   0  0  0  0  0  0  0  0  0  0  0  0
   -6.5410   -0.7888    1.3713 N   0  0  0  0  0  0  0  0  0  0  0  0
   -5.6916   -0.2859    2.4349 C   0  0  0  0  0  0  0  0  0  0  0  0
   -0.0635    1.7526   -3.8396 H   0  0  0  0  0  0  0  0  0  0  0  0
    1.0773    0.3839   -3.8321 H   0  0  0  0  0  0  0  0  0  0  0  0
    1.4924    1.9481   -3.0846 H   0  0  0  0  0  0  0  0  0  0  0  0
    1.5379   -0.4364   -1.3017 H   0  0  0  0  0  0  0  0  0  0  0  0
    2.0340    1.5783    0.5034 H   0  0  0  0  0  0  0  0  0  0  0  0
    3.3130    0.6682   -2.6890 H   0  0  0  0  0  0  0  0  0  0  0  0
    4.8952    1.0965   -2.1374 H   0  0  0  0  0  0  0  0  0  0  0  0
    3.8147    2.3819   -2.7145 H   0  0  0  0  0  0  0  0  0  0  0  0
    3.7406    2.5403    1.0576 H   0  0  0  0  0  0  0  0  0  0  0  0
    3.9262    3.5889   -0.3331 H   0  0  0  0  0  0  0  0  0  0  0  0
    6.1290    4.0736   -1.0128 H   0  0  0  0  0  0  0  0  0  0  0  0
    8.5432    3.9479   -0.5453 H   0  0  0  0  0  0  0  0  0  0  0  0
    9.4396    2.1683    0.9281 H   0  0  0  0  0  0  0  0  0  0  0  0
    7.9120    0.4472    1.8571 H   0  0  0  0  0  0  0  0  0  0  0  0
    5.4832    0.5564    1.4012 H   0  0  0  0  0  0  0  0  0  0  0  0
    1.3692    3.6879    0.0132 H   0  0  0  0  0  0  0  0  0  0  0  0
    0.7589    3.3474   -1.6007 H   0  0  0  0  0  0  0  0  0  0  0  0
   -0.8130    3.3511    0.6586 H   0  0  0  0  0  0  0  0  0  0  0  0
    1.1030   -1.6666    1.4292 H   0  0  0  0  0  0  0  0  0  0  0  0
    2.2762   -0.8885    0.4895 H   0  0  0  0  0  0  0  0  0  0  0  0
    1.9065   -0.1524    2.0188 H   0  0  0  0  0  0  0  0  0  0  0  0
    0.5729   -0.3296    3.4875 H   0  0  0  0  0  0  0  0  0  0  0  0
   -0.1650   -1.5445    5.4669 H   0  0  0  0  0  0  0  0  0  0  0  0
   -2.3734   -2.6586    5.5159 H   0  0  0  0  0  0  0  0  0  0  0  0
   -3.9855   -2.2426    3.7102 H   0  0  0  0  0  0  0  0  0  0  0  0
   -4.7449    4.3179    0.6856 H   0  0  0  0  0  0  0  0  0  0  0  0
   -6.5698    3.9977   -1.1327 H   0  0  0  0  0  0  0  0  0  0  0  0
   -5.3786    3.4810   -3.2688 H   0  0  0  0  0  0  0  0  0  0  0  0
   -2.9090    2.9475   -3.2548 H   0  0  0  0  0  0  0  0  0  0  0  0
   -6.9425   -1.7126    1.4412 H   0  0  0  0  0  0  0  0  0  0  0  0
   -6.1627    0.6321    2.8126 H   0  0  0  0  0  0  0  0  0  0  0  0
   -5.5505   -0.9859    3.2481 H   0  0  0  0  0  0  0  0  0  0  0  0
  1  2  1  0  0  0  0
  1 43  1  0  0  0  0
  1 44  1  0  0  0  0
  1 45  1  0  0  0  0
  3  4  1  0  0  0  0
  3 17  1  0  0  0  0
  3  2  1  0  0  0  0
  3 46  1  6  0  0  0
  4 14  1  0  0  0  0
  4  5  1  0  0  0  0
  4 47  1  1  0  0  0
  5  6  1  0  0  0  0
  5  7  1  0  0  0  0
  6 48  1  0  0  0  0
  6 49  1  0  0  0  0
  6 50  1  0  0  0  0
  7  8  1  0  0  0  0
  7 51  1  0  0  0  0
  7 52  1  0  0  0  0
  8  9  1  0  0  0  0
  8 13  2  0  0  0  0
  9 10  2  0  0  0  0
  9 53  1  0  0  0  0
 10 11  1  0  0  0  0
 10 54  1  0  0  0  0
 11 12  2  0  0  0  0
 11 55  1  0  0  0  0
 12 13  1  0  0  0  0
 12 56  1  0  0  0  0
 13 57  1  0  0  0  0
 14 15  1  0  0  0  0
 14 58  1  0  0  0  0
 14 59  1  0  0  0  0
 15 16  1  0  0  0  0
 15 36  1  0  0  0  0
 15 60  1  1  0  0  0
 16 17  1  0  0  0  0
 17 19  1  0  0  0  0
 17 18  1  1  0  0  0
 18 61  1  0  0  0  0
 18 62  1  0  0  0  0
 18 63  1  0  0  0  0
 19 20  1  0  0  0  0
 19 38  1  0  0  0  0
 20 21  1  0  0  0  0
 20 25  2  0  0  0  0
 21 22  2  0  0  0  0
 21 64  1  0  0  0  0
 22 23  1  0  0  0  0
 22 65  1  0  0  0  0
 23 24  2  0  0  0  0
 23 66  1  0  0  0  0
 24 25  1  0  0  0  0
 24 67  1  0  0  0  0
 25 26  1  0  0  0  0
 26 27  1  0  0  0  0
 26 38  2  0  0  0  0
 27 28  2  0  0  0  0
 27 42  1  0  0  0  0
 28 29  1  0  0  0  0
 28 39  1  0  0  0  0
 29 30  1  0  0  0  0
 29 37  2  0  0  0  0
 30 31  1  0  0  0  0
 30 35  2  0  0  0  0
 31 32  2  0  0  0  0
 31 68  1  0  0  0  0
 32 33  1  0  0  0  0
 32 69  1  0  0  0  0
 33 34  2  0  0  0  0
 33 70  1  0  0  0  0
 34 35  1  0  0  0  0
 34 71  1  0  0  0  0
 35 36  1  0  0  0  0
 36 37  1  0  0  0  0
 37 38  1  0  0  0  0
 39 41  1  0  0  0  0
 39 40  2  0  0  0  0
 41 42  1  0  0  0  0
 41 72  1  0  0  0  0
 42 73  1  0  0  0  0
 42 74  1  0  0  0  0
M  END
$$$$
