
 OpenBabel01112422493D

 50 53  0  0  1  0  0  0  0  0999 V2000
    2.9888    1.4352    0.4159 N   0  0  0  0  0  0  0  0  0  0  0  0
    2.5115    0.0697    0.1134 C   0  0  2  0  0  0  0  0  0  0  0  0
    0.9642    0.0662    0.0650 C   0  0  0  0  0  0  0  0  0  0  0  0
    0.4551    0.3050    1.3815 O   0  0  0  0  0  0  0  0  0  0  0  0
   -0.8985    0.3525    1.5393 C   0  0  0  0  0  0  0  0  0  0  0  0
   -1.3440    0.6367    2.8263 C   0  0  0  0  0  0  0  0  0  0  0  0
   -2.6447    0.7231    3.1861 N   0  0  0  0  0  0  0  0  0  0  0  0
   -3.5474    0.5183    2.2018 C   0  0  0  0  0  0  0  0  0  0  0  0
   -3.2222    0.2321    0.8750 C   0  0  0  0  0  0  0  0  0  0  0  0
   -4.3051   -0.0067   -0.0911 C   0  0  0  0  0  0  0  0  0  0  0  0
   -4.2355    0.2576   -1.4062 C   0  0  0  0  0  0  0  0  0  0  0  0
   -5.3493    0.0497   -2.3476 C   0  0  0  0  0  0  0  0  0  0  0  0
   -6.6885    0.1678   -1.9671 C   0  0  0  0  0  0  0  0  0  0  0  0
   -7.6733   -0.0043   -2.9272 C   0  0  0  0  0  0  0  0  0  0  0  0
   -7.4193   -0.2713   -4.2241 N   0  0  0  0  0  0  0  0  0  0  0  0
   -6.1207   -0.3649   -4.5768 C   0  0  0  0  0  0  0  0  0  0  0  0
   -5.0657   -0.2101   -3.6903 C   0  0  0  0  0  0  0  0  0  0  0  0
   -1.8620    0.1370    0.5546 C   0  0  0  0  0  0  0  0  0  0  0  0
    3.0143   -1.0001    1.1167 C   0  0  0  0  0  0  0  0  0  0  0  0
    4.5078   -1.0734    1.2289 C   0  0  0  0  0  0  0  0  0  0  0  0
    5.3594   -1.8513    0.4691 C   0  0  0  0  0  0  0  0  0  0  0  0
    6.6453   -1.5886    0.8616 N   0  0  0  0  0  0  0  0  0  0  0  0
    6.6550   -0.6488    1.8656 C   0  0  0  0  0  0  0  0  0  0  0  0
    7.7294   -0.0550    2.5394 C   0  0  0  0  0  0  0  0  0  0  0  0
    7.4325    0.8875    3.5289 C   0  0  0  0  0  0  0  0  0  0  0  0
    6.1147    1.2047    3.8467 C   0  0  0  0  0  0  0  0  0  0  0  0
    5.0539    0.5955    3.1691 C   0  0  0  0  0  0  0  0  0  0  0  0
    5.3259   -0.3359    2.1454 C   0  0  0  0  0  0  0  0  0  0  0  0
    4.0081    1.4169    0.5025 H   0  0  0  0  0  0  0  0  0  0  0  0
    2.6451    1.7027    1.3391 H   0  0  0  0  0  0  0  0  0  0  0  0
    2.8837   -0.1798   -0.8884 H   0  0  0  0  0  0  0  0  0  0  0  0
    0.6166    0.8498   -0.6223 H   0  0  0  0  0  0  0  0  0  0  0  0
    0.6233   -0.9103   -0.2958 H   0  0  0  0  0  0  0  0  0  0  0  0
   -0.6341    0.8051    3.6317 H   0  0  0  0  0  0  0  0  0  0  0  0
   -4.5825    0.6003    2.5242 H   0  0  0  0  0  0  0  0  0  0  0  0
   -5.2177   -0.4107    0.3417 H   0  0  0  0  0  0  0  0  0  0  0  0
   -3.3264    0.6613   -1.8456 H   0  0  0  0  0  0  0  0  0  0  0  0
   -6.9787    0.4037   -0.9496 H   0  0  0  0  0  0  0  0  0  0  0  0
   -8.7251    0.0783   -2.6682 H   0  0  0  0  0  0  0  0  0  0  0  0
   -5.9421   -0.5704   -5.6286 H   0  0  0  0  0  0  0  0  0  0  0  0
   -4.0466   -0.2968   -4.0510 H   0  0  0  0  0  0  0  0  0  0  0  0
   -1.5705   -0.1162   -0.4578 H   0  0  0  0  0  0  0  0  0  0  0  0
    2.6376   -1.9820    0.8017 H   0  0  0  0  0  0  0  0  0  0  0  0
    2.5949   -0.8205    2.1147 H   0  0  0  0  0  0  0  0  0  0  0  0
    5.1623   -2.5606   -0.3238 H   0  0  0  0  0  0  0  0  0  0  0  0
    7.4738   -2.0092    0.4646 H   0  0  0  0  0  0  0  0  0  0  0  0
    8.7577   -0.3038    2.3000 H   0  0  0  0  0  0  0  0  0  0  0  0
    8.2445    1.3793    4.0598 H   0  0  0  0  0  0  0  0  0  0  0  0
    5.9051    1.9364    4.6230 H   0  0  0  0  0  0  0  0  0  0  0  0
    4.0301    0.8508    3.4252 H   0  0  0  0  0  0  0  0  0  0  0  0
  1 29  1  0  0  0  0
  1 30  1  0  0  0  0
  2 19  1  0  0  0  0
  2  3  1  0  0  0  0
  2  1  1  0  0  0  0
  2 31  1  6  0  0  0
  3  4  1  0  0  0  0
  3 32  1  0  0  0  0
  3 33  1  0  0  0  0
  4  5  1  0  0  0  0
  5  6  1  0  0  0  0
  5 18  2  0  0  0  0
  6  7  2  0  0  0  0
  6 34  1  0  0  0  0
  7  8  1  0  0  0  0
  8  9  2  0  0  0  0
  8 35  1  0  0  0  0
  9 10  1  0  0  0  0
  9 18  1  0  0  0  0
 10 11  2  0  0  0  0
 10 36  1  0  0  0  0
 11 12  1  0  0  0  0
 11 37  1  0  0  0  0
 12 13  1  0  0  0  0
 12 17  2  0  0  0  0
 13 14  2  0  0  0  0
 13 38  1  0  0  0  0
 14 15  1  0  0  0  0
 14 39  1  0  0  0  0
 15 16  2  0  0  0  0
 16 17  1  0  0  0  0
 16 40  1  0  0  0  0
 17 41  1  0  0  0  0
 18 42  1  0  0  0  0
 19 20  1  0  0  0  0
 19 43  1  0  0  0  0
 19 44  1  0  0  0  0
 20 21  2  0  0  0  0
 20 28  1  0  0  0  0
 21 22  1  0  0  0  0
 21 45  1  0  0  0  0
 22 23  1  0  0  0  0
 22 46  1  0  0  0  0
 23 24  1  0  0  0  0
 23 28  2  0  0  0  0
 24 25  2  0  0  0  0
 24 47  1  0  0  0  0
 25 26  1  0  0  0  0
 25 48  1  0  0  0  0
 26 27  2  0  0  0  0
 26 49  1  0  0  0  0
 27 28  1  0  0  0  0
 27 50  1  0  0  0  0
M  END
$$$$
