
 OpenBabel01112422453D

 27 29  0  0  0  0  0  0  0  0999 V2000
   -1.9835    0.0013    1.3173 N   0  0  0  0  0  0  0  0  0  0  0  0
   -0.7460    0.0118    0.7026 C   0  0  0  0  0  0  0  0  0  0  0  0
   -0.3316   -1.1465    0.1789 N   0  0  0  0  0  0  0  0  0  0  0  0
    0.8841   -1.1409   -0.3828 C   0  0  0  0  0  0  0  0  0  0  0  0
    1.6756   -0.0261   -0.4385 C   0  0  0  0  0  0  0  0  0  0  0  0
    1.1244    1.1382    0.0450 C   0  0  0  0  0  0  0  0  0  0  0  0
    1.8426    2.4044   -0.0651 C   0  0  0  0  0  0  0  0  0  0  0  0
    1.7183    3.4166    0.8689 C   0  0  0  0  0  0  0  0  0  0  0  0
    2.5484    4.4446    0.4969 N   0  0  0  0  0  0  0  0  0  0  0  0
    3.2073    4.1313   -0.6698 C   0  0  0  0  0  0  0  0  0  0  0  0
    4.1441    4.8763   -1.3997 C   0  0  0  0  0  0  0  0  0  0  0  0
    4.6484    4.3191   -2.5780 C   0  0  0  0  0  0  0  0  0  0  0  0
    4.2276    3.0705   -3.0185 C   0  0  0  0  0  0  0  0  0  0  0  0
    3.2843    2.3476   -2.2838 C   0  0  0  0  0  0  0  0  0  0  0  0
    2.8636    1.1357   -2.7764 O   0  0  0  0  0  0  0  0  0  0  0  0
    2.7682    2.8639   -1.0685 C   0  0  0  0  0  0  0  0  0  0  0  0
   -0.0875    1.1706    0.6404 N   0  0  0  0  0  0  0  0  0  0  0  0
   -2.5287   -0.7604    0.9390 H   0  0  0  0  0  0  0  0  0  0  0  0
   -2.3810    0.9283    1.2767 H   0  0  0  0  0  0  0  0  0  0  0  0
    1.2215   -2.0832   -0.8018 H   0  0  0  0  0  0  0  0  0  0  0  0
    2.6673   -0.0765   -0.8592 H   0  0  0  0  0  0  0  0  0  0  0  0
    1.1210    3.4881    1.7651 H   0  0  0  0  0  0  0  0  0  0  0  0
    2.6615    5.3118    1.0031 H   0  0  0  0  0  0  0  0  0  0  0  0
    4.4713    5.8579   -1.0702 H   0  0  0  0  0  0  0  0  0  0  0  0
    5.3741    4.8745   -3.1655 H   0  0  0  0  0  0  0  0  0  0  0  0
    4.6376    2.6679   -3.9401 H   0  0  0  0  0  0  0  0  0  0  0  0
    3.2837    0.9746   -3.6354 H   0  0  0  0  0  0  0  0  0  0  0  0
  1  2  1  0  0  0  0
  1 18  1  0  0  0  0
  1 19  1  0  0  0  0
  2  3  1  0  0  0  0
  2 17  2  0  0  0  0
  3  4  2  0  0  0  0
  4  5  1  0  0  0  0
  4 20  1  0  0  0  0
  5  6  2  0  0  0  0
  5 21  1  0  0  0  0
  6  7  1  0  0  0  0
  6 17  1  0  0  0  0
  7  8  2  0  0  0  0
  7 16  1  0  0  0  0
  8  9  1  0  0  0  0
  8 22  1  0  0  0  0
  9 10  1  0  0  0  0
  9 23  1  0  0  0  0
 10 11  1  0  0  0  0
 10 16  2  0  0  0  0
 11 12  2  0  0  0  0
 11 24  1  0  0  0  0
 12 13  1  0  0  0  0
 12 25  1  0  0  0  0
 13 14  2  0  0  0  0
 13 26  1  0  0  0  0
 14 15  1  0  0  0  0
 14 16  1  0  0  0  0
 15 27  1  0  0  0  0
M  END
$$$$
