
 OpenBabel01112422593D

 65 68  0  0  0  0  0  0  0  0999 V2000
    4.5475   -3.2836    4.0956 C   0  0  0  0  0  0  0  0  0  0  0  0
    4.8498   -2.4078    5.0129 C   0  0  0  0  0  0  0  0  0  0  0  0
    5.2023   -1.3867    6.0823 C   0  0  0  0  0  0  0  0  0  0  0  0
    5.4173   -0.0974    5.4708 O   0  0  0  0  0  0  0  0  0  0  0  0
    6.6372    0.1232    4.9083 C   0  0  0  0  0  0  0  0  0  0  0  0
    7.5639   -0.6694    4.8732 O   0  0  0  0  0  0  0  0  0  0  0  0
    6.7285    1.5153    4.3615 C   0  0  0  0  0  0  0  0  0  0  0  0
    5.6319    2.3830    4.4185 C   0  0  0  0  0  0  0  0  0  0  0  0
    5.7456    3.6868    3.9527 C   0  0  0  0  0  0  0  0  0  0  0  0
    6.9605    4.1427    3.4478 C   0  0  0  0  0  0  0  0  0  0  0  0
    8.0883    3.3168    3.4133 C   0  0  0  0  0  0  0  0  0  0  0  0
    9.3683    3.8041    3.0293 N   0  0  0  0  0  0  0  0  0  0  0  0
    9.7491    5.1341    3.0977 C   0  0  0  0  0  0  0  0  0  0  0  0
    8.9612    6.0524    3.3336 O   0  0  0  0  0  0  0  0  0  0  0  0
   11.2496    5.4646    2.9045 C   0  0  0  0  0  0  0  0  0  0  0  0
   12.1748    4.2531    3.3431 C   0  0  0  0  0  0  0  0  0  0  0  0
   11.9862    2.9188    2.7105 N   0  0  0  0  0  0  0  0  0  0  0  0
   12.2980    2.8473    1.2799 C   0  0  0  0  0  0  0  0  0  0  0  0
   12.8464    1.9115    3.3666 C   0  0  0  0  0  0  0  0  0  0  0  0
   11.5412    6.6419    3.9021 C   0  0  0  0  0  0  0  0  0  0  0  0
   11.0741    8.0261    3.4162 C   0  0  0  0  0  0  0  0  0  0  0  0
   11.7394    8.2577    2.1575 N   0  0  0  0  0  0  0  0  0  0  0  0
   12.5542    9.3375    1.8918 C   0  0  0  0  0  0  0  0  0  0  0  0
   12.5558    9.8049    0.6065 N   0  0  0  0  0  0  0  0  0  0  0  0
   13.3418   10.8416    0.2519 C   0  0  0  0  0  0  0  0  0  0  0  0
   14.2058   11.5102    1.0207 N   0  0  0  0  0  0  0  0  0  0  0  0
   14.2154   11.0251    2.2692 C   0  0  0  0  0  0  0  0  0  0  0  0
   15.0561   11.5168    3.2256 N   0  0  0  0  0  0  0  0  0  0  0  0
   14.8914   10.8329    4.3869 C   0  0  0  0  0  0  0  0  0  0  0  0
   13.9077    9.8677    4.1789 C   0  0  0  0  0  0  0  0  0  0  0  0
   13.5400    8.9139    5.2508 C   0  0  0  0  0  0  0  0  0  0  0  0
   13.4577    9.9862    2.8041 C   0  0  0  0  0  0  0  0  0  0  0  0
   11.2275    7.3984    1.1048 C   0  0  0  0  0  0  0  0  0  0  0  0
   11.5853    5.9460    1.4618 C   0  0  0  0  0  0  0  0  0  0  0  0
    7.9532    1.9810    3.8296 C   0  0  0  0  0  0  0  0  0  0  0  0
    4.3064   -3.9975    3.3422 H   0  0  0  0  0  0  0  0  0  0  0  0
    6.0882   -1.7008    6.6452 H   0  0  0  0  0  0  0  0  0  0  0  0
    4.3700   -1.2861    6.7856 H   0  0  0  0  0  0  0  0  0  0  0  0
    4.6770    2.0617    4.8303 H   0  0  0  0  0  0  0  0  0  0  0  0
    4.8974    4.3676    3.9976 H   0  0  0  0  0  0  0  0  0  0  0  0
    6.9920    5.1665    3.0851 H   0  0  0  0  0  0  0  0  0  0  0  0
   10.1254    3.1191    2.9529 H   0  0  0  0  0  0  0  0  0  0  0  0
   11.9822    4.1063    4.4179 H   0  0  0  0  0  0  0  0  0  0  0  0
   13.2303    4.5502    3.2683 H   0  0  0  0  0  0  0  0  0  0  0  0
   11.7988    3.6016    0.6870 H   0  0  0  0  0  0  0  0  0  0  0  0
   11.9171    1.9012    0.8786 H   0  0  0  0  0  0  0  0  0  0  0  0
   13.3720    2.9093    1.0730 H   0  0  0  0  0  0  0  0  0  0  0  0
   12.7026    1.8903    4.4508 H   0  0  0  0  0  0  0  0  0  0  0  0
   13.9115    2.0875    3.1644 H   0  0  0  0  0  0  0  0  0  0  0  0
   12.5961    0.9109    2.9928 H   0  0  0  0  0  0  0  0  0  0  0  0
   12.6239    6.6579    4.0192 H   0  0  0  0  0  0  0  0  0  0  0  0
   11.1115    6.4436    4.8917 H   0  0  0  0  0  0  0  0  0  0  0  0
   11.2431    8.8236    4.1338 H   0  0  0  0  0  0  0  0  0  0  0  0
    9.9900    8.0662    3.2677 H   0  0  0  0  0  0  0  0  0  0  0  0
   13.2713   11.1670   -0.7754 H   0  0  0  0  0  0  0  0  0  0  0  0
   15.7268   12.2545    3.0580 H   0  0  0  0  0  0  0  0  0  0  0  0
   15.4869   11.0488    5.2575 H   0  0  0  0  0  0  0  0  0  0  0  0
   14.1605    9.0429    6.1414 H   0  0  0  0  0  0  0  0  0  0  0  0
   13.7273    7.9000    4.9104 H   0  0  0  0  0  0  0  0  0  0  0  0
   12.5105    9.0457    5.5841 H   0  0  0  0  0  0  0  0  0  0  0  0
   11.6435    7.6223    0.1156 H   0  0  0  0  0  0  0  0  0  0  0  0
   10.1379    7.4987    1.0183 H   0  0  0  0  0  0  0  0  0  0  0  0
   12.6713    5.8477    1.3182 H   0  0  0  0  0  0  0  0  0  0  0  0
   11.0762    5.3349    0.7173 H   0  0  0  0  0  0  0  0  0  0  0  0
    8.8079    1.3078    3.7960 H   0  0  0  0  0  0  0  0  0  0  0  0
  1  2  3  0  0  0  0
  1 36  1  0  0  0  0
  2  3  1  0  0  0  0
  3  4  1  0  0  0  0
  3 37  1  0  0  0  0
  3 38  1  0  0  0  0
  4  5  1  0  0  0  0
  5  6  2  0  0  0  0
  5  7  1  0  0  0  0
  7  8  1  0  0  0  0
  7 35  2  0  0  0  0
  8  9  2  0  0  0  0
  8 39  1  0  0  0  0
  9 10  1  0  0  0  0
  9 40  1  0  0  0  0
 10 11  2  0  0  0  0
 10 41  1  0  0  0  0
 11 12  1  0  0  0  0
 11 35  1  0  0  0  0
 12 13  1  0  0  0  0
 12 42  1  0  0  0  0
 13 14  2  0  0  0  0
 13 15  1  0  0  0  0
 15 16  1  0  0  0  0
 15 20  1  0  0  0  0
 15 34  1  0  0  0  0
 16 17  1  0  0  0  0
 16 43  1  0  0  0  0
 16 44  1  0  0  0  0
 17 18  1  0  0  0  0
 17 19  1  0  0  0  0
 18 45  1  0  0  0  0
 18 46  1  0  0  0  0
 18 47  1  0  0  0  0
 19 48  1  0  0  0  0
 19 49  1  0  0  0  0
 19 50  1  0  0  0  0
 20 21  1  0  0  0  0
 20 51  1  0  0  0  0
 20 52  1  0  0  0  0
 21 22  1  0  0  0  0
 21 53  1  0  0  0  0
 21 54  1  0  0  0  0
 22 23  1  0  0  0  0
 22 33  1  0  0  0  0
 23 24  1  0  0  0  0
 23 32  2  0  0  0  0
 24 25  2  0  0  0  0
 25 26  1  0  0  0  0
 25 55  1  0  0  0  0
 26 27  2  0  0  0  0
 27 28  1  0  0  0  0
 27 32  1  0  0  0  0
 28 29  1  0  0  0  0
 28 56  1  0  0  0  0
 29 30  2  0  0  0  0
 29 57  1  0  0  0  0
 30 31  1  0  0  0  0
 30 32  1  0  0  0  0
 31 58  1  0  0  0  0
 31 59  1  0  0  0  0
 31 60  1  0  0  0  0
 33 34  1  0  0  0  0
 33 61  1  0  0  0  0
 33 62  1  0  0  0  0
 34 63  1  0  0  0  0
 34 64  1  0  0  0  0
 35 65  1  0  0  0  0
M  END
$$$$
