MODEL 1
REMARK VINA RESULT:   -10.977      0.000      0.000
REMARK INTER + INTRA:         -13.341
REMARK INTER:                 -12.902
REMARK INTRA:                  -0.439
REMARK UNBOUND:                -0.439
REMARK  Name = 
REMARK  3 active torsions:
REMARK  status: ('A' for Active; 'I' for Inactive)
REMARK    1  A    between atoms: C_5  and  C_6
REMARK    2  A    between atoms: C_6  and  C_7
REMARK    3  A    between atoms: C_10  and  C_11
REMARK                            x       y       z     vdW  Elec       q    Type
REMARK                         _______ _______ _______ _____ _____    ______ ____
ROOT
ATOM      1  C   UNL     1      -9.438  -6.413  17.545  0.00  0.00    +0.000 C 
ATOM      2  C   UNL     1      -9.646  -5.651  16.187  0.00  0.00    +0.000 C 
ATOM      3  C   UNL     1     -10.081  -4.198  16.323  0.00  0.00    +0.000 C 
ATOM      4  N   UNL     1     -11.286  -4.046  17.129  0.00  0.00    +0.000 NA
ATOM      5  C   UNL     1     -11.118  -4.646  18.447  0.00  0.00    +0.000 C 
ATOM      6  C   UNL     1     -10.744  -6.121  18.365  0.00  0.00    +0.000 C 
ATOM      7  H   UNL     1     -10.421  -6.170  15.602  0.00  0.00    +0.000 HD
ATOM      8  H   UNL     1      -8.752  -5.674  15.555  0.00  0.00    +0.000 HD
ATOM      9  H   UNL     1     -10.300  -3.816  15.317  0.00  0.00    +0.000 HD
ATOM     10  H   UNL     1      -9.269  -3.578  16.717  0.00  0.00    +0.000 HD
ATOM     11  H   UNL     1     -12.068  -4.497  16.652  0.00  0.00    +0.000 HD
ATOM     12  H   UNL     1     -12.075  -4.563  18.977  0.00  0.00    +0.000 HD
ATOM     13  H   UNL     1     -10.390  -4.080  19.039  0.00  0.00    +0.000 HD
ATOM     14  H   UNL     1     -11.587  -6.654  17.903  0.00  0.00    +0.000 HD
ATOM     15  H   UNL     1     -10.694  -6.510  19.388  0.00  0.00    +0.000 HD
ENDROOT
BRANCH   1  20
ATOM     16 CL   UNL     1      -4.373  -4.839  20.611  0.00  0.00    +0.000 Cl
ATOM     17  C   UNL     1      -5.795  -5.256  19.737  0.00  0.00    +0.000 A 
ATOM     18  C   UNL     1      -5.696  -5.889  18.507  0.00  0.00    +0.000 A 
ATOM     19  C   UNL     1      -6.857  -6.254  17.805  0.00  0.00    +0.000 A 
ATOM     20  C   UNL     1      -8.146  -5.980  18.306  0.00  0.00    +0.000 A 
ATOM     21  C   UNL     1      -8.205  -5.333  19.561  0.00  0.00    +0.000 A 
ATOM     22  C   UNL     1      -7.046  -4.974  20.266  0.00  0.00    +0.000 A 
ATOM     23  H   UNL     1      -4.720  -6.113  18.083  0.00  0.00    +0.000 HD
ATOM     24  H   UNL     1      -6.710  -6.768  16.861  0.00  0.00    +0.000 HD
ATOM     25  H   UNL     1      -9.152  -5.097  20.034  0.00  0.00    +0.000 HD
ATOM     26  H   UNL     1      -7.135  -4.479  21.233  0.00  0.00    +0.000 HD
ENDBRANCH   1  20
BRANCH   1  27
ATOM     27  C   UNL     1      -9.383  -7.945  17.233  0.00  0.00    +0.000 A 
ATOM     28  C   UNL     1      -9.575  -8.445  15.933  0.00  0.00    +0.000 A 
ATOM     29  C   UNL     1      -9.387  -9.803  15.630  0.00  0.00    +0.000 A 
ATOM     30  C   UNL     1      -9.046 -10.731  16.621  0.00  0.00    +0.000 A 
ATOM     31  C   UNL     1      -8.880 -10.237  17.922  0.00  0.00    +0.000 A 
ATOM     32  C   UNL     1      -9.063  -8.884  18.227  0.00  0.00    +0.000 A 
ATOM     33  H   UNL     1      -9.854  -7.791  15.112  0.00  0.00    +0.000 HD
ATOM     34  H   UNL     1      -9.520 -10.136  14.602  0.00  0.00    +0.000 HD
ATOM     35  H   UNL     1      -8.597 -10.905  18.734  0.00  0.00    +0.000 HD
ATOM     36  H   UNL     1      -8.917  -8.597  19.264  0.00  0.00    +0.000 HD
BRANCH  30  37
ATOM     37  C   UNL     1      -8.910 -12.161  16.316  0.00  0.00    +0.000 A 
ATOM     38  N   UNL     1      -8.893 -12.573  15.012  0.00  0.00    +0.000 NA
ATOM     39  C   UNL     1      -8.796 -13.897  14.764  0.00  0.00    +0.000 A 
ATOM     40  N   UNL     1      -8.725 -14.911  15.652  0.00  0.00    +0.000 NA
ATOM     41  C   UNL     1      -8.761 -14.448  16.905  0.00  0.00    +0.000 A 
ATOM     42  N   UNL     1      -8.732 -15.186  18.056  0.00  0.00    +0.000 N 
ATOM     43  C   UNL     1      -8.802 -14.314  19.110  0.00  0.00    +0.000 A 
ATOM     44  N   UNL     1      -8.870 -13.070  18.705  0.00  0.00    +0.000 NA
ATOM     45  C   UNL     1      -8.847 -13.129  17.327  0.00  0.00    +0.000 A 
ATOM     46  H   UNL     1      -8.775 -14.184  13.715  0.00  0.00    +0.000 HD
ATOM     47  H   UNL     1      -8.682 -16.190  18.102  0.00  0.00    +0.000 HD
ATOM     48  H   UNL     1      -8.806 -14.642  20.140  0.00  0.00    +0.000 HD
ENDBRANCH  30  37
ENDBRANCH   1  27
TORSDOF 3
ENDMDL
MODEL 2
REMARK VINA RESULT:   -10.811      0.546      1.990
REMARK INTER + INTRA:         -13.146
REMARK INTER:                 -12.618
REMARK INTRA:                  -0.528
REMARK UNBOUND:                -0.439
REMARK  Name = 
REMARK  3 active torsions:
REMARK  status: ('A' for Active; 'I' for Inactive)
REMARK    1  A    between atoms: C_5  and  C_6
REMARK    2  A    between atoms: C_6  and  C_7
REMARK    3  A    between atoms: C_10  and  C_11
REMARK                            x       y       z     vdW  Elec       q    Type
REMARK                         _______ _______ _______ _____ _____    ______ ____
ROOT
ATOM      1  C   UNL     1      -9.350  -6.596  17.776  0.00  0.00    +0.000 C 
ATOM      2  C   UNL     1      -9.410  -6.123  16.279  0.00  0.00    +0.000 C 
ATOM      3  C   UNL     1      -9.803  -4.666  16.078  0.00  0.00    +0.000 C 
ATOM      4  N   UNL     1     -11.068  -4.333  16.720  0.00  0.00    +0.000 NA
ATOM      5  C   UNL     1     -11.040  -4.655  18.142  0.00  0.00    +0.000 C 
ATOM      6  C   UNL     1     -10.712  -6.122  18.393  0.00  0.00    +0.000 C 
ATOM      7  H   UNL     1     -10.147  -6.737  15.740  0.00  0.00    +0.000 HD
ATOM      8  H   UNL     1      -8.464  -6.289  15.751  0.00  0.00    +0.000 HD
ATOM      9  H   UNL     1      -9.918  -4.492  15.000  0.00  0.00    +0.000 HD
ATOM     10  H   UNL     1      -9.008  -3.992  16.414  0.00  0.00    +0.000 HD
ATOM     11  H   UNL     1     -11.821  -4.858  16.272  0.00  0.00    +0.000 HD
ATOM     12  H   UNL     1     -12.037  -4.450  18.552  0.00  0.00    +0.000 HD
ATOM     13  H   UNL     1     -10.347  -3.992  18.673  0.00  0.00    +0.000 HD
ATOM     14  H   UNL     1     -11.529  -6.723  17.971  0.00  0.00    +0.000 HD
ATOM     15  H   UNL     1     -10.767  -6.295  19.474  0.00  0.00    +0.000 HD
ENDROOT
BRANCH   1  20
ATOM     16 CL   UNL     1      -4.508  -4.287  20.733  0.00  0.00    +0.000 Cl
ATOM     17  C   UNL     1      -5.866  -4.959  19.918  0.00  0.00    +0.000 A 
ATOM     18  C   UNL     1      -7.145  -4.750  20.408  0.00  0.00    +0.000 A 
ATOM     19  C   UNL     1      -8.257  -5.275  19.728  0.00  0.00    +0.000 A 
ATOM     20  C   UNL     1      -8.116  -6.039  18.552  0.00  0.00    +0.000 A 
ATOM     21  C   UNL     1      -6.796  -6.231  18.085  0.00  0.00    +0.000 A 
ATOM     22  C   UNL     1      -5.686  -5.701  18.760  0.00  0.00    +0.000 A 
ATOM     23  H   UNL     1      -7.296  -4.171  21.317  0.00  0.00    +0.000 HD
ATOM     24  H   UNL     1      -9.232  -5.054  20.151  0.00  0.00    +0.000 HD
ATOM     25  H   UNL     1      -6.590  -6.790  17.178  0.00  0.00    +0.000 HD
ATOM     26  H   UNL     1      -4.684  -5.869  18.364  0.00  0.00    +0.000 HD
ENDBRANCH   1  20
BRANCH   1  27
ATOM     27  C   UNL     1      -9.322  -8.161  17.784  0.00  0.00    +0.000 A 
ATOM     28  C   UNL     1      -9.711  -8.916  16.664  0.00  0.00    +0.000 A 
ATOM     29  C   UNL     1      -9.553 -10.310  16.624  0.00  0.00    +0.000 A 
ATOM     30  C   UNL     1      -9.043 -11.019  17.719  0.00  0.00    +0.000 A 
ATOM     31  C   UNL     1      -8.679 -10.268  18.846  0.00  0.00    +0.000 A 
ATOM     32  C   UNL     1      -8.832  -8.878  18.888  0.00  0.00    +0.000 A 
ATOM     33  H   UNL     1     -10.128  -8.442  15.781  0.00  0.00    +0.000 HD
ATOM     34  H   UNL     1      -9.844 -10.847  15.722  0.00  0.00    +0.000 HD
ATOM     35  H   UNL     1      -8.260 -10.758  19.723  0.00  0.00    +0.000 HD
ATOM     36  H   UNL     1      -8.526  -8.385  19.805  0.00  0.00    +0.000 HD
BRANCH  30  37
ATOM     37  C   UNL     1      -8.936 -12.483  17.701  0.00  0.00    +0.000 A 
ATOM     38  N   UNL     1      -8.882 -13.169  18.883  0.00  0.00    +0.000 NA
ATOM     39  C   UNL     1      -8.754 -14.513  18.834  0.00  0.00    +0.000 A 
ATOM     40  N   UNL     1      -8.654 -15.303  17.744  0.00  0.00    +0.000 NA
ATOM     41  C   UNL     1      -8.697 -14.576  16.625  0.00  0.00    +0.000 A 
ATOM     42  N   UNL     1      -8.603 -15.037  15.340  0.00  0.00    +0.000 N 
ATOM     43  C   UNL     1      -8.681 -13.956  14.504  0.00  0.00    +0.000 A 
ATOM     44  N   UNL     1      -8.823 -12.837  15.172  0.00  0.00    +0.000 NA
ATOM     45  C   UNL     1      -8.835 -13.202  16.502  0.00  0.00    +0.000 A 
ATOM     46  H   UNL     1      -8.726 -15.023  19.794  0.00  0.00    +0.000 HD
ATOM     47  H   UNL     1      -8.483 -16.001  15.076  0.00  0.00    +0.000 HD
ATOM     48  H   UNL     1      -8.623 -14.044  13.428  0.00  0.00    +0.000 HD
ENDBRANCH  30  37
ENDBRANCH   1  27
TORSDOF 3
ENDMDL
MODEL 3
REMARK VINA RESULT:    -9.889      4.029      8.645
REMARK INTER + INTRA:         -12.063
REMARK INTER:                 -11.699
REMARK INTRA:                  -0.363
REMARK UNBOUND:                -0.439
REMARK  Name = 
REMARK  3 active torsions:
REMARK  status: ('A' for Active; 'I' for Inactive)
REMARK    1  A    between atoms: C_5  and  C_6
REMARK    2  A    between atoms: C_6  and  C_7
REMARK    3  A    between atoms: C_10  and  C_11
REMARK                            x       y       z     vdW  Elec       q    Type
REMARK                         _______ _______ _______ _____ _____    ______ ____
ROOT
ATOM      1  C   UNL     1      -9.324  -7.235  17.238  0.00  0.00    +0.000 C 
ATOM      2  C   UNL     1      -7.969  -6.576  17.683  0.00  0.00    +0.000 C 
ATOM      3  C   UNL     1      -7.369  -7.137  18.965  0.00  0.00    +0.000 C 
ATOM      4  N   UNL     1      -8.298  -7.088  20.087  0.00  0.00    +0.000 NA
ATOM      5  C   UNL     1      -9.544  -7.777  19.772  0.00  0.00    +0.000 C 
ATOM      6  C   UNL     1     -10.217  -7.208  18.529  0.00  0.00    +0.000 C 
ATOM      7  H   UNL     1      -8.132  -5.499  17.843  0.00  0.00    +0.000 HD
ATOM      8  H   UNL     1      -7.202  -6.633  16.903  0.00  0.00    +0.000 HD
ATOM      9  H   UNL     1      -6.496  -6.524  19.226  0.00  0.00    +0.000 HD
ATOM     10  H   UNL     1      -6.996  -8.155  18.814  0.00  0.00    +0.000 HD
ATOM     11  H   UNL     1      -8.502  -6.114  20.313  0.00  0.00    +0.000 HD
ATOM     12  H   UNL     1     -10.224  -7.646  20.622  0.00  0.00    +0.000 HD
ATOM     13  H   UNL     1      -9.375  -8.856  19.678  0.00  0.00    +0.000 HD
ATOM     14  H   UNL     1     -10.502  -6.170  18.749  0.00  0.00    +0.000 HD
ATOM     15  H   UNL     1     -11.168  -7.736  18.394  0.00  0.00    +0.000 HD
ENDROOT
BRANCH   1  20
ATOM     16 CL   UNL     1      -8.798 -12.901  14.971  0.00  0.00    +0.000 Cl
ATOM     17  C   UNL     1      -8.918 -11.308  15.610  0.00  0.00    +0.000 A 
ATOM     18  C   UNL     1      -8.899 -10.214  14.760  0.00  0.00    +0.000 A 
ATOM     19  C   UNL     1      -9.024  -8.914  15.278  0.00  0.00    +0.000 A 
ATOM     20  C   UNL     1      -9.152  -8.674  16.661  0.00  0.00    +0.000 A 
ATOM     21  C   UNL     1      -9.166  -9.816  17.495  0.00  0.00    +0.000 A 
ATOM     22  C   UNL     1      -9.048 -11.114  16.977  0.00  0.00    +0.000 A 
ATOM     23  H   UNL     1      -8.795 -10.356  13.686  0.00  0.00    +0.000 HD
ATOM     24  H   UNL     1      -9.026  -8.103  14.557  0.00  0.00    +0.000 HD
ATOM     25  H   UNL     1      -9.279  -9.732  18.571  0.00  0.00    +0.000 HD
ATOM     26  H   UNL     1      -9.067 -11.968  17.655  0.00  0.00    +0.000 HD
ENDBRANCH   1  20
BRANCH   1  27
ATOM     27  C   UNL     1      -9.981  -6.305  16.165  0.00  0.00    +0.000 A 
ATOM     28  C   UNL     1     -11.329  -5.917  16.242  0.00  0.00    +0.000 A 
ATOM     29  C   UNL     1     -11.878  -4.974  15.359  0.00  0.00    +0.000 A 
ATOM     30  C   UNL     1     -11.116  -4.410  14.328  0.00  0.00    +0.000 A 
ATOM     31  C   UNL     1      -9.777  -4.816  14.235  0.00  0.00    +0.000 A 
ATOM     32  C   UNL     1      -9.226  -5.754  15.115  0.00  0.00    +0.000 A 
ATOM     33  H   UNL     1     -11.989  -6.320  17.006  0.00  0.00    +0.000 HD
ATOM     34  H   UNL     1     -12.921  -4.686  15.479  0.00  0.00    +0.000 HD
ATOM     35  H   UNL     1      -9.128  -4.401  13.466  0.00  0.00    +0.000 HD
ATOM     36  H   UNL     1      -8.183  -6.008  14.961  0.00  0.00    +0.000 HD
BRANCH  30  37
ATOM     37  C   UNL     1     -11.706  -3.471  13.367  0.00  0.00    +0.000 A 
ATOM     38  N   UNL     1     -11.673  -3.765  12.031  0.00  0.00    +0.000 NA
ATOM     39  C   UNL     1     -12.198  -2.868  11.168  0.00  0.00    +0.000 A 
ATOM     40  N   UNL     1     -12.758  -1.672  11.446  0.00  0.00    +0.000 NA
ATOM     41  C   UNL     1     -12.747  -1.435  12.760  0.00  0.00    +0.000 A 
ATOM     42  N   UNL     1     -13.210  -0.317  13.399  0.00  0.00    +0.000 N 
ATOM     43  C   UNL     1     -12.992  -0.486  14.741  0.00  0.00    +0.000 A 
ATOM     44  N   UNL     1     -12.425  -1.639  14.997  0.00  0.00    +0.000 NA
ATOM     45  C   UNL     1     -12.261  -2.250  13.772  0.00  0.00    +0.000 A 
ATOM     46  H   UNL     1     -12.162  -3.143  10.117  0.00  0.00    +0.000 HD
ATOM     47  H   UNL     1     -13.621   0.482  12.947  0.00  0.00    +0.000 HD
ATOM     48  H   UNL     1     -13.260   0.262  15.474  0.00  0.00    +0.000 HD
ENDBRANCH  30  37
ENDBRANCH   1  27
TORSDOF 3
ENDMDL
MODEL 4
REMARK VINA RESULT:    -9.613      4.729      7.185
REMARK INTER + INTRA:         -11.737
REMARK INTER:                 -10.636
REMARK INTRA:                  -1.101
REMARK UNBOUND:                -0.439
REMARK  Name = 
REMARK  3 active torsions:
REMARK  status: ('A' for Active; 'I' for Inactive)
REMARK    1  A    between atoms: C_5  and  C_6
REMARK    2  A    between atoms: C_6  and  C_7
REMARK    3  A    between atoms: C_10  and  C_11
REMARK                            x       y       z     vdW  Elec       q    Type
REMARK                         _______ _______ _______ _____ _____    ______ ____
ROOT
ATOM      1  C   UNL     1     -10.929  -0.796  21.419  0.00  0.00    +0.000 C 
ATOM      2  C   UNL     1     -10.359   0.546  20.833  0.00  0.00    +0.000 C 
ATOM      3  C   UNL     1     -10.899   1.814  21.481  0.00  0.00    +0.000 C 
ATOM      4  N   UNL     1     -12.355   1.879  21.458  0.00  0.00    +0.000 NA
ATOM      5  C   UNL     1     -12.947   0.703  22.084  0.00  0.00    +0.000 C 
ATOM      6  C   UNL     1     -12.485  -0.593  21.427  0.00  0.00    +0.000 C 
ATOM      7  H   UNL     1     -10.602   0.599  19.761  0.00  0.00    +0.000 HD
ATOM      8  H   UNL     1      -9.265   0.589  20.877  0.00  0.00    +0.000 HD
ATOM      9  H   UNL     1     -10.516   2.672  20.915  0.00  0.00    +0.000 HD
ATOM     10  H   UNL     1     -10.522   1.926  22.503  0.00  0.00    +0.000 HD
ATOM     11  H   UNL     1     -12.673   1.939  20.490  0.00  0.00    +0.000 HD
ATOM     12  H   UNL     1     -14.036   0.776  21.972  0.00  0.00    +0.000 HD
ATOM     13  H   UNL     1     -12.748   0.698  23.162  0.00  0.00    +0.000 HD
ATOM     14  H   UNL     1     -12.854  -0.592  20.392  0.00  0.00    +0.000 HD
ATOM     15  H   UNL     1     -13.015  -1.420  21.912  0.00  0.00    +0.000 HD
ENDROOT
BRANCH   1  20
ATOM     16 CL   UNL     1      -8.801  -2.052  27.025  0.00  0.00    +0.000 Cl
ATOM     17  C   UNL     1      -9.381  -1.717  25.439  0.00  0.00    +0.000 A 
ATOM     18  C   UNL     1     -10.434  -2.450  24.914  0.00  0.00    +0.000 A 
ATOM     19  C   UNL     1     -10.926  -2.160  23.631  0.00  0.00    +0.000 A 
ATOM     20  C   UNL     1     -10.365  -1.143  22.832  0.00  0.00    +0.000 A 
ATOM     21  C   UNL     1      -9.292  -0.421  23.402  0.00  0.00    +0.000 A 
ATOM     22  C   UNL     1      -8.805  -0.705  24.686  0.00  0.00    +0.000 A 
ATOM     23  H   UNL     1     -10.891  -3.247  25.497  0.00  0.00    +0.000 HD
ATOM     24  H   UNL     1     -11.768  -2.754  23.289  0.00  0.00    +0.000 HD
ATOM     25  H   UNL     1      -8.808   0.391  22.869  0.00  0.00    +0.000 HD
ATOM     26  H   UNL     1      -7.978  -0.122  25.090  0.00  0.00    +0.000 HD
ENDBRANCH   1  20
BRANCH   1  27
ATOM     27  C   UNL     1     -10.586  -1.943  20.411  0.00  0.00    +0.000 A 
ATOM     28  C   UNL     1      -9.295  -2.492  20.323  0.00  0.00    +0.000 A 
ATOM     29  C   UNL     1      -9.024  -3.612  19.521  0.00  0.00    +0.000 A 
ATOM     30  C   UNL     1     -10.019  -4.206  18.736  0.00  0.00    +0.000 A 
ATOM     31  C   UNL     1     -11.301  -3.643  18.804  0.00  0.00    +0.000 A 
ATOM     32  C   UNL     1     -11.576  -2.528  19.605  0.00  0.00    +0.000 A 
ATOM     33  H   UNL     1      -8.466  -2.080  20.891  0.00  0.00    +0.000 HD
ATOM     34  H   UNL     1      -8.013  -4.017  19.508  0.00  0.00    +0.000 HD
ATOM     35  H   UNL     1     -12.122  -4.069  18.231  0.00  0.00    +0.000 HD
ATOM     36  H   UNL     1     -12.597  -2.161  19.589  0.00  0.00    +0.000 HD
BRANCH  30  37
ATOM     37  C   UNL     1      -9.721  -5.339  17.850  0.00  0.00    +0.000 A 
ATOM     38  N   UNL     1      -9.836  -5.183  16.496  0.00  0.00    +0.000 NA
ATOM     39  C   UNL     1      -9.584  -6.252  15.709  0.00  0.00    +0.000 A 
ATOM     40  N   UNL     1      -9.234  -7.501  16.082  0.00  0.00    +0.000 NA
ATOM     41  C   UNL     1      -9.154  -7.593  17.413  0.00  0.00    +0.000 A 
ATOM     42  N   UNL     1      -8.847  -8.709  18.143  0.00  0.00    +0.000 N 
ATOM     43  C   UNL     1      -8.888  -8.363  19.467  0.00  0.00    +0.000 A 
ATOM     44  N   UNL     1      -9.197  -7.099  19.627  0.00  0.00    +0.000 NA
ATOM     45  C   UNL     1      -9.369  -6.598  18.354  0.00  0.00    +0.000 A 
ATOM     46  H   UNL     1      -9.676  -6.085  14.638  0.00  0.00    +0.000 HD
ATOM     47  H   UNL     1      -8.644  -9.617  17.759  0.00  0.00    +0.000 HD
ATOM     48  H   UNL     1      -8.692  -9.069  20.262  0.00  0.00    +0.000 HD
ENDBRANCH  30  37
ENDBRANCH   1  27
TORSDOF 3
ENDMDL
MODEL 5
REMARK VINA RESULT:    -9.596      4.080      8.630
REMARK INTER + INTRA:         -11.718
REMARK INTER:                 -11.717
REMARK INTRA:                  -0.001
REMARK UNBOUND:                -0.439
REMARK  Name = 
REMARK  3 active torsions:
REMARK  status: ('A' for Active; 'I' for Inactive)
REMARK    1  A    between atoms: C_5  and  C_6
REMARK    2  A    between atoms: C_6  and  C_7
REMARK    3  A    between atoms: C_10  and  C_11
REMARK                            x       y       z     vdW  Elec       q    Type
REMARK                         _______ _______ _______ _____ _____    ______ ____
ROOT
ATOM      1  C   UNL     1      -9.442  -7.237  17.182  0.00  0.00    +0.000 C 
ATOM      2  C   UNL     1      -8.138  -6.610  17.794  0.00  0.00    +0.000 C 
ATOM      3  C   UNL     1      -7.715  -7.185  19.140  0.00  0.00    +0.000 C 
ATOM      4  N   UNL     1      -8.776  -7.115  20.137  0.00  0.00    +0.000 NA
ATOM      5  C   UNL     1      -9.988  -7.775  19.667  0.00  0.00    +0.000 C 
ATOM      6  C   UNL     1     -10.488  -7.190  18.351  0.00  0.00    +0.000 C 
ATOM      7  H   UNL     1      -8.294  -5.530  17.936  0.00  0.00    +0.000 HD
ATOM      8  H   UNL     1      -7.281  -6.685  17.116  0.00  0.00    +0.000 HD
ATOM      9  H   UNL     1      -6.868  -6.593  19.509  0.00  0.00    +0.000 HD
ATOM     10  H   UNL     1      -7.350  -8.211  19.033  0.00  0.00    +0.000 HD
ATOM     11  H   UNL     1      -8.984  -6.136  20.339  0.00  0.00    +0.000 HD
ATOM     12  H   UNL     1     -10.766  -7.628  20.426  0.00  0.00    +0.000 HD
ATOM     13  H   UNL     1      -9.833  -8.858  19.591  0.00  0.00    +0.000 HD
ATOM     14  H   UNL     1     -10.774  -6.146  18.537  0.00  0.00    +0.000 HD
ATOM     15  H   UNL     1     -11.426  -7.696  18.097  0.00  0.00    +0.000 HD
ENDROOT
BRANCH   1  20
ATOM     16 CL   UNL     1      -8.767 -12.922  15.002  0.00  0.00    +0.000 Cl
ATOM     17  C   UNL     1      -8.928 -11.323  15.616  0.00  0.00    +0.000 A 
ATOM     18  C   UNL     1      -8.950 -10.243  14.748  0.00  0.00    +0.000 A 
ATOM     19  C   UNL     1      -9.110  -8.939  15.246  0.00  0.00    +0.000 A 
ATOM     20  C   UNL     1      -9.232  -8.681  16.627  0.00  0.00    +0.000 A 
ATOM     21  C   UNL     1      -9.203  -9.808  17.479  0.00  0.00    +0.000 A 
ATOM     22  C   UNL     1      -9.051 -11.111  16.981  0.00  0.00    +0.000 A 
ATOM     23  H   UNL     1      -8.853 -10.400  13.676  0.00  0.00    +0.000 HD
ATOM     24  H   UNL     1      -9.143  -8.141  14.512  0.00  0.00    +0.000 HD
ATOM     25  H   UNL     1      -9.308  -9.710  18.554  0.00  0.00    +0.000 HD
ATOM     26  H   UNL     1      -9.038 -11.953  17.673  0.00  0.00    +0.000 HD
ENDBRANCH   1  20
BRANCH   1  27
ATOM     27  C   UNL     1      -9.937  -6.293  16.037  0.00  0.00    +0.000 A 
ATOM     28  C   UNL     1     -11.213  -5.704  16.060  0.00  0.00    +0.000 A 
ATOM     29  C   UNL     1     -11.603  -4.750  15.108  0.00  0.00    +0.000 A 
ATOM     30  C   UNL     1     -10.752  -4.375  14.061  0.00  0.00    +0.000 A 
ATOM     31  C   UNL     1      -9.488  -4.980  14.023  0.00  0.00    +0.000 A 
ATOM     32  C   UNL     1      -9.095  -5.930  14.973  0.00  0.00    +0.000 A 
ATOM     33  H   UNL     1     -11.936  -5.954  16.832  0.00  0.00    +0.000 HD
ATOM     34  H   UNL     1     -12.592  -4.302  15.185  0.00  0.00    +0.000 HD
ATOM     35  H   UNL     1      -8.774  -4.718  13.245  0.00  0.00    +0.000 HD
ATOM     36  H   UNL     1      -8.100  -6.346  14.858  0.00  0.00    +0.000 HD
BRANCH  30  37
ATOM     37  C   UNL     1     -11.181  -3.423  13.029  0.00  0.00    +0.000 A 
ATOM     38  N   UNL     1     -12.434  -3.532  12.491  0.00  0.00    +0.000 NA
ATOM     39  C   UNL     1     -12.790  -2.660  11.523  0.00  0.00    +0.000 A 
ATOM     40  N   UNL     1     -12.054  -1.667  10.982  0.00  0.00    +0.000 NA
ATOM     41  C   UNL     1     -10.840  -1.620  11.536  0.00  0.00    +0.000 A 
ATOM     42  N   UNL     1      -9.824  -0.759  11.221  0.00  0.00    +0.000 N 
ATOM     43  C   UNL     1      -8.756  -1.067  12.020  0.00  0.00    +0.000 A 
ATOM     44  N   UNL     1      -9.026  -2.065  12.825  0.00  0.00    +0.000 NA
ATOM     45  C   UNL     1     -10.325  -2.428  12.539  0.00  0.00    +0.000 A 
ATOM     46  H   UNL     1     -13.797  -2.774  11.128  0.00  0.00    +0.000 HD
ATOM     47  H   UNL     1      -9.868  -0.042  10.516  0.00  0.00    +0.000 HD
ATOM     48  H   UNL     1      -7.814  -0.538  11.966  0.00  0.00    +0.000 HD
ENDBRANCH  30  37
ENDBRANCH   1  27
TORSDOF 3
ENDMDL
MODEL 6
REMARK VINA RESULT:    -9.482      3.894      5.958
REMARK INTER + INTRA:         -11.583
REMARK INTER:                 -10.516
REMARK INTRA:                  -1.067
REMARK UNBOUND:                -0.439
REMARK  Name = 
REMARK  3 active torsions:
REMARK  status: ('A' for Active; 'I' for Inactive)
REMARK    1  A    between atoms: C_5  and  C_6
REMARK    2  A    between atoms: C_6  and  C_7
REMARK    3  A    between atoms: C_10  and  C_11
REMARK                            x       y       z     vdW  Elec       q    Type
REMARK                         _______ _______ _______ _____ _____    ______ ____
ROOT
ATOM      1  C   UNL     1     -11.067  -3.204  15.310  0.00  0.00    +0.000 C 
ATOM      2  C   UNL     1     -12.388  -2.828  16.073  0.00  0.00    +0.000 C 
ATOM      3  C   UNL     1     -12.682  -1.336  16.158  0.00  0.00    +0.000 C 
ATOM      4  N   UNL     1     -11.580  -0.581  16.740  0.00  0.00    +0.000 NA
ATOM      5  C   UNL     1     -10.339  -0.808  16.008  0.00  0.00    +0.000 C 
ATOM      6  C   UNL     1      -9.968  -2.285  15.950  0.00  0.00    +0.000 C 
ATOM      7  H   UNL     1     -12.325  -3.208  17.104  0.00  0.00    +0.000 HD
ATOM      8  H   UNL     1     -13.270  -3.318  15.645  0.00  0.00    +0.000 HD
ATOM      9  H   UNL     1     -13.559  -1.201  16.804  0.00  0.00    +0.000 HD
ATOM     10  H   UNL     1     -12.956  -0.931  15.179  0.00  0.00    +0.000 HD
ATOM     11  H   UNL     1     -11.453  -0.865  17.712  0.00  0.00    +0.000 HD
ATOM     12  H   UNL     1      -9.538  -0.272  16.533  0.00  0.00    +0.000 HD
ATOM     13  H   UNL     1     -10.396  -0.369  15.006  0.00  0.00    +0.000 HD
ATOM     14  H   UNL     1      -9.770  -2.620  16.978  0.00  0.00    +0.000 HD
ATOM     15  H   UNL     1      -9.002  -2.366  15.439  0.00  0.00    +0.000 HD
ENDROOT
BRANCH   1  20
ATOM     16 CL   UNL     1     -11.389  -2.607   9.222  0.00  0.00    +0.000 Cl
ATOM     17  C   UNL     1     -11.313  -2.751  10.935  0.00  0.00    +0.000 A 
ATOM     18  C   UNL     1     -12.297  -3.449  11.618  0.00  0.00    +0.000 A 
ATOM     19  C   UNL     1     -12.222  -3.591  13.014  0.00  0.00    +0.000 A 
ATOM     20  C   UNL     1     -11.172  -3.022  13.764  0.00  0.00    +0.000 A 
ATOM     21  C   UNL     1     -10.191  -2.317  13.031  0.00  0.00    +0.000 A 
ATOM     22  C   UNL     1     -10.261  -2.181  11.636  0.00  0.00    +0.000 A 
ATOM     23  H   UNL     1     -13.127  -3.899  11.077  0.00  0.00    +0.000 HD
ATOM     24  H   UNL     1     -13.010  -4.170  13.485  0.00  0.00    +0.000 HD
ATOM     25  H   UNL     1      -9.336  -1.860  13.519  0.00  0.00    +0.000 HD
ATOM     26  H   UNL     1      -9.482  -1.633  11.108  0.00  0.00    +0.000 HD
ENDBRANCH   1  20
BRANCH   1  27
ATOM     27  C   UNL     1     -10.725  -4.693  15.649  0.00  0.00    +0.000 A 
ATOM     28  C   UNL     1      -9.590  -5.333  15.121  0.00  0.00    +0.000 A 
ATOM     29  C   UNL     1      -9.208  -6.618  15.535  0.00  0.00    +0.000 A 
ATOM     30  C   UNL     1      -9.969  -7.343  16.460  0.00  0.00    +0.000 A 
ATOM     31  C   UNL     1     -11.116  -6.715  16.968  0.00  0.00    +0.000 A 
ATOM     32  C   UNL     1     -11.497  -5.432  16.560  0.00  0.00    +0.000 A 
ATOM     33  H   UNL     1      -8.955  -4.842  14.388  0.00  0.00    +0.000 HD
ATOM     34  H   UNL     1      -8.305  -7.059  15.117  0.00  0.00    +0.000 HD
ATOM     35  H   UNL     1     -11.740  -7.219  17.704  0.00  0.00    +0.000 HD
ATOM     36  H   UNL     1     -12.402  -5.032  17.005  0.00  0.00    +0.000 HD
BRANCH  30  37
ATOM     37  C   UNL     1      -9.605  -8.711  16.847  0.00  0.00    +0.000 A 
ATOM     38  N   UNL     1      -9.722  -9.723  15.933  0.00  0.00    +0.000 NA
ATOM     39  C   UNL     1      -9.407 -10.976  16.327  0.00  0.00    +0.000 A 
ATOM     40  N   UNL     1      -8.990 -11.390  17.543  0.00  0.00    +0.000 NA
ATOM     41  C   UNL     1      -8.910 -10.362  18.392  0.00  0.00    +0.000 A 
ATOM     42  N   UNL     1      -8.544 -10.410  19.710  0.00  0.00    +0.000 N 
ATOM     43  C   UNL     1      -8.611  -9.136  20.206  0.00  0.00    +0.000 A 
ATOM     44  N   UNL     1      -8.991  -8.279  19.290  0.00  0.00    +0.000 NA
ATOM     45  C   UNL     1      -9.184  -9.025  18.146  0.00  0.00    +0.000 A 
ATOM     46  H   UNL     1      -9.504 -11.750  15.570  0.00  0.00    +0.000 HD
ATOM     47  H   UNL     1      -8.289 -11.245  20.212  0.00  0.00    +0.000 HD
ATOM     48  H   UNL     1      -8.378  -8.897  21.235  0.00  0.00    +0.000 HD
ENDBRANCH  30  37
ENDBRANCH   1  27
TORSDOF 3
ENDMDL
MODEL 7
REMARK VINA RESULT:    -9.312      3.526      5.733
REMARK INTER + INTRA:         -11.384
REMARK INTER:                 -10.390
REMARK INTRA:                  -0.994
REMARK UNBOUND:                -0.439
REMARK  Name = 
REMARK  3 active torsions:
REMARK  status: ('A' for Active; 'I' for Inactive)
REMARK    1  A    between atoms: C_5  and  C_6
REMARK    2  A    between atoms: C_6  and  C_7
REMARK    3  A    between atoms: C_10  and  C_11
REMARK                            x       y       z     vdW  Elec       q    Type
REMARK                         _______ _______ _______ _____ _____    ______ ____
ROOT
ATOM      1  C   UNL     1     -10.698  -3.582  14.499  0.00  0.00    +0.000 C 
ATOM      2  C   UNL     1      -9.436  -3.288  13.610  0.00  0.00    +0.000 C 
ATOM      3  C   UNL     1      -9.690  -2.391  12.406  0.00  0.00    +0.000 C 
ATOM      4  N   UNL     1     -10.754  -2.895  11.547  0.00  0.00    +0.000 NA
ATOM      5  C   UNL     1     -11.989  -3.092  12.296  0.00  0.00    +0.000 C 
ATOM      6  C   UNL     1     -11.801  -4.035  13.478  0.00  0.00    +0.000 C 
ATOM      7  H   UNL     1      -9.038  -4.240  13.229  0.00  0.00    +0.000 HD
ATOM      8  H   UNL     1      -8.614  -2.847  14.186  0.00  0.00    +0.000 HD
ATOM      9  H   UNL     1      -8.768  -2.355  11.811  0.00  0.00    +0.000 HD
ATOM     10  H   UNL     1      -9.896  -1.362  12.716  0.00  0.00    +0.000 HD
ATOM     11  H   UNL     1     -10.464  -3.784  11.138  0.00  0.00    +0.000 HD
ATOM     12  H   UNL     1     -12.727  -3.536  11.616  0.00  0.00    +0.000 HD
ATOM     13  H   UNL     1     -12.406  -2.129  12.614  0.00  0.00    +0.000 HD
ATOM     14  H   UNL     1     -11.538  -5.024  13.077  0.00  0.00    +0.000 HD
ATOM     15  H   UNL     1     -12.779  -4.176  13.951  0.00  0.00    +0.000 HD
ENDROOT
BRANCH   1  20
ATOM     16 CL   UNL     1     -12.424   1.304  17.766  0.00  0.00    +0.000 Cl
ATOM     17  C   UNL     1     -11.944  -0.085  16.871  0.00  0.00    +0.000 A 
ATOM     18  C   UNL     1     -12.882  -0.808  16.152  0.00  0.00    +0.000 A 
ATOM     19  C   UNL     1     -12.487  -1.926  15.399  0.00  0.00    +0.000 A 
ATOM     20  C   UNL     1     -11.147  -2.361  15.360  0.00  0.00    +0.000 A 
ATOM     21  C   UNL     1     -10.221  -1.598  16.107  0.00  0.00    +0.000 A 
ATOM     22  C   UNL     1     -10.614  -0.477  16.854  0.00  0.00    +0.000 A 
ATOM     23  H   UNL     1     -13.929  -0.510  16.160  0.00  0.00    +0.000 HD
ATOM     24  H   UNL     1     -13.267  -2.434  14.839  0.00  0.00    +0.000 HD
ATOM     25  H   UNL     1      -9.164  -1.845  16.124  0.00  0.00    +0.000 HD
ATOM     26  H   UNL     1      -9.867   0.086  17.413  0.00  0.00    +0.000 HD
ENDBRANCH   1  20
BRANCH   1  27
ATOM     27  C   UNL     1     -10.358  -4.794  15.428  0.00  0.00    +0.000 A 
ATOM     28  C   UNL     1      -9.236  -5.610  15.204  0.00  0.00    +0.000 A 
ATOM     29  C   UNL     1      -8.855  -6.607  16.115  0.00  0.00    +0.000 A 
ATOM     30  C   UNL     1      -9.604  -6.865  17.270  0.00  0.00    +0.000 A 
ATOM     31  C   UNL     1     -10.738  -6.068  17.481  0.00  0.00    +0.000 A 
ATOM     32  C   UNL     1     -11.119  -5.071  16.576  0.00  0.00    +0.000 A 
ATOM     33  H   UNL     1      -8.612  -5.482  14.324  0.00  0.00    +0.000 HD
ATOM     34  H   UNL     1      -7.961  -7.194  15.910  0.00  0.00    +0.000 HD
ATOM     35  H   UNL     1     -11.352  -6.206  18.369  0.00  0.00    +0.000 HD
ATOM     36  H   UNL     1     -12.013  -4.509  16.824  0.00  0.00    +0.000 HD
BRANCH  30  37
ATOM     37  C   UNL     1      -9.241  -7.948  18.192  0.00  0.00    +0.000 A 
ATOM     38  N   UNL     1      -8.858  -7.645  19.470  0.00  0.00    +0.000 NA
ATOM     39  C   UNL     1      -8.502  -8.660  20.286  0.00  0.00    +0.000 A 
ATOM     40  N   UNL     1      -8.456  -9.980  20.006  0.00  0.00    +0.000 NA
ATOM     41  C   UNL     1      -8.824 -10.211  18.743  0.00  0.00    +0.000 A 
ATOM     42  N   UNL     1      -8.876 -11.422  18.109  0.00  0.00    +0.000 N 
ATOM     43  C   UNL     1      -9.293 -11.200  16.824  0.00  0.00    +0.000 A 
ATOM     44  N   UNL     1      -9.513  -9.928  16.599  0.00  0.00    +0.000 NA
ATOM     45  C   UNL     1      -9.226  -9.289  17.787  0.00  0.00    +0.000 A 
ATOM     46  H   UNL     1      -8.215  -8.379  21.297  0.00  0.00    +0.000 HD
ATOM     47  H   UNL     1      -8.634 -12.306  18.525  0.00  0.00    +0.000 HD
ATOM     48  H   UNL     1      -9.410 -11.997  16.102  0.00  0.00    +0.000 HD
ENDBRANCH  30  37
ENDBRANCH   1  27
TORSDOF 3
ENDMDL
MODEL 8
REMARK VINA RESULT:    -9.205      3.860      5.616
REMARK INTER + INTRA:         -11.258
REMARK INTER:                 -10.278
REMARK INTRA:                  -0.980
REMARK UNBOUND:                -0.439
REMARK  Name = 
REMARK  3 active torsions:
REMARK  status: ('A' for Active; 'I' for Inactive)
REMARK    1  A    between atoms: C_5  and  C_6
REMARK    2  A    between atoms: C_6  and  C_7
REMARK    3  A    between atoms: C_10  and  C_11
REMARK                            x       y       z     vdW  Elec       q    Type
REMARK                         _______ _______ _______ _____ _____    ______ ____
ROOT
ATOM      1  C   UNL     1     -10.055  -1.757  19.789  0.00  0.00    +0.000 C 
ATOM      2  C   UNL     1      -9.096  -0.804  18.989  0.00  0.00    +0.000 C 
ATOM      3  C   UNL     1      -9.419   0.680  19.102  0.00  0.00    +0.000 C 
ATOM      4  N   UNL     1     -10.795   0.984  18.727  0.00  0.00    +0.000 NA
ATOM      5  C   UNL     1     -11.742   0.202  19.512  0.00  0.00    +0.000 C 
ATOM      6  C   UNL     1     -11.499  -1.297  19.381  0.00  0.00    +0.000 C 
ATOM      7  H   UNL     1      -9.141  -1.067  17.921  0.00  0.00    +0.000 HD
ATOM      8  H   UNL     1      -8.045  -0.938  19.269  0.00  0.00    +0.000 HD
ATOM      9  H   UNL     1      -8.757   1.224  18.417  0.00  0.00    +0.000 HD
ATOM     10  H   UNL     1      -9.199   1.057  20.106  0.00  0.00    +0.000 HD
ATOM     11  H   UNL     1     -10.927   0.776  17.736  0.00  0.00    +0.000 HD
ATOM     12  H   UNL     1     -12.749   0.421  19.137  0.00  0.00    +0.000 HD
ATOM     13  H   UNL     1     -11.729   0.519  20.561  0.00  0.00    +0.000 HD
ATOM     14  H   UNL     1     -11.683  -1.574  18.333  0.00  0.00    +0.000 HD
ATOM     15  H   UNL     1     -12.281  -1.813  19.948  0.00  0.00    +0.000 HD
ENDROOT
BRANCH   1  20
ATOM     16 CL   UNL     1      -9.188  -1.425  25.844  0.00  0.00    +0.000 Cl
ATOM     17  C   UNL     1      -9.424  -1.546  24.144  0.00  0.00    +0.000 A 
ATOM     18  C   UNL     1     -10.667  -1.890  23.637  0.00  0.00    +0.000 A 
ATOM     19  C   UNL     1     -10.869  -1.962  22.248  0.00  0.00    +0.000 A 
ATOM     20  C   UNL     1      -9.828  -1.710  21.332  0.00  0.00    +0.000 A 
ATOM     21  C   UNL     1      -8.575  -1.364  21.888  0.00  0.00    +0.000 A 
ATOM     22  C   UNL     1      -8.375  -1.285  23.275  0.00  0.00    +0.000 A 
ATOM     23  H   UNL     1     -11.496  -2.098  24.310  0.00  0.00    +0.000 HD
ATOM     24  H   UNL     1     -11.872  -2.213  21.917  0.00  0.00    +0.000 HD
ATOM     25  H   UNL     1      -7.719  -1.136  21.262  0.00  0.00    +0.000 HD
ATOM     26  H   UNL     1      -7.395  -1.011  23.663  0.00  0.00    +0.000 HD
ENDBRANCH   1  20
BRANCH   1  27
ATOM     27  C   UNL     1      -9.833  -3.214  19.261  0.00  0.00    +0.000 A 
ATOM     28  C   UNL     1      -8.666  -3.940  19.555  0.00  0.00    +0.000 A 
ATOM     29  C   UNL     1      -8.530  -5.291  19.201  0.00  0.00    +0.000 A 
ATOM     30  C   UNL     1      -9.534  -5.966  18.495  0.00  0.00    +0.000 A 
ATOM     31  C   UNL     1     -10.688  -5.234  18.180  0.00  0.00    +0.000 A 
ATOM     32  C   UNL     1     -10.829  -3.888  18.534  0.00  0.00    +0.000 A 
ATOM     33  H   UNL     1      -7.837  -3.484  20.087  0.00  0.00    +0.000 HD
ATOM     34  H   UNL     1      -7.618  -5.818  19.476  0.00  0.00    +0.000 HD
ATOM     35  H   UNL     1     -11.512  -5.706  17.648  0.00  0.00    +0.000 HD
ATOM     36  H   UNL     1     -11.755  -3.405  18.243  0.00  0.00    +0.000 HD
BRANCH  30  37
ATOM     37  C   UNL     1      -9.367  -7.361  18.070  0.00  0.00    +0.000 A 
ATOM     38  N   UNL     1      -9.558  -7.693  16.757  0.00  0.00    +0.000 NA
ATOM     39  C   UNL     1      -9.425  -8.989  16.402  0.00  0.00    +0.000 A 
ATOM     40  N   UNL     1      -9.132 -10.045  17.190  0.00  0.00    +0.000 NA
ATOM     41  C   UNL     1      -8.972  -9.661  18.459  0.00  0.00    +0.000 A 
ATOM     42  N   UNL     1      -8.690 -10.462  19.532  0.00  0.00    +0.000 N 
ATOM     43  C   UNL     1      -8.624  -9.661  20.641  0.00  0.00    +0.000 A 
ATOM     44  N   UNL     1      -8.842  -8.404  20.344  0.00  0.00    +0.000 NA
ATOM     45  C   UNL     1      -9.062  -8.380  18.983  0.00  0.00    +0.000 A 
ATOM     46  H   UNL     1      -9.575  -9.211  15.348  0.00  0.00    +0.000 HD
ATOM     47  H   UNL     1      -8.570 -11.460  19.496  0.00  0.00    +0.000 HD
ATOM     48  H   UNL     1      -8.422 -10.049  21.630  0.00  0.00    +0.000 HD
ENDBRANCH  30  37
ENDBRANCH   1  27
TORSDOF 3
ENDMDL
MODEL 9
REMARK VINA RESULT:    -9.177      2.788      4.267
REMARK INTER + INTRA:         -11.225
REMARK INTER:                 -10.412
REMARK INTRA:                  -0.812
REMARK UNBOUND:                -0.439
REMARK  Name = 
REMARK  3 active torsions:
REMARK  status: ('A' for Active; 'I' for Inactive)
REMARK    1  A    between atoms: C_5  and  C_6
REMARK    2  A    between atoms: C_6  and  C_7
REMARK    3  A    between atoms: C_10  and  C_11
REMARK                            x       y       z     vdW  Elec       q    Type
REMARK                         _______ _______ _______ _____ _____    ______ ____
ROOT
ATOM      1  C   UNL     1     -10.560  -4.508  15.318  0.00  0.00    +0.000 C 
ATOM      2  C   UNL     1      -9.426  -4.115  14.304  0.00  0.00    +0.000 C 
ATOM      3  C   UNL     1      -9.786  -2.995  13.335  0.00  0.00    +0.000 C 
ATOM      4  N   UNL     1     -11.004  -3.274  12.584  0.00  0.00    +0.000 NA
ATOM      5  C   UNL     1     -12.124  -3.547  13.477  0.00  0.00    +0.000 C 
ATOM      6  C   UNL     1     -11.835  -4.704  14.426  0.00  0.00    +0.000 C 
ATOM      7  H   UNL     1      -9.166  -4.997  13.700  0.00  0.00    +0.000 HD
ATOM      8  H   UNL     1      -8.495  -3.832  14.808  0.00  0.00    +0.000 HD
ATOM      9  H   UNL     1      -8.964  -2.894  12.615  0.00  0.00    +0.000 HD
ATOM     10  H   UNL     1      -9.861  -2.034  13.854  0.00  0.00    +0.000 HD
ATOM     11  H   UNL     1     -10.850  -4.084  11.982  0.00  0.00    +0.000 HD
ATOM     12  H   UNL     1     -12.988  -3.817  12.857  0.00  0.00    +0.000 HD
ATOM     13  H   UNL     1     -12.411  -2.642  14.024  0.00  0.00    +0.000 HD
ATOM     14  H   UNL     1     -11.715  -5.612  13.817  0.00  0.00    +0.000 HD
ATOM     15  H   UNL     1     -12.740  -4.883  15.018  0.00  0.00    +0.000 HD
ENDROOT
BRANCH   1  20
ATOM     16 CL   UNL     1     -11.282  -0.402  19.806  0.00  0.00    +0.000 Cl
ATOM     17  C   UNL     1     -11.104  -1.548  18.535  0.00  0.00    +0.000 A 
ATOM     18  C   UNL     1     -10.495  -1.179  17.346  0.00  0.00    +0.000 A 
ATOM     19  C   UNL     1     -10.324  -2.120  16.317  0.00  0.00    +0.000 A 
ATOM     20  C   UNL     1     -10.776  -3.450  16.444  0.00  0.00    +0.000 A 
ATOM     21  C   UNL     1     -11.393  -3.786  17.671  0.00  0.00    +0.000 A 
ATOM     22  C   UNL     1     -11.557  -2.848  18.701  0.00  0.00    +0.000 A 
ATOM     23  H   UNL     1     -10.138  -0.161  17.205  0.00  0.00    +0.000 HD
ATOM     24  H   UNL     1      -9.818  -1.774  15.422  0.00  0.00    +0.000 HD
ATOM     25  H   UNL     1     -11.756  -4.789  17.867  0.00  0.00    +0.000 HD
ATOM     26  H   UNL     1     -12.035  -3.149  19.633  0.00  0.00    +0.000 HD
ENDBRANCH   1  20
BRANCH   1  27
ATOM     27  C   UNL     1     -10.181  -5.889  15.949  0.00  0.00    +0.000 A 
ATOM     28  C   UNL     1     -11.141  -6.891  16.174  0.00  0.00    +0.000 A 
ATOM     29  C   UNL     1     -10.778  -8.175  16.608  0.00  0.00    +0.000 A 
ATOM     30  C   UNL     1      -9.445  -8.503  16.883  0.00  0.00    +0.000 A 
ATOM     31  C   UNL     1      -8.490  -7.496  16.683  0.00  0.00    +0.000 A 
ATOM     32  C   UNL     1      -8.847  -6.215  16.247  0.00  0.00    +0.000 A 
ATOM     33  H   UNL     1     -12.197  -6.710  15.997  0.00  0.00    +0.000 HD
ATOM     34  H   UNL     1     -11.556  -8.925  16.740  0.00  0.00    +0.000 HD
ATOM     35  H   UNL     1      -7.435  -7.693  16.862  0.00  0.00    +0.000 HD
ATOM     36  H   UNL     1      -8.039  -5.502  16.126  0.00  0.00    +0.000 HD
BRANCH  30  37
ATOM     37  C   UNL     1      -9.072  -9.827  17.396  0.00  0.00    +0.000 A 
ATOM     38  N   UNL     1      -8.782  -9.977  18.724  0.00  0.00    +0.000 NA
ATOM     39  C   UNL     1      -8.414 -11.201  19.162  0.00  0.00    +0.000 A 
ATOM     40  N   UNL     1      -8.275 -12.337  18.445  0.00  0.00    +0.000 NA
ATOM     41  C   UNL     1      -8.557 -12.124  17.157  0.00  0.00    +0.000 A 
ATOM     42  N   UNL     1      -8.502 -13.038  16.140  0.00  0.00    +0.000 N 
ATOM     43  C   UNL     1      -8.857 -12.394  14.985  0.00  0.00    +0.000 A 
ATOM     44  N   UNL     1      -9.138 -11.133  15.200  0.00  0.00    +0.000 NA
ATOM     45  C   UNL     1      -8.956 -10.941  16.553  0.00  0.00    +0.000 A 
ATOM     46  H   UNL     1      -8.201 -11.282  20.225  0.00  0.00    +0.000 HD
ATOM     47  H   UNL     1      -8.233 -14.002  16.240  0.00  0.00    +0.000 HD
ATOM     48  H   UNL     1      -8.886 -12.892  14.025  0.00  0.00    +0.000 HD
ENDBRANCH  30  37
ENDBRANCH   1  27
TORSDOF 3
ENDMDL
