MODEL 1
REMARK VINA RESULT:   -12.347      0.000      0.000
REMARK INTER + INTRA:         -12.347
REMARK INTER:                 -12.347
REMARK INTRA:                   0.000
REMARK UNBOUND:                 0.000
REMARK  Name = 
REMARK  0 active torsions:
REMARK  status: ('A' for Active; 'I' for Inactive)
REMARK                            x       y       z     vdW  Elec       q    Type
REMARK                         _______ _______ _______ _____ _____    ______ ____
ROOT
ATOM      1  O   UNL     1      -8.869  -7.399  20.665  0.00  0.00    +0.000 OA
ATOM      2  C   UNL     1      -8.811  -8.435  20.013  0.00  0.00    +0.000 C 
ATOM      3  N   UNL     1      -8.451  -9.640  20.606  0.00  0.00    +0.000 N 
ATOM      4  C   UNL     1      -8.414 -10.798  19.738  0.00  0.00    +0.000 C 
ATOM      5  C   UNL     1      -8.810 -10.174  18.470  0.00  0.00    +0.000 A 
ATOM      6  C   UNL     1      -9.045  -8.774  18.634  0.00  0.00    +0.000 A 
ATOM      7  C   UNL     1      -9.437  -8.015  17.500  0.00  0.00    +0.000 A 
ATOM      8  C   UNL     1      -9.717  -6.651  17.431  0.00  0.00    +0.000 A 
ATOM      9  C   UNL     1      -9.749  -5.529  18.282  0.00  0.00    +0.000 A 
ATOM     10  C   UNL     1     -10.105  -4.274  17.768  0.00  0.00    +0.000 A 
ATOM     11  C   UNL     1     -10.426  -4.117  16.424  0.00  0.00    +0.000 A 
ATOM     12  C   UNL     1     -10.403  -5.206  15.550  0.00  0.00    +0.000 A 
ATOM     13  C   UNL     1     -10.048  -6.457  16.072  0.00  0.00    +0.000 A 
ATOM     14  N   UNL     1      -9.953  -7.680  15.416  0.00  0.00    +0.000 N 
ATOM     15  C   UNL     1      -9.575  -8.644  16.302  0.00  0.00    +0.000 A 
ATOM     16  C   UNL     1      -9.348  -9.990  16.154  0.00  0.00    +0.000 A 
ATOM     17  N   UNL     1      -9.420 -10.826  15.080  0.00  0.00    +0.000 N 
ATOM     18  C   UNL     1      -9.085 -12.119  15.474  0.00  0.00    +0.000 A 
ATOM     19  C   UNL     1      -9.026 -13.288  14.703  0.00  0.00    +0.000 A 
ATOM     20  C   UNL     1      -8.658 -14.472  15.343  0.00  0.00    +0.000 A 
ATOM     21  C   UNL     1      -8.359 -14.489  16.704  0.00  0.00    +0.000 A 
ATOM     22  C   UNL     1      -8.419 -13.317  17.470  0.00  0.00    +0.000 A 
ATOM     23  C   UNL     1      -8.787 -12.106  16.853  0.00  0.00    +0.000 A 
ATOM     24  C   UNL     1      -8.971 -10.769  17.198  0.00  0.00    +0.000 A 
ATOM     25  H   UNL     1      -8.234  -9.657  21.592  0.00  0.00    +0.000 HD
ATOM     26  H   UNL     1      -9.139 -11.533  20.094  0.00  0.00    +0.000 HD
ATOM     27  H   UNL     1      -7.397 -11.194  19.716  0.00  0.00    +0.000 HD
ATOM     28  H   UNL     1      -9.506  -5.611  19.335  0.00  0.00    +0.000 HD
ATOM     29  H   UNL     1     -10.127  -3.415  18.433  0.00  0.00    +0.000 HD
ATOM     30  H   UNL     1     -10.699  -3.134  16.048  0.00  0.00    +0.000 HD
ATOM     31  H   UNL     1     -10.654  -5.079  14.503  0.00  0.00    +0.000 HD
ATOM     32  H   UNL     1     -10.139  -7.815  14.435  0.00  0.00    +0.000 HD
ATOM     33  H   UNL     1      -9.675 -10.565  14.140  0.00  0.00    +0.000 HD
ATOM     34  H   UNL     1      -9.258 -13.280  13.643  0.00  0.00    +0.000 HD
ATOM     35  H   UNL     1      -8.604 -15.394  14.769  0.00  0.00    +0.000 HD
ATOM     36  H   UNL     1      -8.075 -15.425  17.178  0.00  0.00    +0.000 HD
ATOM     37  H   UNL     1      -8.181 -13.362  18.527  0.00  0.00    +0.000 HD
ENDROOT
TORSDOF 0
ENDMDL
MODEL 2
REMARK VINA RESULT:   -12.243      1.851      3.521
REMARK INTER + INTRA:         -12.243
REMARK INTER:                 -12.243
REMARK INTRA:                   0.000
REMARK UNBOUND:                 0.000
REMARK  Name = 
REMARK  0 active torsions:
REMARK  status: ('A' for Active; 'I' for Inactive)
REMARK                            x       y       z     vdW  Elec       q    Type
REMARK                         _______ _______ _______ _____ _____    ______ ____
ROOT
ATOM      1  O   UNL     1      -9.065  -6.561  14.893  0.00  0.00    +0.000 OA
ATOM      2  C   UNL     1      -9.043  -7.773  15.070  0.00  0.00    +0.000 C 
ATOM      3  N   UNL     1      -9.160  -8.660  14.005  0.00  0.00    +0.000 N 
ATOM      4  C   UNL     1      -9.122 -10.069  14.333  0.00  0.00    +0.000 C 
ATOM      5  C   UNL     1      -8.959  -9.983  15.789  0.00  0.00    +0.000 A 
ATOM      6  C   UNL     1      -8.913  -8.622  16.225  0.00  0.00    +0.000 A 
ATOM      7  C   UNL     1      -8.758  -8.360  17.612  0.00  0.00    +0.000 A 
ATOM      8  C   UNL     1      -8.687  -7.123  18.252  0.00  0.00    +0.000 A 
ATOM      9  C   UNL     1      -8.726  -5.754  17.923  0.00  0.00    +0.000 A 
ATOM     10  C   UNL     1      -8.613  -4.791  18.936  0.00  0.00    +0.000 A 
ATOM     11  C   UNL     1      -8.464  -5.167  20.267  0.00  0.00    +0.000 A 
ATOM     12  C   UNL     1      -8.423  -6.514  20.630  0.00  0.00    +0.000 A 
ATOM     13  C   UNL     1      -8.536  -7.471  19.612  0.00  0.00    +0.000 A 
ATOM     14  N   UNL     1      -8.523  -8.858  19.713  0.00  0.00    +0.000 N 
ATOM     15  C   UNL     1      -8.661  -9.407  18.474  0.00  0.00    +0.000 A 
ATOM     16  C   UNL     1      -8.706 -10.711  18.046  0.00  0.00    +0.000 A 
ATOM     17  N   UNL     1      -8.630 -11.902  18.705  0.00  0.00    +0.000 N 
ATOM     18  C   UNL     1      -8.731 -12.947  17.789  0.00  0.00    +0.000 A 
ATOM     19  C   UNL     1      -8.703 -14.328  18.022  0.00  0.00    +0.000 A 
ATOM     20  C   UNL     1      -8.825 -15.176  16.920  0.00  0.00    +0.000 A 
ATOM     21  C   UNL     1      -8.970 -14.664  15.633  0.00  0.00    +0.000 A 
ATOM     22  C   UNL     1      -8.997 -13.281  15.406  0.00  0.00    +0.000 A 
ATOM     23  C   UNL     1      -8.877 -12.399  16.497  0.00  0.00    +0.000 A 
ATOM     24  C   UNL     1      -8.852 -11.028  16.735  0.00  0.00    +0.000 A 
ATOM     25  H   UNL     1      -9.264  -8.292  13.070  0.00  0.00    +0.000 HD
ATOM     26  H   UNL     1      -8.264 -10.528  13.837  0.00  0.00    +0.000 HD
ATOM     27  H   UNL     1     -10.067 -10.528  14.039  0.00  0.00    +0.000 HD
ATOM     28  H   UNL     1      -8.839  -5.421  16.898  0.00  0.00    +0.000 HD
ATOM     29  H   UNL     1      -8.642  -3.737  18.672  0.00  0.00    +0.000 HD
ATOM     30  H   UNL     1      -8.378  -4.402  21.035  0.00  0.00    +0.000 HD
ATOM     31  H   UNL     1      -8.307  -6.804  21.669  0.00  0.00    +0.000 HD
ATOM     32  H   UNL     1      -8.427  -9.364  20.580  0.00  0.00    +0.000 HD
ATOM     33  H   UNL     1      -8.518 -12.025  19.700  0.00  0.00    +0.000 HD
ATOM     34  H   UNL     1      -8.590 -14.732  19.023  0.00  0.00    +0.000 HD
ATOM     35  H   UNL     1      -8.807 -16.254  17.073  0.00  0.00    +0.000 HD
ATOM     36  H   UNL     1      -9.063 -15.348  14.792  0.00  0.00    +0.000 HD
ATOM     37  H   UNL     1      -9.111 -12.913  14.393  0.00  0.00    +0.000 HD
ENDROOT
TORSDOF 0
ENDMDL
MODEL 3
REMARK VINA RESULT:   -12.126      1.164      6.251
REMARK INTER + INTRA:         -12.126
REMARK INTER:                 -12.126
REMARK INTRA:                   0.000
REMARK UNBOUND:                 0.000
REMARK  Name = 
REMARK  0 active torsions:
REMARK  status: ('A' for Active; 'I' for Inactive)
REMARK                            x       y       z     vdW  Elec       q    Type
REMARK                         _______ _______ _______ _____ _____    ______ ____
ROOT
ATOM      1  O   UNL     1      -8.323 -10.490  20.125  0.00  0.00    +0.000 OA
ATOM      2  C   UNL     1      -8.645  -9.386  19.703  0.00  0.00    +0.000 C 
ATOM      3  N   UNL     1      -8.721  -8.285  20.550  0.00  0.00    +0.000 N 
ATOM      4  C   UNL     1      -9.114  -7.032  19.942  0.00  0.00    +0.000 C 
ATOM      5  C   UNL     1      -9.287  -7.471  18.552  0.00  0.00    +0.000 A 
ATOM      6  C   UNL     1      -9.010  -8.866  18.412  0.00  0.00    +0.000 A 
ATOM      7  C   UNL     1      -9.131  -9.455  17.126  0.00  0.00    +0.000 A 
ATOM      8  C   UNL     1      -8.910 -10.783  16.762  0.00  0.00    +0.000 A 
ATOM      9  C   UNL     1      -8.527 -11.998  17.362  0.00  0.00    +0.000 A 
ATOM     10  C   UNL     1      -8.424 -13.159  16.582  0.00  0.00    +0.000 A 
ATOM     11  C   UNL     1      -8.695 -13.129  15.218  0.00  0.00    +0.000 A 
ATOM     12  C   UNL     1      -9.079 -11.944  14.590  0.00  0.00    +0.000 A 
ATOM     13  C   UNL     1      -9.179 -10.787  15.376  0.00  0.00    +0.000 A 
ATOM     14  N   UNL     1      -9.536  -9.499  14.992  0.00  0.00    +0.000 N 
ATOM     15  C   UNL     1      -9.506  -8.676  16.076  0.00  0.00    +0.000 A 
ATOM     16  C   UNL     1      -9.770  -7.335  16.221  0.00  0.00    +0.000 A 
ATOM     17  N   UNL     1     -10.152  -6.370  15.338  0.00  0.00    +0.000 N 
ATOM     18  C   UNL     1     -10.287  -5.156  16.007  0.00  0.00    +0.000 A 
ATOM     19  C   UNL     1     -10.660  -3.905  15.497  0.00  0.00    +0.000 A 
ATOM     20  C   UNL     1     -10.723  -2.832  16.386  0.00  0.00    +0.000 A 
ATOM     21  C   UNL     1     -10.424  -3.001  17.736  0.00  0.00    +0.000 A 
ATOM     22  C   UNL     1     -10.052  -4.254  18.241  0.00  0.00    +0.000 A 
ATOM     23  C   UNL     1      -9.980  -5.357  17.369  0.00  0.00    +0.000 A 
ATOM     24  C   UNL     1      -9.672  -6.714  17.422  0.00  0.00    +0.000 A 
ATOM     25  H   UNL     1      -8.505  -8.403  21.529  0.00  0.00    +0.000 HD
ATOM     26  H   UNL     1      -8.305  -6.308  20.060  0.00  0.00    +0.000 HD
ATOM     27  H   UNL     1     -10.045  -6.692  20.398  0.00  0.00    +0.000 HD
ATOM     28  H   UNL     1      -8.306 -12.061  18.422  0.00  0.00    +0.000 HD
ATOM     29  H   UNL     1      -8.127 -14.091  17.055  0.00  0.00    +0.000 HD
ATOM     30  H   UNL     1      -8.608 -14.042  14.634  0.00  0.00    +0.000 HD
ATOM     31  H   UNL     1      -9.290 -11.925  13.526  0.00  0.00    +0.000 HD
ATOM     32  H   UNL     1      -9.778  -9.233  14.050  0.00  0.00    +0.000 HD
ATOM     33  H   UNL     1     -10.314  -6.498  14.350  0.00  0.00    +0.000 HD
ATOM     34  H   UNL     1     -10.893  -3.769  14.445  0.00  0.00    +0.000 HD
ATOM     35  H   UNL     1     -11.009  -1.849  16.016  0.00  0.00    +0.000 HD
ATOM     36  H   UNL     1     -10.481  -2.147  18.407  0.00  0.00    +0.000 HD
ATOM     37  H   UNL     1      -9.825  -4.353  19.297  0.00  0.00    +0.000 HD
ENDROOT
TORSDOF 0
ENDMDL
MODEL 4
REMARK VINA RESULT:   -11.695      1.907      3.251
REMARK INTER + INTRA:         -11.695
REMARK INTER:                 -11.695
REMARK INTRA:                   0.000
REMARK UNBOUND:                 0.000
REMARK  Name = 
REMARK  0 active torsions:
REMARK  status: ('A' for Active; 'I' for Inactive)
REMARK                            x       y       z     vdW  Elec       q    Type
REMARK                         _______ _______ _______ _____ _____    ______ ____
ROOT
ATOM      1  O   UNL     1      -9.106  -3.327  19.648  0.00  0.00    +0.000 OA
ATOM      2  C   UNL     1      -9.045  -4.526  19.404  0.00  0.00    +0.000 C 
ATOM      3  N   UNL     1      -8.447  -5.412  20.293  0.00  0.00    +0.000 N 
ATOM      4  C   UNL     1      -8.430  -6.805  19.900  0.00  0.00    +0.000 C 
ATOM      5  C   UNL     1      -9.115  -6.708  18.605  0.00  0.00    +0.000 A 
ATOM      6  C   UNL     1      -9.478  -5.357  18.312  0.00  0.00    +0.000 A 
ATOM      7  C   UNL     1     -10.151  -5.086  17.091  0.00  0.00    +0.000 A 
ATOM      8  C   UNL     1     -10.596  -3.856  16.608  0.00  0.00    +0.000 A 
ATOM      9  C   UNL     1     -10.607  -2.503  16.998  0.00  0.00    +0.000 A 
ATOM     10  C   UNL     1     -11.191  -1.541  16.162  0.00  0.00    +0.000 A 
ATOM     11  C   UNL     1     -11.762  -1.903  14.947  0.00  0.00    +0.000 A 
ATOM     12  C   UNL     1     -11.768  -3.234  14.526  0.00  0.00    +0.000 A 
ATOM     13  C   UNL     1     -11.183  -4.190  15.368  0.00  0.00    +0.000 A 
ATOM     14  N   UNL     1     -11.064  -5.563  15.179  0.00  0.00    +0.000 N 
ATOM     15  C   UNL     1     -10.425  -6.116  16.247  0.00  0.00    +0.000 A 
ATOM     16  C   UNL     1     -10.073  -7.411  16.538  0.00  0.00    +0.000 A 
ATOM     17  N   UNL     1     -10.237  -8.585  15.865  0.00  0.00    +0.000 N 
ATOM     18  C   UNL     1      -9.688  -9.627  16.609  0.00  0.00    +0.000 A 
ATOM     19  C   UNL     1      -9.631 -10.994  16.303  0.00  0.00    +0.000 A 
ATOM     20  C   UNL     1      -9.021 -11.843  17.227  0.00  0.00    +0.000 A 
ATOM     21  C   UNL     1      -8.485 -11.345  18.413  0.00  0.00    +0.000 A 
ATOM     22  C   UNL     1      -8.544  -9.978  18.714  0.00  0.00    +0.000 A 
ATOM     23  C   UNL     1      -9.155  -9.096  17.802  0.00  0.00    +0.000 A 
ATOM     24  C   UNL     1      -9.428  -7.735  17.686  0.00  0.00    +0.000 A 
ATOM     25  H   UNL     1      -8.058  -5.056  21.154  0.00  0.00    +0.000 HD
ATOM     26  H   UNL     1      -8.990  -7.389  20.633  0.00  0.00    +0.000 HD
ATOM     27  H   UNL     1      -7.394  -7.136  19.808  0.00  0.00    +0.000 HD
ATOM     28  H   UNL     1     -10.173  -2.181  17.938  0.00  0.00    +0.000 HD
ATOM     29  H   UNL     1     -11.195  -0.500  16.473  0.00  0.00    +0.000 HD
ATOM     30  H   UNL     1     -12.210  -1.139  14.315  0.00  0.00    +0.000 HD
ATOM     31  H   UNL     1     -12.214  -3.512  13.577  0.00  0.00    +0.000 HD
ATOM     32  H   UNL     1     -11.404  -6.057  14.368  0.00  0.00    +0.000 HD
ATOM     33  H   UNL     1     -10.683  -8.699  14.968  0.00  0.00    +0.000 HD
ATOM     34  H   UNL     1     -10.048 -11.385  15.381  0.00  0.00    +0.000 HD
ATOM     35  H   UNL     1      -8.963 -12.908  17.015  0.00  0.00    +0.000 HD
ATOM     36  H   UNL     1      -8.014 -12.029  19.116  0.00  0.00    +0.000 HD
ATOM     37  H   UNL     1      -8.119  -9.621  19.645  0.00  0.00    +0.000 HD
ENDROOT
TORSDOF 0
ENDMDL
MODEL 5
REMARK VINA RESULT:   -11.350      2.068      7.002
REMARK INTER + INTRA:         -11.350
REMARK INTER:                 -11.350
REMARK INTRA:                   0.000
REMARK UNBOUND:                 0.000
REMARK  Name = 
REMARK  0 active torsions:
REMARK  status: ('A' for Active; 'I' for Inactive)
REMARK                            x       y       z     vdW  Elec       q    Type
REMARK                         _______ _______ _______ _____ _____    ______ ____
ROOT
ATOM      1  O   UNL     1      -9.271 -10.676  13.882  0.00  0.00    +0.000 OA
ATOM      2  C   UNL     1      -9.154  -9.778  14.707  0.00  0.00    +0.000 C 
ATOM      3  N   UNL     1      -9.184  -8.441  14.326  0.00  0.00    +0.000 N 
ATOM      4  C   UNL     1      -9.033  -7.466  15.385  0.00  0.00    +0.000 C 
ATOM      5  C   UNL     1      -8.900  -8.367  16.537  0.00  0.00    +0.000 A 
ATOM      6  C   UNL     1      -8.970  -9.736  16.133  0.00  0.00    +0.000 A 
ATOM      7  C   UNL     1      -8.857 -10.742  17.129  0.00  0.00    +0.000 A 
ATOM      8  C   UNL     1      -8.899 -12.126  16.964  0.00  0.00    +0.000 A 
ATOM      9  C   UNL     1      -9.046 -13.067  15.926  0.00  0.00    +0.000 A 
ATOM     10  C   UNL     1      -9.029 -14.438  16.222  0.00  0.00    +0.000 A 
ATOM     11  C   UNL     1      -8.868 -14.886  17.528  0.00  0.00    +0.000 A 
ATOM     12  C   UNL     1      -8.718 -13.982  18.582  0.00  0.00    +0.000 A 
ATOM     13  C   UNL     1      -8.737 -12.613  18.279  0.00  0.00    +0.000 A 
ATOM     14  N   UNL     1      -8.611 -11.528  19.139  0.00  0.00    +0.000 N 
ATOM     15  C   UNL     1      -8.686 -10.370  18.426  0.00  0.00    +0.000 A 
ATOM     16  C   UNL     1      -8.620  -9.051  18.804  0.00  0.00    +0.000 A 
ATOM     17  N   UNL     1      -8.457  -8.445  20.013  0.00  0.00    +0.000 N 
ATOM     18  C   UNL     1      -8.459  -7.063  19.845  0.00  0.00    +0.000 A 
ATOM     19  C   UNL     1      -8.321  -6.056  20.810  0.00  0.00    +0.000 A 
ATOM     20  C   UNL     1      -8.357  -4.730  20.378  0.00  0.00    +0.000 A 
ATOM     21  C   UNL     1      -8.524  -4.419  19.030  0.00  0.00    +0.000 A 
ATOM     22  C   UNL     1      -8.662  -5.429  18.068  0.00  0.00    +0.000 A 
ATOM     23  C   UNL     1      -8.629  -6.778  18.473  0.00  0.00    +0.000 A 
ATOM     24  C   UNL     1      -8.721  -8.044  17.901  0.00  0.00    +0.000 A 
ATOM     25  H   UNL     1      -9.306  -8.211  13.350  0.00  0.00    +0.000 HD
ATOM     26  H   UNL     1      -9.933  -6.849  15.432  0.00  0.00    +0.000 HD
ATOM     27  H   UNL     1      -8.134  -6.877  15.201  0.00  0.00    +0.000 HD
ATOM     28  H   UNL     1      -9.174 -12.758  14.895  0.00  0.00    +0.000 HD
ATOM     29  H   UNL     1      -9.143 -15.156  15.414  0.00  0.00    +0.000 HD
ATOM     30  H   UNL     1      -8.858 -15.953  17.733  0.00  0.00    +0.000 HD
ATOM     31  H   UNL     1      -8.592 -14.335  19.600  0.00  0.00    +0.000 HD
ATOM     32  H   UNL     1      -8.483 -11.604  20.137  0.00  0.00    +0.000 HD
ATOM     33  H   UNL     1      -8.351  -8.910  20.902  0.00  0.00    +0.000 HD
ATOM     34  H   UNL     1      -8.190  -6.294  21.861  0.00  0.00    +0.000 HD
ATOM     35  H   UNL     1      -8.252  -3.929  21.107  0.00  0.00    +0.000 HD
ATOM     36  H   UNL     1      -8.549  -3.377  18.720  0.00  0.00    +0.000 HD
ATOM     37  H   UNL     1      -8.791  -5.156  17.027  0.00  0.00    +0.000 HD
ENDROOT
TORSDOF 0
ENDMDL
MODEL 6
REMARK VINA RESULT:   -10.762      2.391      4.541
REMARK INTER + INTRA:         -10.762
REMARK INTER:                 -10.762
REMARK INTRA:                   0.000
REMARK UNBOUND:                 0.000
REMARK  Name = 
REMARK  0 active torsions:
REMARK  status: ('A' for Active; 'I' for Inactive)
REMARK                            x       y       z     vdW  Elec       q    Type
REMARK                         _______ _______ _______ _____ _____    ______ ____
ROOT
ATOM      1  O   UNL     1     -11.052  -3.767  16.443  0.00  0.00    +0.000 OA
ATOM      2  C   UNL     1     -10.754  -4.945  16.602  0.00  0.00    +0.000 C 
ATOM      3  N   UNL     1     -11.160  -5.919  15.696  0.00  0.00    +0.000 N 
ATOM      4  C   UNL     1     -10.752  -7.277  15.986  0.00  0.00    +0.000 C 
ATOM      5  C   UNL     1     -10.006  -7.054  17.230  0.00  0.00    +0.000 A 
ATOM      6  C   UNL     1     -10.009  -5.672  17.595  0.00  0.00    +0.000 A 
ATOM      7  C   UNL     1      -9.329  -5.283  18.780  0.00  0.00    +0.000 A 
ATOM      8  C   UNL     1      -9.203  -4.003  19.319  0.00  0.00    +0.000 A 
ATOM      9  C   UNL     1      -9.605  -2.685  19.030  0.00  0.00    +0.000 A 
ATOM     10  C   UNL     1      -9.238  -1.640  19.889  0.00  0.00    +0.000 A 
ATOM     11  C   UNL     1      -8.481  -1.885  21.030  0.00  0.00    +0.000 A 
ATOM     12  C   UNL     1      -8.066  -3.179  21.349  0.00  0.00    +0.000 A 
ATOM     13  C   UNL     1      -8.436  -4.219  20.485  0.00  0.00    +0.000 A 
ATOM     14  N   UNL     1      -8.149  -5.576  20.580  0.00  0.00    +0.000 N 
ATOM     15  C   UNL     1      -8.703  -6.234  19.523  0.00  0.00    +0.000 A 
ATOM     16  C   UNL     1      -8.706  -7.560  19.164  0.00  0.00    +0.000 A 
ATOM     17  N   UNL     1      -8.161  -8.671  19.735  0.00  0.00    +0.000 N 
ATOM     18  C   UNL     1      -8.463  -9.787  18.958  0.00  0.00    +0.000 A 
ATOM     19  C   UNL     1      -8.109 -11.127  19.165  0.00  0.00    +0.000 A 
ATOM     20  C   UNL     1      -8.540 -12.067  18.229  0.00  0.00    +0.000 A 
ATOM     21  C   UNL     1      -9.299 -11.684  17.125  0.00  0.00    +0.000 A 
ATOM     22  C   UNL     1      -9.650 -10.342  16.922  0.00  0.00    +0.000 A 
ATOM     23  C   UNL     1      -9.230  -9.370  17.850  0.00  0.00    +0.000 A 
ATOM     24  C   UNL     1      -9.337  -7.995  18.046  0.00  0.00    +0.000 A 
ATOM     25  H   UNL     1     -11.709  -5.645  14.894  0.00  0.00    +0.000 HD
ATOM     26  H   UNL     1     -10.121  -7.641  15.172  0.00  0.00    +0.000 HD
ATOM     27  H   UNL     1     -11.641  -7.893  16.129  0.00  0.00    +0.000 HD
ATOM     28  H   UNL     1     -10.195  -2.453  18.150  0.00  0.00    +0.000 HD
ATOM     29  H   UNL     1      -9.552  -0.626  19.657  0.00  0.00    +0.000 HD
ATOM     30  H   UNL     1      -8.208  -1.059  21.682  0.00  0.00    +0.000 HD
ATOM     31  H   UNL     1      -7.475  -3.367  22.240  0.00  0.00    +0.000 HD
ATOM     32  H   UNL     1      -7.613  -5.994  21.325  0.00  0.00    +0.000 HD
ATOM     33  H   UNL     1      -7.621  -8.698  20.586  0.00  0.00    +0.000 HD
ATOM     34  H   UNL     1      -7.518 -11.430  20.024  0.00  0.00    +0.000 HD
ATOM     35  H   UNL     1      -8.279 -13.115  18.366  0.00  0.00    +0.000 HD
ATOM     36  H   UNL     1      -9.622 -12.437  16.410  0.00  0.00    +0.000 HD
ATOM     37  H   UNL     1     -10.241 -10.075  16.053  0.00  0.00    +0.000 HD
ENDROOT
TORSDOF 0
ENDMDL
MODEL 7
REMARK VINA RESULT:   -10.680      2.177      7.277
REMARK INTER + INTRA:         -10.680
REMARK INTER:                 -10.680
REMARK INTRA:                   0.000
REMARK UNBOUND:                 0.000
REMARK  Name = 
REMARK  0 active torsions:
REMARK  status: ('A' for Active; 'I' for Inactive)
REMARK                            x       y       z     vdW  Elec       q    Type
REMARK                         _______ _______ _______ _____ _____    ______ ____
ROOT
ATOM      1  O   UNL     1      -7.738  -7.089  20.196  0.00  0.00    +0.000 OA
ATOM      2  C   UNL     1      -8.319  -6.121  19.721  0.00  0.00    +0.000 C 
ATOM      3  N   UNL     1      -8.173  -4.851  20.270  0.00  0.00    +0.000 N 
ATOM      4  C   UNL     1      -8.907  -3.783  19.626  0.00  0.00    +0.000 C 
ATOM      5  C   UNL     1      -9.566  -4.542  18.556  0.00  0.00    +0.000 A 
ATOM      6  C   UNL     1      -9.217  -5.926  18.614  0.00  0.00    +0.000 A 
ATOM      7  C   UNL     1      -9.772  -6.805  17.646  0.00  0.00    +0.000 A 
ATOM      8  C   UNL     1      -9.570  -8.178  17.513  0.00  0.00    +0.000 A 
ATOM      9  C   UNL     1      -8.853  -9.212  18.146  0.00  0.00    +0.000 A 
ATOM     10  C   UNL     1      -8.941 -10.523  17.657  0.00  0.00    +0.000 A 
ATOM     11  C   UNL     1      -9.730 -10.821  16.551  0.00  0.00    +0.000 A 
ATOM     12  C   UNL     1     -10.456  -9.823  15.900  0.00  0.00    +0.000 A 
ATOM     13  C   UNL     1     -10.363  -8.515  16.394  0.00  0.00    +0.000 A 
ATOM     14  N   UNL     1     -10.979  -7.359  15.927  0.00  0.00    +0.000 N 
ATOM     15  C   UNL     1     -10.613  -6.301  16.702  0.00  0.00    +0.000 A 
ATOM     16  C   UNL     1     -10.941  -4.969  16.656  0.00  0.00    +0.000 A 
ATOM     17  N   UNL     1     -11.743  -4.245  15.824  0.00  0.00    +0.000 N 
ATOM     18  C   UNL     1     -11.734  -2.909  16.217  0.00  0.00    +0.000 A 
ATOM     19  C   UNL     1     -12.411  -1.820  15.653  0.00  0.00    +0.000 A 
ATOM     20  C   UNL     1     -12.233  -0.567  16.240  0.00  0.00    +0.000 A 
ATOM     21  C   UNL     1     -11.409  -0.407  17.353  0.00  0.00    +0.000 A 
ATOM     22  C   UNL     1     -10.734  -1.500  17.914  0.00  0.00    +0.000 A 
ATOM     23  C   UNL     1     -10.894  -2.777  17.343  0.00  0.00    +0.000 A 
ATOM     24  C   UNL     1     -10.446  -4.079  17.551  0.00  0.00    +0.000 A 
ATOM     25  H   UNL     1      -7.576  -4.731  21.076  0.00  0.00    +0.000 HD
ATOM     26  H   UNL     1      -8.200  -3.042  19.248  0.00  0.00    +0.000 HD
ATOM     27  H   UNL     1      -9.613  -3.356  20.340  0.00  0.00    +0.000 HD
ATOM     28  H   UNL     1      -8.226  -9.019  19.010  0.00  0.00    +0.000 HD
ATOM     29  H   UNL     1      -8.382 -11.313  18.152  0.00  0.00    +0.000 HD
ATOM     30  H   UNL     1      -9.782 -11.845  16.189  0.00  0.00    +0.000 HD
ATOM     31  H   UNL     1     -11.071 -10.060  15.037  0.00  0.00    +0.000 HD
ATOM     32  H   UNL     1     -11.601  -7.327  15.133  0.00  0.00    +0.000 HD
ATOM     33  H   UNL     1     -12.267  -4.606  15.041  0.00  0.00    +0.000 HD
ATOM     34  H   UNL     1     -13.053  -1.939  14.786  0.00  0.00    +0.000 HD
ATOM     35  H   UNL     1     -12.747   0.297  15.822  0.00  0.00    +0.000 HD
ATOM     36  H   UNL     1     -11.288   0.581  17.791  0.00  0.00    +0.000 HD
ATOM     37  H   UNL     1     -10.100  -1.343  18.779  0.00  0.00    +0.000 HD
ENDROOT
TORSDOF 0
ENDMDL
MODEL 8
REMARK VINA RESULT:   -10.531      2.218      7.400
REMARK INTER + INTRA:         -10.531
REMARK INTER:                 -10.531
REMARK INTRA:                   0.000
REMARK UNBOUND:                 0.000
REMARK  Name = 
REMARK  0 active torsions:
REMARK  status: ('A' for Active; 'I' for Inactive)
REMARK                            x       y       z     vdW  Elec       q    Type
REMARK                         _______ _______ _______ _____ _____    ______ ____
ROOT
ATOM      1  O   UNL     1     -11.094  -8.876  15.508  0.00  0.00    +0.000 OA
ATOM      2  C   UNL     1     -10.810  -7.883  16.167  0.00  0.00    +0.000 C 
ATOM      3  N   UNL     1     -11.291  -6.625  15.817  0.00  0.00    +0.000 N 
ATOM      4  C   UNL     1     -10.888  -5.525  16.667  0.00  0.00    +0.000 C 
ATOM      5  C   UNL     1     -10.064  -6.249  17.642  0.00  0.00    +0.000 A 
ATOM      6  C   UNL     1     -10.018  -7.646  17.344  0.00  0.00    +0.000 A 
ATOM      7  C   UNL     1      -9.259  -8.495  18.193  0.00  0.00    +0.000 A 
ATOM      8  C   UNL     1      -9.078  -9.873  18.093  0.00  0.00    +0.000 A 
ATOM      9  C   UNL     1      -9.474 -10.939  17.261  0.00  0.00    +0.000 A 
ATOM     10  C   UNL     1      -9.037 -12.241  17.540  0.00  0.00    +0.000 A 
ATOM     11  C   UNL     1      -8.214 -12.500  18.632  0.00  0.00    +0.000 A 
ATOM     12  C   UNL     1      -7.801 -11.469  19.477  0.00  0.00    +0.000 A 
ATOM     13  C   UNL     1      -8.242 -10.170  19.192  0.00  0.00    +0.000 A 
ATOM     14  N   UNL     1      -7.975  -8.988  19.874  0.00  0.00    +0.000 N 
ATOM     15  C   UNL     1      -8.605  -7.951  19.254  0.00  0.00    +0.000 A 
ATOM     16  C   UNL     1      -8.656  -6.607  19.532  0.00  0.00    +0.000 A 
ATOM     17  N   UNL     1      -8.098  -5.847  20.516  0.00  0.00    +0.000 N 
ATOM     18  C   UNL     1      -8.467  -4.516  20.341  0.00  0.00    +0.000 A 
ATOM     19  C   UNL     1      -8.125  -3.397  21.112  0.00  0.00    +0.000 A 
ATOM     20  C   UNL     1      -8.631  -2.157  20.720  0.00  0.00    +0.000 A 
ATOM     21  C   UNL     1      -9.448  -2.038  19.599  0.00  0.00    +0.000 A 
ATOM     22  C   UNL     1      -9.787  -3.160  18.830  0.00  0.00    +0.000 A 
ATOM     23  C   UNL     1      -9.292  -4.425  19.200  0.00  0.00    +0.000 A 
ATOM     24  C   UNL     1      -9.362  -5.744  18.761  0.00  0.00    +0.000 A 
ATOM     25  H   UNL     1     -11.884  -6.535  15.005  0.00  0.00    +0.000 HD
ATOM     26  H   UNL     1     -11.778  -5.076  17.114  0.00  0.00    +0.000 HD
ATOM     27  H   UNL     1     -10.315  -4.809  16.075  0.00  0.00    +0.000 HD
ATOM     28  H   UNL     1     -10.115 -10.777  16.401  0.00  0.00    +0.000 HD
ATOM     29  H   UNL     1      -9.348 -13.056  16.893  0.00  0.00    +0.000 HD
ATOM     30  H   UNL     1      -7.888 -13.518  18.829  0.00  0.00    +0.000 HD
ATOM     31  H   UNL     1      -7.159 -11.675  20.327  0.00  0.00    +0.000 HD
ATOM     32  H   UNL     1      -7.399  -8.925  20.699  0.00  0.00    +0.000 HD
ATOM     33  H   UNL     1      -7.507  -6.181  21.263  0.00  0.00    +0.000 HD
ATOM     34  H   UNL     1      -7.489  -3.485  21.987  0.00  0.00    +0.000 HD
ATOM     35  H   UNL     1      -8.381  -1.271  21.301  0.00  0.00    +0.000 HD
ATOM     36  H   UNL     1      -9.829  -1.059  19.315  0.00  0.00    +0.000 HD
ATOM     37  H   UNL     1     -10.426  -3.035  17.963  0.00  0.00    +0.000 HD
ENDROOT
TORSDOF 0
ENDMDL
