REMARK  Name = 
REMARK  1 active torsions:
REMARK  status: ('A' for Active; 'I' for Inactive)
REMARK    1  A    between atoms: C_6  and  C_7
REMARK                            x       y       z     vdW  Elec       q    Type
REMARK                         _______ _______ _______ _____ _____    ______ ____
ROOT
ATOM      1  C   UNL     1      -0.284  -0.105   0.246  0.00  0.00    +0.000 A 
ATOM      2  C   UNL     1      -0.361   0.903   1.192  0.00  0.00    +0.000 A 
ATOM      3  C   UNL     1       0.567   1.921   0.848  0.00  0.00    +0.000 A 
ATOM      4  C   UNL     1       0.938   3.140   1.445  0.00  0.00    +0.000 A 
ATOM      5  C   UNL     1       1.925   3.922   0.839  0.00  0.00    +0.000 A 
ATOM      6  C   UNL     1       2.532   3.507  -0.345  0.00  0.00    +0.000 A 
ATOM      7  C   UNL     1       2.174   2.301  -0.958  0.00  0.00    +0.000 A 
ATOM      8  C   UNL     1       1.189   1.525  -0.333  0.00  0.00    +0.000 A 
ATOM      9  N   UNL     1       0.651   0.307  -0.681  0.00  0.00    +0.000 N 
ATOM     10  H   UNL     1      -1.002   0.910   2.062  0.00  0.00    +0.000 HD
ATOM     11  H   UNL     1       0.469   3.468   2.367  0.00  0.00    +0.000 HD
ATOM     12  H   UNL     1       2.223   4.861   1.300  0.00  0.00    +0.000 HD
ATOM     13  H   UNL     1       3.300   4.130  -0.799  0.00  0.00    +0.000 HD
ATOM     14  H   UNL     1       2.651   1.982  -1.878  0.00  0.00    +0.000 HD
ATOM     15  H   UNL     1       0.909  -0.242  -1.490  0.00  0.00    +0.000 HD
ENDROOT
BRANCH   1  21
ATOM     16  N   UNL     1      -0.918  -4.119  -2.112  0.00  0.00    +0.000 N 
ATOM     17  C   UNL     1      -1.237  -3.324  -1.030  0.00  0.00    +0.000 A 
ATOM     18  N   UNL     1      -2.153  -3.800  -0.182  0.00  0.00    +0.000 NA
ATOM     19  C   UNL     1      -2.456  -3.025   0.871  0.00  0.00    +0.000 A 
ATOM     20  C   UNL     1      -1.888  -1.796   1.090  0.00  0.00    +0.000 A 
ATOM     21  C   UNL     1      -0.975  -1.388   0.143  0.00  0.00    +0.000 A 
ATOM     22  N   UNL     1      -0.640  -2.132  -0.931  0.00  0.00    +0.000 NA
ATOM     23  H   UNL     1      -1.679  -4.759  -2.293  0.00  0.00    +0.000 HD
ATOM     24  H   UNL     1      -0.595  -3.552  -2.882  0.00  0.00    +0.000 HD
ATOM     25  H   UNL     1      -3.191  -3.434   1.558  0.00  0.00    +0.000 HD
ATOM     26  H   UNL     1      -2.149  -1.203   1.953  0.00  0.00    +0.000 HD
ENDBRANCH   1  21
TORSDOF 1
