
 OpenBabel01112422253D

 72 80  0  0  1  0  0  0  0  0999 V2000
    1.4023   -1.5502   -0.9675 C   0  0  0  0  0  0  0  0  0  0  0  0
    1.7572   -0.1940   -1.2698 O   0  0  0  0  0  0  0  0  0  0  0  0
    1.4023    0.7559   -0.2649 C   0  0  1  0  0  0  0  0  0  0  0  0
    1.7957    2.2215   -0.6084 C   0  0  1  0  0  0  0  0  0  0  0  0
    3.2583    2.3817   -0.8335 N   0  0  0  0  0  0  0  0  0  0  0  0
    3.7770    2.1793   -2.1805 C   0  0  0  0  0  0  0  0  0  0  0  0
    4.2554    2.0781    0.1836 C   0  0  0  0  0  0  0  0  0  0  0  0
    5.4043    1.7862   -0.1648 O   0  0  0  0  0  0  0  0  0  0  0  0
    4.0497    2.1065    1.6972 C   0  0  0  0  0  0  0  0  0  0  0  0
    5.0504    1.4997    2.5004 C   0  0  0  0  0  0  0  0  0  0  0  0
    5.0675    1.6286    3.9015 C   0  0  0  0  0  0  0  0  0  0  0  0
    4.0641    2.3396    4.5445 C   0  0  0  0  0  0  0  0  0  0  0  0
    3.0402    2.8939    3.7893 C   0  0  0  0  0  0  0  0  0  0  0  0
    3.0483    2.7964    2.3877 C   0  0  0  0  0  0  0  0  0  0  0  0
    0.5365    3.0145   -1.3345 C   0  0  0  0  0  0  0  0  0  0  0  0
   -0.6632    3.1914   -0.1539 C   0  0  2  0  0  0  0  0  0  0  0  0
   -0.2700    2.1729    0.7405 O   0  0  0  0  0  0  0  0  0  0  0  0
   -0.0983    0.8372    0.0934 C   0  0  2  0  0  0  0  0  0  0  0  0
   -0.3340    0.0822    1.4281 C   0  0  0  0  0  0  0  0  0  0  0  0
   -1.0080    0.6241   -1.0703 N   0  0  0  0  0  0  0  0  0  0  0  0
   -1.1075   -0.0875   -2.2983 C   0  0  0  0  0  0  0  0  0  0  0  0
   -0.2277   -0.3075   -3.3816 C   0  0  0  0  0  0  0  0  0  0  0  0
   -0.7456   -0.5928   -4.6585 C   0  0  0  0  0  0  0  0  0  0  0  0
   -2.1096   -0.6097   -4.9048 C   0  0  0  0  0  0  0  0  0  0  0  0
   -2.9910   -0.5227   -3.8379 C   0  0  0  0  0  0  0  0  0  0  0  0
   -2.5121   -0.4474   -2.5017 C   0  0  0  0  0  0  0  0  0  0  0  0
   -3.2693   -0.0073   -1.3933 C   0  0  0  0  0  0  0  0  0  0  0  0
   -3.5585   -0.8526   -0.2587 C   0  0  0  0  0  0  0  0  0  0  0  0
   -4.0314   -0.0868    0.8353 C   0  0  0  0  0  0  0  0  0  0  0  0
   -3.5676    1.2517    0.7453 C   0  0  0  0  0  0  0  0  0  0  0  0
   -3.2813    2.1093    1.8379 C   0  0  0  0  0  0  0  0  0  0  0  0
   -3.8741    2.0908    3.1040 C   0  0  0  0  0  0  0  0  0  0  0  0
   -5.0863    2.7567    3.0324 C   0  0  0  0  0  0  0  0  0  0  0  0
   -5.2601    3.7653    2.0784 C   0  0  0  0  0  0  0  0  0  0  0  0
   -4.1978    4.1877    1.2126 C   0  0  0  0  0  0  0  0  0  0  0  0
   -3.0247    3.3745    1.1360 C   0  0  0  0  0  0  0  0  0  0  0  0
   -2.1485    3.0892   -0.0607 N   0  0  0  0  0  0  0  0  0  0  0  0
   -2.7674    1.8804   -0.2160 C   0  0  0  0  0  0  0  0  0  0  0  0
   -2.3255    0.9671   -1.0923 C   0  0  0  0  0  0  0  0  0  0  0  0
   -4.3023   -0.9591    1.9317 C   0  0  0  0  0  0  0  0  0  0  0  0
   -4.9434   -0.8341    2.9515 O   0  0  0  0  0  0  0  0  0  0  0  0
   -3.6236   -2.0898    1.5563 N   0  0  0  0  0  0  0  0  0  0  0  0
   -2.9786   -2.0187    0.3452 C   0  0  0  0  0  0  0  0  0  0  0  0
   -1.9802   -2.6818    0.0894 O   0  0  0  0  0  0  0  0  0  0  0  0
    0.3456   -1.6571   -0.7133 H   0  0  0  0  0  0  0  0  0  0  0  0
    2.0081   -1.9398   -0.1490 H   0  0  0  0  0  0  0  0  0  0  0  0
    1.5734   -2.1571   -1.8627 H   0  0  0  0  0  0  0  0  0  0  0  0
    1.9893    0.4685    0.6141 H   0  0  0  0  0  0  0  0  0  0  0  0
    1.7563    2.7714    0.3103 H   0  0  0  0  0  0  0  0  0  0  0  0
    3.1269    2.6551   -2.9149 H   0  0  0  0  0  0  0  0  0  0  0  0
    3.8832    1.1079   -2.3836 H   0  0  0  0  0  0  0  0  0  0  0  0
    4.7755    2.6283   -2.2645 H   0  0  0  0  0  0  0  0  0  0  0  0
    5.8718    0.9513    2.0380 H   0  0  0  0  0  0  0  0  0  0  0  0
    5.8814    1.2007    4.4840 H   0  0  0  0  0  0  0  0  0  0  0  0
    4.0886    2.4854    5.6224 H   0  0  0  0  0  0  0  0  0  0  0  0
    2.2462    3.4520    4.2813 H   0  0  0  0  0  0  0  0  0  0  0  0
    2.2645    3.3512    1.9006 H   0  0  0  0  0  0  0  0  0  0  0  0
    0.1967    2.4638   -2.2185 H   0  0  0  0  0  0  0  0  0  0  0  0
    0.8640    3.9958   -1.6953 H   0  0  0  0  0  0  0  0  0  0  0  0
   -0.4690    4.1819    0.2702 H   0  0  0  0  0  0  0  0  0  0  0  0
    0.4964    0.3180    2.1169 H   0  0  0  0  0  0  0  0  0  0  0  0
   -0.4308   -1.0034    1.3414 H   0  0  0  0  0  0  0  0  0  0  0  0
   -1.1860    0.4997    1.9777 H   0  0  0  0  0  0  0  0  0  0  0  0
    0.8353   -0.1279   -3.3119 H   0  0  0  0  0  0  0  0  0  0  0  0
   -0.0646   -0.7111   -5.4966 H   0  0  0  0  0  0  0  0  0  0  0  0
   -2.4995   -0.5963   -5.9231 H   0  0  0  0  0  0  0  0  0  0  0  0
   -4.0560   -0.3729   -4.0299 H   0  0  0  0  0  0  0  0  0  0  0  0
   -3.8217    1.2078    3.7440 H   0  0  0  0  0  0  0  0  0  0  0  0
   -5.9134    2.3827    3.6327 H   0  0  0  0  0  0  0  0  0  0  0  0
   -6.2675    4.1598    1.9458 H   0  0  0  0  0  0  0  0  0  0  0  0
   -4.4191    4.9221    0.4449 H   0  0  0  0  0  0  0  0  0  0  0  0
   -3.2959   -2.6853    2.3036 H   0  0  0  0  0  0  0  0  0  0  0  0
  1  2  1  0  0  0  0
  1 45  1  0  0  0  0
  1 46  1  0  0  0  0
  1 47  1  0  0  0  0
  3  4  1  0  0  0  0
  3 18  1  0  0  0  0
  3  2  1  0  0  0  0
  3 48  1  1  0  0  0
  4 15  1  0  0  0  0
  4  5  1  0  0  0  0
  4 49  1  1  0  0  0
  5  6  1  0  0  0  0
  5  7  1  0  0  0  0
  6 50  1  0  0  0  0
  6 51  1  0  0  0  0
  6 52  1  0  0  0  0
  7  8  2  0  0  0  0
  7  9  1  0  0  0  0
  9 10  1  0  0  0  0
  9 14  2  0  0  0  0
 10 11  2  0  0  0  0
 10 53  1  0  0  0  0
 11 12  1  0  0  0  0
 11 54  1  0  0  0  0
 12 13  2  0  0  0  0
 12 55  1  0  0  0  0
 13 14  1  0  0  0  0
 13 56  1  0  0  0  0
 14 57  1  0  0  0  0
 15 16  1  0  0  0  0
 15 58  1  0  0  0  0
 15 59  1  0  0  0  0
 16 17  1  0  0  0  0
 16 37  1  0  0  0  0
 16 60  1  1  0  0  0
 17 18  1  0  0  0  0
 18 20  1  0  0  0  0
 18 19  1  1  0  0  0
 19 61  1  0  0  0  0
 19 62  1  0  0  0  0
 19 63  1  0  0  0  0
 20 21  1  0  0  0  0
 20 39  1  0  0  0  0
 21 22  1  0  0  0  0
 21 26  2  0  0  0  0
 22 23  2  0  0  0  0
 22 64  1  0  0  0  0
 23 24  1  0  0  0  0
 23 65  1  0  0  0  0
 24 25  2  0  0  0  0
 24 66  1  0  0  0  0
 25 26  1  0  0  0  0
 25 67  1  0  0  0  0
 26 27  1  0  0  0  0
 27 28  1  0  0  0  0
 27 39  2  0  0  0  0
 28 29  2  0  0  0  0
 28 43  1  0  0  0  0
 29 30  1  0  0  0  0
 29 40  1  0  0  0  0
 30 31  1  0  0  0  0
 30 38  2  0  0  0  0
 31 32  1  0  0  0  0
 31 36  2  0  0  0  0
 32 33  2  0  0  0  0
 32 68  1  0  0  0  0
 33 34  1  0  0  0  0
 33 69  1  0  0  0  0
 34 35  2  0  0  0  0
 34 70  1  0  0  0  0
 35 36  1  0  0  0  0
 35 71  1  0  0  0  0
 36 37  1  0  0  0  0
 37 38  1  0  0  0  0
 38 39  1  0  0  0  0
 40 42  1  0  0  0  0
 40 41  2  0  0  0  0
 42 43  1  0  0  0  0
 42 72  1  0  0  0  0
 43 44  2  0  0  0  0
M  END
$$$$
