REMARK  Name = 
REMARK  8 active torsions:
REMARK  status: ('A' for Active; 'I' for Inactive)
REMARK    1  A    between atoms: N_1  and  C_2
REMARK    2  A    between atoms: C_2  and  C_3
REMARK    3  A    between atoms: C_2  and  C_21
REMARK    4  A    between atoms: C_3  and  O_4
REMARK    5  A    between atoms: O_4  and  C_5
REMARK    6  A    between atoms: C_9  and  C_10
REMARK    7  A    between atoms: C_21  and  C_22
REMARK    8  A    between atoms: C_26  and  C_27
REMARK                            x       y       z     vdW  Elec       q    Type
REMARK                         _______ _______ _______ _____ _____    ______ ____
ROOT
ATOM      1  C   UNL     1       0.659  -0.465   0.648  0.00  0.00    +0.000 C 
ATOM      2  H   UNL     1       0.325  -1.199   1.391  0.00  0.00    +0.000 HD
ATOM      3  H   UNL     1       0.306   0.533   0.936  0.00  0.00    +0.000 HD
ENDROOT
BRANCH   1   4
ATOM      4  C   UNL     1       2.206  -0.442   0.603  0.00  0.00    +0.000 C 
ATOM      5  H   UNL     1       2.560  -0.134   1.593  0.00  0.00    +0.000 HD
BRANCH   4   6
ATOM      6  N   UNL     1       2.723  -1.803   0.362  0.00  0.00    +0.000 NA
ATOM      7  H   UNL     1       3.742  -1.769   0.302  0.00  0.00    +0.000 HD
ATOM      8  H   UNL     1       2.402  -2.116  -0.556  0.00  0.00    +0.000 HD
ENDBRANCH   4   6
BRANCH   4   9
ATOM      9  C   UNL     1       2.695   0.572  -0.461  0.00  0.00    +0.000 C 
ATOM     10  H   UNL     1       2.307   1.570  -0.215  0.00  0.00    +0.000 HD
ATOM     11  H   UNL     1       2.268   0.316  -1.440  0.00  0.00    +0.000 HD
BRANCH   9  12
ATOM     12  C   UNL     1       4.196   0.682  -0.591  0.00  0.00    +0.000 A 
ATOM     13  C   UNL     1       4.988   1.069   0.500  0.00  0.00    +0.000 A 
ATOM     14  C   UNL     1       6.373   1.158   0.363  0.00  0.00    +0.000 A 
ATOM     15  C   UNL     1       6.984   0.875  -0.859  0.00  0.00    +0.000 A 
ATOM     16  C   UNL     1       6.211   0.501  -1.969  0.00  0.00    +0.000 A 
ATOM     17  C   UNL     1       4.816   0.410  -1.817  0.00  0.00    +0.000 A 
ATOM     18  H   UNL     1       4.528   1.299   1.458  0.00  0.00    +0.000 HD
ATOM     19  H   UNL     1       6.983   1.454   1.216  0.00  0.00    +0.000 HD
ATOM     20  H   UNL     1       8.065   0.954  -0.947  0.00  0.00    +0.000 HD
ATOM     21  H   UNL     1       4.211   0.117  -2.675  0.00  0.00    +0.000 HD
BRANCH  16  22
ATOM     22  C   UNL     1       6.847   0.206  -3.305  0.00  0.00    +0.000 C 
ATOM     23  F   UNL     1       8.199   0.342  -3.311  0.00  0.00    +0.000 F 
ATOM     24  F   UNL     1       6.597  -1.065  -3.727  0.00  0.00    +0.000 F 
ATOM     25  F   UNL     1       6.381   1.021  -4.296  0.00  0.00    +0.000 F 
ENDBRANCH  16  22
ENDBRANCH   9  12
ENDBRANCH   4   9
ENDBRANCH   1   4
BRANCH   1  26
ATOM     26  O   UNL     1       0.146  -0.807  -0.645  0.00  0.00    +0.000 OA
BRANCH  26  27
ATOM     27  C   UNL     1      -1.211  -0.873  -0.772  0.00  0.00    +0.000 A 
ATOM     28  C   UNL     1      -1.689  -1.277  -2.012  0.00  0.00    +0.000 A 
ATOM     29  N   UNL     1      -2.999  -1.398  -2.325  0.00  0.00    +0.000 NA
ATOM     30  C   UNL     1      -3.878  -1.077  -1.346  0.00  0.00    +0.000 A 
ATOM     31  C   UNL     1      -3.527  -0.650  -0.065  0.00  0.00    +0.000 A 
ATOM     32  C   UNL     1      -2.151  -0.557   0.207  0.00  0.00    +0.000 A 
ATOM     33  H   UNL     1      -1.002  -1.517  -2.819  0.00  0.00    +0.000 HD
ATOM     34  H   UNL     1      -4.919  -1.141  -1.656  0.00  0.00    +0.000 HD
ATOM     35  H   UNL     1      -1.847  -0.208   1.189  0.00  0.00    +0.000 HD
BRANCH  31  36
ATOM     36  C   UNL     1      -4.539  -0.206   0.905  0.00  0.00    +0.000 A 
ATOM     37  C   UNL     1      -5.769  -0.848   1.064  0.00  0.00    +0.000 A 
ATOM     38  C   UNL     1      -6.733  -0.177   1.833  0.00  0.00    +0.000 A 
ATOM     39  C   UNL     1      -8.052  -0.410   2.285  0.00  0.00    +0.000 A 
ATOM     40 CL   UNL     1      -8.926  -1.854   2.138  0.00  0.00    +0.000 Cl
ATOM     41  N   UNL     1      -8.580   0.643   2.915  0.00  0.00    +0.000 NA
ATOM     42  N   UNL     1      -7.570   1.530   2.932  0.00  0.00    +0.000 N 
ATOM     43  C   UNL     1      -6.412   1.058   2.379  0.00  0.00    +0.000 A 
ATOM     44  C   UNL     1      -5.138   1.588   2.308  0.00  0.00    +0.000 A 
ATOM     45  N   UNL     1      -4.215   0.938   1.565  0.00  0.00    +0.000 NA
ATOM     46  H   UNL     1      -5.996  -1.791   0.579  0.00  0.00    +0.000 HD
ATOM     47  H   UNL     1      -7.738   2.444   3.341  0.00  0.00    +0.000 HD
ATOM     48  H   UNL     1      -4.829   2.504   2.795  0.00  0.00    +0.000 HD
ENDBRANCH  31  36
ENDBRANCH  26  27
ENDBRANCH   1  26
TORSDOF 8
