
 OpenBabel01112422573D

 60 63  0  0  0  0  0  0  0  0999 V2000
    7.0419    5.0432    4.7424 C   0  0  0  0  0  0  0  0  0  0  0  0
    6.8549    3.8577    3.9697 O   0  0  0  0  0  0  0  0  0  0  0  0
    7.4653    2.7492    4.4550 C   0  0  0  0  0  0  0  0  0  0  0  0
    8.1416    2.6833    5.4681 O   0  0  0  0  0  0  0  0  0  0  0  0
    7.2201    1.5940    3.5463 C   0  0  0  0  0  0  0  0  0  0  0  0
    6.4169    1.7371    2.4089 C   0  0  0  0  0  0  0  0  0  0  0  0
    6.1983    0.6531    1.5710 C   0  0  0  0  0  0  0  0  0  0  0  0
    6.8055   -0.5685    1.8460 C   0  0  0  0  0  0  0  0  0  0  0  0
    7.6525   -0.7294    2.9478 C   0  0  0  0  0  0  0  0  0  0  0  0
    8.3645   -1.9300    3.1777 N   0  0  0  0  0  0  0  0  0  0  0  0
    8.4438   -3.0234    2.3214 C   0  0  0  0  0  0  0  0  0  0  0  0
    7.8555   -3.1266    1.2463 O   0  0  0  0  0  0  0  0  0  0  0  0
    9.4536   -4.1273    2.7846 C   0  0  0  0  0  0  0  0  0  0  0  0
    9.2048   -4.3964    4.2594 N   0  0  0  0  0  0  0  0  0  0  0  0
    7.8029   -4.7657    4.5356 C   0  0  0  0  0  0  0  0  0  0  0  0
   10.0542   -5.4675    4.8119 C   0  0  0  0  0  0  0  0  0  0  0  0
   10.8550   -3.4789    2.5732 C   0  0  0  0  0  0  0  0  0  0  0  0
   11.1883   -3.3445    1.0820 C   0  0  0  0  0  0  0  0  0  0  0  0
   11.1788   -4.6900    0.5540 N   0  0  0  0  0  0  0  0  0  0  0  0
   12.2211   -5.2154   -0.1810 C   0  0  0  0  0  0  0  0  0  0  0  0
   11.8852   -6.0551   -1.2087 N   0  0  0  0  0  0  0  0  0  0  0  0
   12.8363   -6.6308   -1.9580 C   0  0  0  0  0  0  0  0  0  0  0  0
   14.1573   -6.4958   -1.8407 N   0  0  0  0  0  0  0  0  0  0  0  0
   14.4748   -5.6969   -0.8150 C   0  0  0  0  0  0  0  0  0  0  0  0
   15.7677   -5.4346   -0.4733 N   0  0  0  0  0  0  0  0  0  0  0  0
   15.8033   -4.6486    0.6354 C   0  0  0  0  0  0  0  0  0  0  0  0
   14.5010   -4.3913    1.0312 C   0  0  0  0  0  0  0  0  0  0  0  0
   14.2033   -3.6356    2.2748 C   0  0  0  0  0  0  0  0  0  0  0  0
   13.6187   -5.0334    0.0651 C   0  0  0  0  0  0  0  0  0  0  0  0
    9.8393   -5.2617    0.4593 C   0  0  0  0  0  0  0  0  0  0  0  0
    9.3036   -5.4051    1.8931 C   0  0  0  0  0  0  0  0  0  0  0  0
    7.8270    0.3507    3.8241 C   0  0  0  0  0  0  0  0  0  0  0  0
    6.4186    5.8283    4.3046 H   0  0  0  0  0  0  0  0  0  0  0  0
    8.0863    5.3644    4.6940 H   0  0  0  0  0  0  0  0  0  0  0  0
    6.7254    4.8887    5.7776 H   0  0  0  0  0  0  0  0  0  0  0  0
    5.9587    2.6890    2.1520 H   0  0  0  0  0  0  0  0  0  0  0  0
    5.5684    0.7511    0.6925 H   0  0  0  0  0  0  0  0  0  0  0  0
    6.5864   -1.3843    1.1681 H   0  0  0  0  0  0  0  0  0  0  0  0
    8.8859   -2.0195    4.0488 H   0  0  0  0  0  0  0  0  0  0  0  0
    7.1119   -3.9495    4.3077 H   0  0  0  0  0  0  0  0  0  0  0  0
    7.6680   -4.9695    5.6045 H   0  0  0  0  0  0  0  0  0  0  0  0
    7.4839   -5.6547    3.9826 H   0  0  0  0  0  0  0  0  0  0  0  0
   11.1207   -5.2732    4.6730 H   0  0  0  0  0  0  0  0  0  0  0  0
    9.8213   -6.4532    4.4006 H   0  0  0  0  0  0  0  0  0  0  0  0
    9.9077   -5.5356    5.8981 H   0  0  0  0  0  0  0  0  0  0  0  0
   11.6057   -4.1205    3.0328 H   0  0  0  0  0  0  0  0  0  0  0  0
   10.9389   -2.4983    3.0541 H   0  0  0  0  0  0  0  0  0  0  0  0
   12.1264   -2.8235    0.9025 H   0  0  0  0  0  0  0  0  0  0  0  0
   10.4427   -2.7253    0.5670 H   0  0  0  0  0  0  0  0  0  0  0  0
   12.4898   -7.2871   -2.7506 H   0  0  0  0  0  0  0  0  0  0  0  0
   16.5613   -5.8153   -0.9657 H   0  0  0  0  0  0  0  0  0  0  0  0
   16.7461   -4.3612    1.0823 H   0  0  0  0  0  0  0  0  0  0  0  0
   15.1255   -3.3854    2.8136 H   0  0  0  0  0  0  0  0  0  0  0  0
   13.6101   -4.2434    2.9577 H   0  0  0  0  0  0  0  0  0  0  0  0
   13.7148   -2.6806    2.0767 H   0  0  0  0  0  0  0  0  0  0  0  0
    9.8255   -6.2579    0.0011 H   0  0  0  0  0  0  0  0  0  0  0  0
    9.1926   -4.6288   -0.1590 H   0  0  0  0  0  0  0  0  0  0  0  0
    9.8770   -6.2292    2.3317 H   0  0  0  0  0  0  0  0  0  0  0  0
    8.2589   -5.7335    1.8476 H   0  0  0  0  0  0  0  0  0  0  0  0
    8.4550    0.2544    4.7067 H   0  0  0  0  0  0  0  0  0  0  0  0
  1  2  1  0  0  0  0
  1 33  1  0  0  0  0
  1 34  1  0  0  0  0
  1 35  1  0  0  0  0
  2  3  1  0  0  0  0
  3  4  2  0  0  0  0
  3  5  1  0  0  0  0
  5  6  1  0  0  0  0
  5 32  2  0  0  0  0
  6  7  2  0  0  0  0
  6 36  1  0  0  0  0
  7  8  1  0  0  0  0
  7 37  1  0  0  0  0
  8  9  2  0  0  0  0
  8 38  1  0  0  0  0
  9 10  1  0  0  0  0
  9 32  1  0  0  0  0
 10 11  1  0  0  0  0
 10 39  1  0  0  0  0
 11 12  2  0  0  0  0
 11 13  1  0  0  0  0
 13 14  1  0  0  0  0
 13 17  1  0  0  0  0
 13 31  1  0  0  0  0
 14 15  1  0  0  0  0
 14 16  1  0  0  0  0
 15 40  1  0  0  0  0
 15 41  1  0  0  0  0
 15 42  1  0  0  0  0
 16 43  1  0  0  0  0
 16 44  1  0  0  0  0
 16 45  1  0  0  0  0
 17 18  1  0  0  0  0
 17 46  1  0  0  0  0
 17 47  1  0  0  0  0
 18 19  1  0  0  0  0
 18 48  1  0  0  0  0
 18 49  1  0  0  0  0
 19 20  1  0  0  0  0
 19 30  1  0  0  0  0
 20 21  1  0  0  0  0
 20 29  2  0  0  0  0
 21 22  2  0  0  0  0
 22 23  1  0  0  0  0
 22 50  1  0  0  0  0
 23 24  2  0  0  0  0
 24 25  1  0  0  0  0
 24 29  1  0  0  0  0
 25 26  1  0  0  0  0
 25 51  1  0  0  0  0
 26 27  2  0  0  0  0
 26 52  1  0  0  0  0
 27 28  1  0  0  0  0
 27 29  1  0  0  0  0
 28 53  1  0  0  0  0
 28 54  1  0  0  0  0
 28 55  1  0  0  0  0
 30 31  1  0  0  0  0
 30 56  1  0  0  0  0
 30 57  1  0  0  0  0
 31 58  1  0  0  0  0
 31 59  1  0  0  0  0
 32 60  1  0  0  0  0
M  END
$$$$
