MODEL 1
REMARK VINA RESULT:   -11.681      0.000      0.000
REMARK INTER + INTRA:         -12.363
REMARK INTER:                 -12.363
REMARK INTRA:                   0.000
REMARK UNBOUND:                 0.000
REMARK  Name = 
REMARK  2 active torsions:
REMARK  status: ('A' for Active; 'I' for Inactive)
REMARK    1  A    between atoms: C_1  and  N_2
REMARK    2  A    between atoms: C_13  and  O_14
REMARK                            x       y       z     vdW  Elec       q    Type
REMARK                         _______ _______ _______ _____ _____    ______ ____
ROOT
ATOM      1  N   UNL     1     -10.202  -2.930  18.484  0.00  0.00    +0.000 N 
ATOM      2  C   UNL     1     -10.562  -1.750  17.855  0.00  0.00    +0.000 A 
ATOM      3  C   UNL     1     -11.375  -2.111  16.819  0.00  0.00    +0.000 A 
ATOM      4  C   UNL     1     -11.064  -3.461  16.534  0.00  0.00    +0.000 A 
ATOM      5  C   UNL     1     -11.454  -4.245  15.439  0.00  0.00    +0.000 A 
ATOM      6  C   UNL     1     -11.081  -5.570  15.372  0.00  0.00    +0.000 A 
ATOM      7  C   UNL     1     -10.434  -6.136  16.460  0.00  0.00    +0.000 A 
ATOM      8  C   UNL     1     -10.270  -7.523  16.428  0.00  0.00    +0.000 A 
ATOM      9  N   UNL     1     -10.314  -8.463  15.427  0.00  0.00    +0.000 N 
ATOM     10  C   UNL     1      -9.774  -9.660  15.862  0.00  0.00    +0.000 A 
ATOM     11  C   UNL     1      -9.404 -10.775  15.110  0.00  0.00    +0.000 A 
ATOM     12  C   UNL     1      -8.853 -11.846  15.800  0.00  0.00    +0.000 A 
ATOM     13  C   UNL     1      -8.695 -11.826  17.180  0.00  0.00    +0.000 A 
ATOM     14  C   UNL     1      -9.067 -10.701  17.919  0.00  0.00    +0.000 A 
ATOM     15  C   UNL     1      -9.597  -9.579  17.251  0.00  0.00    +0.000 A 
ATOM     16  C   UNL     1      -9.943  -8.255  17.532  0.00  0.00    +0.000 A 
ATOM     17  C   UNL     1      -9.519  -7.594  18.713  0.00  0.00    +0.000 A 
ATOM     18  C   UNL     1      -9.238  -6.205  18.506  0.00  0.00    +0.000 A 
ATOM     19  C   UNL     1      -9.939  -5.391  17.583  0.00  0.00    +0.000 A 
ATOM     20  C   UNL     1     -10.277  -4.000  17.589  0.00  0.00    +0.000 A 
ATOM     21  C   UNL     1      -7.869  -6.110  18.994  0.00  0.00    +0.000 C 
ATOM     22  O   UNL     1      -6.884  -5.505  18.580  0.00  0.00    +0.000 OA
ATOM     23  N   UNL     1      -7.760  -7.167  19.887  0.00  0.00    +0.000 N 
ATOM     24  C   UNL     1      -8.759  -8.095  19.819  0.00  0.00    +0.000 C 
ATOM     25  O   UNL     1      -8.864  -9.067  20.570  0.00  0.00    +0.000 OA
ATOM     26  H   UNL     1     -10.405  -0.783  18.317  0.00  0.00    +0.000 HD
ATOM     27  H   UNL     1     -12.047  -1.469  16.264  0.00  0.00    +0.000 HD
ATOM     28  H   UNL     1     -12.066  -3.813  14.652  0.00  0.00    +0.000 HD
ATOM     29  H   UNL     1     -11.384  -6.148  14.508  0.00  0.00    +0.000 HD
ATOM     30  H   UNL     1     -10.473  -8.237  14.458  0.00  0.00    +0.000 HD
ATOM     31  H   UNL     1      -9.518 -10.779  14.034  0.00  0.00    +0.000 HD
ATOM     32  H   UNL     1      -8.261 -12.683  17.691  0.00  0.00    +0.000 HD
ATOM     33  H   UNL     1      -8.915 -10.715  18.993  0.00  0.00    +0.000 HD
ATOM     34  H   UNL     1      -6.862  -7.494  20.212  0.00  0.00    +0.000 HD
ENDROOT
BRANCH   1  35
ATOM     35  C   UNL     1     -10.289  -2.975  19.931  0.00  0.00    +0.000 C 
ATOM     36  H   UNL     1     -11.222  -3.439  20.238  0.00  0.00    +0.000 HD
ATOM     37  H   UNL     1     -10.164  -1.959  20.313  0.00  0.00    +0.000 HD
ATOM     38  H   UNL     1      -9.443  -3.571  20.307  0.00  0.00    +0.000 HD
ENDBRANCH   1  35
BRANCH  12  39
ATOM     39  O   UNL     1      -8.431 -12.963  15.139  0.00  0.00    +0.000 OA
ATOM     40  H   UNL     1      -8.480 -12.786  14.185  0.00  0.00    +0.000 HD
ENDBRANCH  12  39
TORSDOF 2
ENDMDL
MODEL 2
REMARK VINA RESULT:   -10.167      1.062      1.359
REMARK INTER + INTRA:         -10.761
REMARK INTER:                 -10.761
REMARK INTRA:                   0.000
REMARK UNBOUND:                 0.000
REMARK  Name = 
REMARK  2 active torsions:
REMARK  status: ('A' for Active; 'I' for Inactive)
REMARK    1  A    between atoms: C_1  and  N_2
REMARK    2  A    between atoms: C_13  and  O_14
REMARK                            x       y       z     vdW  Elec       q    Type
REMARK                         _______ _______ _______ _____ _____    ______ ____
ROOT
ATOM      1  N   UNL     1      -9.063  -2.694  20.014  0.00  0.00    +0.000 N 
ATOM      2  C   UNL     1      -9.287  -1.369  19.681  0.00  0.00    +0.000 A 
ATOM      3  C   UNL     1     -10.252  -1.383  18.715  0.00  0.00    +0.000 A 
ATOM      4  C   UNL     1     -10.200  -2.671  18.133  0.00  0.00    +0.000 A 
ATOM      5  C   UNL     1     -10.827  -3.141  16.970  0.00  0.00    +0.000 A 
ATOM      6  C   UNL     1     -10.686  -4.460  16.597  0.00  0.00    +0.000 A 
ATOM      7  C   UNL     1     -10.031  -5.330  17.455  0.00  0.00    +0.000 A 
ATOM      8  C   UNL     1     -10.103  -6.687  17.132  0.00  0.00    +0.000 A 
ATOM      9  N   UNL     1     -10.405  -7.377  15.983  0.00  0.00    +0.000 N 
ATOM     10  C   UNL     1     -10.028  -8.702  16.100  0.00  0.00    +0.000 A 
ATOM     11  C   UNL     1      -9.928  -9.672  15.101  0.00  0.00    +0.000 A 
ATOM     12  C   UNL     1      -9.492 -10.932  15.488  0.00  0.00    +0.000 A 
ATOM     13  C   UNL     1      -9.189 -11.229  16.811  0.00  0.00    +0.000 A 
ATOM     14  C   UNL     1      -9.291 -10.246  17.798  0.00  0.00    +0.000 A 
ATOM     15  C   UNL     1      -9.695  -8.945  17.440  0.00  0.00    +0.000 A 
ATOM     16  C   UNL     1      -9.787  -7.676  18.017  0.00  0.00    +0.000 A 
ATOM     17  C   UNL     1      -9.138  -7.349  19.235  0.00  0.00    +0.000 A 
ATOM     18  C   UNL     1      -8.655  -6.000  19.266  0.00  0.00    +0.000 A 
ATOM     19  C   UNL     1      -9.305  -4.919  18.624  0.00  0.00    +0.000 A 
ATOM     20  C   UNL     1      -9.407  -3.527  18.947  0.00  0.00    +0.000 A 
ATOM     21  C   UNL     1      -7.246  -6.204  19.572  0.00  0.00    +0.000 C 
ATOM     22  O   UNL     1      -6.224  -5.669  19.153  0.00  0.00    +0.000 OA
ATOM     23  N   UNL     1      -7.221  -7.432  20.219  0.00  0.00    +0.000 N 
ATOM     24  C   UNL     1      -8.360  -8.175  20.108  0.00  0.00    +0.000 C 
ATOM     25  O   UNL     1      -8.545  -9.260  20.663  0.00  0.00    +0.000 OA
ATOM     26  H   UNL     1      -8.926  -0.555  20.297  0.00  0.00    +0.000 HD
ATOM     27  H   UNL     1     -10.863  -0.550  18.393  0.00  0.00    +0.000 HD
ATOM     28  H   UNL     1     -11.437  -2.470  16.373  0.00  0.00    +0.000 HD
ATOM     29  H   UNL     1     -11.169  -4.792  15.686  0.00  0.00    +0.000 HD
ATOM     30  H   UNL     1     -10.626  -6.929  15.108  0.00  0.00    +0.000 HD
ATOM     31  H   UNL     1     -10.153  -9.430  14.071  0.00  0.00    +0.000 HD
ATOM     32  H   UNL     1      -8.851 -12.227  17.081  0.00  0.00    +0.000 HD
ATOM     33  H   UNL     1      -9.032 -10.511  18.818  0.00  0.00    +0.000 HD
ATOM     34  H   UNL     1      -6.359  -7.943  20.349  0.00  0.00    +0.000 HD
ENDROOT
BRANCH   1  35
ATOM     35  C   UNL     1      -9.004  -3.034  21.422  0.00  0.00    +0.000 C 
ATOM     36  H   UNL     1      -9.981  -2.910  21.880  0.00  0.00    +0.000 HD
ATOM     37  H   UNL     1      -8.226  -2.426  21.889  0.00  0.00    +0.000 HD
ATOM     38  H   UNL     1      -8.692  -4.086  21.508  0.00  0.00    +0.000 HD
ENDBRANCH   1  35
BRANCH  12  39
ATOM     39  O   UNL     1      -9.331 -11.929  14.571  0.00  0.00    +0.000 OA
ATOM     40  H   UNL     1      -8.959 -11.540  13.763  0.00  0.00    +0.000 HD
ENDBRANCH  12  39
TORSDOF 2
ENDMDL
MODEL 3
REMARK VINA RESULT:    -9.970      2.181      4.032
REMARK INTER + INTRA:         -10.553
REMARK INTER:                 -10.553
REMARK INTRA:                   0.000
REMARK UNBOUND:                 0.000
REMARK  Name = 
REMARK  2 active torsions:
REMARK  status: ('A' for Active; 'I' for Inactive)
REMARK    1  A    between atoms: C_1  and  N_2
REMARK    2  A    between atoms: C_13  and  O_14
REMARK                            x       y       z     vdW  Elec       q    Type
REMARK                         _______ _______ _______ _____ _____    ______ ____
ROOT
ATOM      1  N   UNL     1     -10.000  -4.590  17.755  0.00  0.00    +0.000 N 
ATOM      2  C   UNL     1      -9.880  -3.536  18.644  0.00  0.00    +0.000 A 
ATOM      3  C   UNL     1      -8.871  -3.879  19.498  0.00  0.00    +0.000 A 
ATOM      4  C   UNL     1      -8.777  -5.289  19.442  0.00  0.00    +0.000 A 
ATOM      5  C   UNL     1      -8.053  -6.159  20.270  0.00  0.00    +0.000 A 
ATOM      6  C   UNL     1      -8.055  -7.513  20.014  0.00  0.00    +0.000 A 
ATOM      7  C   UNL     1      -8.670  -7.973  18.859  0.00  0.00    +0.000 A 
ATOM      8  C   UNL     1      -8.459  -9.317  18.541  0.00  0.00    +0.000 A 
ATOM      9  N   UNL     1      -8.039 -10.410  19.258  0.00  0.00    +0.000 N 
ATOM     10  C   UNL     1      -8.299 -11.576  18.562  0.00  0.00    +0.000 A 
ATOM     11  C   UNL     1      -8.262 -12.893  19.021  0.00  0.00    +0.000 A 
ATOM     12  C   UNL     1      -8.600 -13.887  18.113  0.00  0.00    +0.000 A 
ATOM     13  C   UNL     1      -8.939 -13.594  16.798  0.00  0.00    +0.000 A 
ATOM     14  C   UNL     1      -8.976 -12.270  16.354  0.00  0.00    +0.000 A 
ATOM     15  C   UNL     1      -8.675 -11.230  17.256  0.00  0.00    +0.000 A 
ATOM     16  C   UNL     1      -8.727  -9.835  17.307  0.00  0.00    +0.000 A 
ATOM     17  C   UNL     1      -9.463  -9.069  16.367  0.00  0.00    +0.000 A 
ATOM     18  C   UNL     1     -10.067  -7.906  16.945  0.00  0.00    +0.000 A 
ATOM     19  C   UNL     1      -9.488  -7.162  18.001  0.00  0.00    +0.000 A 
ATOM     20  C   UNL     1      -9.529  -5.770  18.335  0.00  0.00    +0.000 A 
ATOM     21  C   UNL     1     -11.466  -8.097  16.585  0.00  0.00    +0.000 C 
ATOM     22  O   UNL     1     -12.510  -7.913  17.203  0.00  0.00    +0.000 OA
ATOM     23  N   UNL     1     -11.411  -8.904  15.457  0.00  0.00    +0.000 N 
ATOM     24  C   UNL     1     -10.205  -9.497  15.219  0.00  0.00    +0.000 C 
ATOM     25  O   UNL     1      -9.949 -10.196  14.237  0.00  0.00    +0.000 OA
ATOM     26  H   UNL     1     -10.345  -2.575  18.460  0.00  0.00    +0.000 HD
ATOM     27  H   UNL     1      -8.324  -3.217  20.157  0.00  0.00    +0.000 HD
ATOM     28  H   UNL     1      -7.478  -5.764  21.102  0.00  0.00    +0.000 HD
ATOM     29  H   UNL     1      -7.499  -8.164  20.677  0.00  0.00    +0.000 HD
ATOM     30  H   UNL     1      -7.817 -10.378  20.241  0.00  0.00    +0.000 HD
ATOM     31  H   UNL     1      -8.009 -13.114  20.050  0.00  0.00    +0.000 HD
ATOM     32  H   UNL     1      -9.198 -14.397  16.111  0.00  0.00    +0.000 HD
ATOM     33  H   UNL     1      -9.260 -12.079  15.325  0.00  0.00    +0.000 HD
ATOM     34  H   UNL     1     -12.228  -9.390  15.115  0.00  0.00    +0.000 HD
ENDROOT
BRANCH   1  35
ATOM     35  C   UNL     1     -10.097  -4.272  16.343  0.00  0.00    +0.000 C 
ATOM     36  H   UNL     1      -9.110  -4.076  15.933  0.00  0.00    +0.000 HD
ATOM     37  H   UNL     1     -10.789  -3.435  16.228  0.00  0.00    +0.000 HD
ATOM     38  H   UNL     1     -10.541  -5.136  15.827  0.00  0.00    +0.000 HD
ENDBRANCH   1  35
BRANCH  12  39
ATOM     39  O   UNL     1      -8.623 -15.200  18.487  0.00  0.00    +0.000 OA
ATOM     40  H   UNL     1      -8.364 -15.252  19.422  0.00  0.00    +0.000 HD
ENDBRANCH  12  39
TORSDOF 2
ENDMDL
MODEL 4
REMARK VINA RESULT:    -9.413      2.248      7.218
REMARK INTER + INTRA:          -9.963
REMARK INTER:                  -9.963
REMARK INTRA:                   0.000
REMARK UNBOUND:                 0.000
REMARK  Name = 
REMARK  2 active torsions:
REMARK  status: ('A' for Active; 'I' for Inactive)
REMARK    1  A    between atoms: C_1  and  N_2
REMARK    2  A    between atoms: C_13  and  O_14
REMARK                            x       y       z     vdW  Elec       q    Type
REMARK                         _______ _______ _______ _____ _____    ______ ____
ROOT
ATOM      1  N   UNL     1      -9.226 -10.503  17.075  0.00  0.00    +0.000 N 
ATOM      2  C   UNL     1      -8.595 -11.646  17.535  0.00  0.00    +0.000 A 
ATOM      3  C   UNL     1      -8.410 -11.458  18.875  0.00  0.00    +0.000 A 
ATOM      4  C   UNL     1      -8.440 -10.059  19.078  0.00  0.00    +0.000 A 
ATOM      5  C   UNL     1      -8.096  -9.325  20.223  0.00  0.00    +0.000 A 
ATOM      6  C   UNL     1      -8.244  -7.955  20.233  0.00  0.00    +0.000 A 
ATOM      7  C   UNL     1      -8.857  -7.342  19.150  0.00  0.00    +0.000 A 
ATOM      8  C   UNL     1      -9.174  -5.990  19.303  0.00  0.00    +0.000 A 
ATOM      9  N   UNL     1      -8.747  -5.004  20.159  0.00  0.00    +0.000 N 
ATOM     10  C   UNL     1      -9.133  -3.760  19.696  0.00  0.00    +0.000 A 
ATOM     11  C   UNL     1      -8.705  -2.501  20.117  0.00  0.00    +0.000 A 
ATOM     12  C   UNL     1      -9.235  -1.401  19.457  0.00  0.00    +0.000 A 
ATOM     13  C   UNL     1     -10.167  -1.538  18.436  0.00  0.00    +0.000 A 
ATOM     14  C   UNL     1     -10.584  -2.805  18.023  0.00  0.00    +0.000 A 
ATOM     15  C   UNL     1     -10.042  -3.948  18.644  0.00  0.00    +0.000 A 
ATOM     16  C   UNL     1     -10.037  -5.335  18.475  0.00  0.00    +0.000 A 
ATOM     17  C   UNL     1     -10.464  -5.953  17.272  0.00  0.00    +0.000 A 
ATOM     18  C   UNL     1      -9.708  -7.126  16.947  0.00  0.00    +0.000 A 
ATOM     19  C   UNL     1      -9.173  -8.008  17.917  0.00  0.00    +0.000 A 
ATOM     20  C   UNL     1      -8.938  -9.420  17.909  0.00  0.00    +0.000 A 
ATOM     21  C   UNL     1      -9.241  -6.807  15.605  0.00  0.00    +0.000 C 
ATOM     22  O   UNL     1      -8.166  -6.983  15.040  0.00  0.00    +0.000 OA
ATOM     23  N   UNL     1     -10.178  -5.897  15.135  0.00  0.00    +0.000 N 
ATOM     24  C   UNL     1     -11.003  -5.365  16.083  0.00  0.00    +0.000 C 
ATOM     25  O   UNL     1     -11.932  -4.589  15.847  0.00  0.00    +0.000 OA
ATOM     26  H   UNL     1      -8.545 -12.551  16.943  0.00  0.00    +0.000 HD
ATOM     27  H   UNL     1      -8.187 -12.217  19.614  0.00  0.00    +0.000 HD
ATOM     28  H   UNL     1      -7.730  -9.838  21.107  0.00  0.00    +0.000 HD
ATOM     29  H   UNL     1      -7.958  -7.412  21.125  0.00  0.00    +0.000 HD
ATOM     30  H   UNL     1      -8.045  -5.149  20.868  0.00  0.00    +0.000 HD
ATOM     31  H   UNL     1      -7.969  -2.402  20.904  0.00  0.00    +0.000 HD
ATOM     32  H   UNL     1     -10.564  -0.655  17.940  0.00  0.00    +0.000 HD
ATOM     33  H   UNL     1     -11.302  -2.874  17.214  0.00  0.00    +0.000 HD
ATOM     34  H   UNL     1      -9.998  -5.327  14.321  0.00  0.00    +0.000 HD
ENDROOT
BRANCH   1  35
ATOM     35  C   UNL     1     -10.372 -10.671  16.203  0.00  0.00    +0.000 C 
ATOM     36  H   UNL     1     -11.002 -11.481  16.561  0.00  0.00    +0.000 HD
ATOM     37  H   UNL     1     -10.008 -10.824  15.184  0.00  0.00    +0.000 HD
ATOM     38  H   UNL     1     -10.947  -9.733  16.207  0.00  0.00    +0.000 HD
ENDBRANCH   1  35
BRANCH  12  39
ATOM     39  O   UNL     1      -8.845  -0.134  19.781  0.00  0.00    +0.000 OA
ATOM     40  H   UNL     1      -9.098   0.456  19.052  0.00  0.00    +0.000 HD
ENDBRANCH  12  39
TORSDOF 2
ENDMDL
MODEL 5
REMARK VINA RESULT:    -8.973      2.147      3.869
REMARK INTER + INTRA:          -9.497
REMARK INTER:                  -9.497
REMARK INTRA:                   0.000
REMARK UNBOUND:                 0.000
REMARK  Name = 
REMARK  2 active torsions:
REMARK  status: ('A' for Active; 'I' for Inactive)
REMARK    1  A    between atoms: C_1  and  N_2
REMARK    2  A    between atoms: C_13  and  O_14
REMARK                            x       y       z     vdW  Elec       q    Type
REMARK                         _______ _______ _______ _____ _____    ______ ____
ROOT
ATOM      1  N   UNL     1      -9.678  -1.875  18.705  0.00  0.00    +0.000 N 
ATOM      2  C   UNL     1      -9.608  -0.898  19.683  0.00  0.00    +0.000 A 
ATOM      3  C   UNL     1      -8.723  -1.362  20.614  0.00  0.00    +0.000 A 
ATOM      4  C   UNL     1      -8.697  -2.767  20.458  0.00  0.00    +0.000 A 
ATOM      5  C   UNL     1      -8.120  -3.738  21.289  0.00  0.00    +0.000 A 
ATOM      6  C   UNL     1      -8.162  -5.067  20.928  0.00  0.00    +0.000 A 
ATOM      7  C   UNL     1      -8.663  -5.404  19.680  0.00  0.00    +0.000 A 
ATOM      8  C   UNL     1      -8.487  -6.731  19.281  0.00  0.00    +0.000 A 
ATOM      9  N   UNL     1      -8.209  -7.897  19.952  0.00  0.00    +0.000 N 
ATOM     10  C   UNL     1      -8.448  -8.992  19.142  0.00  0.00    +0.000 A 
ATOM     11  C   UNL     1      -8.532 -10.339  19.496  0.00  0.00    +0.000 A 
ATOM     12  C   UNL     1      -8.814 -11.242  18.481  0.00  0.00    +0.000 A 
ATOM     13  C   UNL     1      -8.984 -10.834  17.163  0.00  0.00    +0.000 A 
ATOM     14  C   UNL     1      -8.900  -9.481  16.824  0.00  0.00    +0.000 A 
ATOM     15  C   UNL     1      -8.651  -8.529  17.833  0.00  0.00    +0.000 A 
ATOM     16  C   UNL     1      -8.637  -7.141  17.989  0.00  0.00    +0.000 A 
ATOM     17  C   UNL     1      -9.218  -6.266  17.036  0.00  0.00    +0.000 A 
ATOM     18  C   UNL     1      -9.824  -5.113  17.633  0.00  0.00    +0.000 A 
ATOM     19  C   UNL     1      -9.332  -4.485  18.803  0.00  0.00    +0.000 A 
ATOM     20  C   UNL     1      -9.339  -3.121  19.239  0.00  0.00    +0.000 A 
ATOM     21  C   UNL     1     -11.180  -5.193  17.107  0.00  0.00    +0.000 C 
ATOM     22  O   UNL     1     -12.278  -4.991  17.617  0.00  0.00    +0.000 OA
ATOM     23  N   UNL     1     -11.037  -5.918  15.931  0.00  0.00    +0.000 N 
ATOM     24  C   UNL     1      -9.844  -6.563  15.783  0.00  0.00    +0.000 C 
ATOM     25  O   UNL     1      -9.514  -7.204  14.782  0.00  0.00    +0.000 OA
ATOM     26  H   UNL     1      -9.997   0.100  19.525  0.00  0.00    +0.000 HD
ATOM     27  H   UNL     1      -8.222  -0.785  21.380  0.00  0.00    +0.000 HD
ATOM     28  H   UNL     1      -7.624  -3.440  22.209  0.00  0.00    +0.000 HD
ATOM     29  H   UNL     1      -7.721  -5.797  21.596  0.00  0.00    +0.000 HD
ATOM     30  H   UNL     1      -8.101  -7.951  20.953  0.00  0.00    +0.000 HD
ATOM     31  H   UNL     1      -8.412 -10.648  20.526  0.00  0.00    +0.000 HD
ATOM     32  H   UNL     1      -9.203 -11.567  16.391  0.00  0.00    +0.000 HD
ATOM     33  H   UNL     1      -9.053  -9.198  15.789  0.00  0.00    +0.000 HD
ATOM     34  H   UNL     1     -11.833  -6.327  15.463  0.00  0.00    +0.000 HD
ENDROOT
BRANCH   1  35
ATOM     35  C   UNL     1      -9.595  -1.450  17.321  0.00  0.00    +0.000 C 
ATOM     36  H   UNL     1      -9.352  -0.392  17.267  0.00  0.00    +0.000 HD
ATOM     37  H   UNL     1     -10.536  -1.704  16.828  0.00  0.00    +0.000 HD
ATOM     38  H   UNL     1      -8.801  -2.033  16.831  0.00  0.00    +0.000 HD
ENDBRANCH   1  35
BRANCH  12  39
ATOM     39  O   UNL     1      -8.949 -12.574  18.745  0.00  0.00    +0.000 OA
ATOM     40  H   UNL     1      -9.848 -12.843  18.492  0.00  0.00    +0.000 HD
ENDBRANCH  12  39
TORSDOF 2
ENDMDL
MODEL 6
REMARK VINA RESULT:    -8.809      2.516      4.585
REMARK INTER + INTRA:          -9.324
REMARK INTER:                  -9.324
REMARK INTRA:                   0.000
REMARK UNBOUND:                 0.000
REMARK  Name = 
REMARK  2 active torsions:
REMARK  status: ('A' for Active; 'I' for Inactive)
REMARK    1  A    between atoms: C_1  and  N_2
REMARK    2  A    between atoms: C_13  and  O_14
REMARK                            x       y       z     vdW  Elec       q    Type
REMARK                         _______ _______ _______ _____ _____    ______ ____
ROOT
ATOM      1  N   UNL     1      -9.299  -1.128  20.833  0.00  0.00    +0.000 N 
ATOM      2  C   UNL     1      -8.777  -0.594  21.999  0.00  0.00    +0.000 A 
ATOM      3  C   UNL     1      -7.692  -1.363  22.311  0.00  0.00    +0.000 A 
ATOM      4  C   UNL     1      -7.895  -2.602  21.661  0.00  0.00    +0.000 A 
ATOM      5  C   UNL     1      -7.193  -3.806  21.816  0.00  0.00    +0.000 A 
ATOM      6  C   UNL     1      -7.521  -4.899  21.043  0.00  0.00    +0.000 A 
ATOM      7  C   UNL     1      -8.456  -4.744  20.031  0.00  0.00    +0.000 A 
ATOM      8  C   UNL     1      -8.593  -5.817  19.147  0.00  0.00    +0.000 A 
ATOM      9  N   UNL     1      -8.249  -7.146  19.203  0.00  0.00    +0.000 N 
ATOM     10  C   UNL     1      -8.885  -7.854  18.200  0.00  0.00    +0.000 A 
ATOM     11  C   UNL     1      -9.008  -9.236  18.050  0.00  0.00    +0.000 A 
ATOM     12  C   UNL     1      -9.731  -9.689  16.955  0.00  0.00    +0.000 A 
ATOM     13  C   UNL     1     -10.289  -8.815  16.032  0.00  0.00    +0.000 A 
ATOM     14  C   UNL     1     -10.159  -7.433  16.197  0.00  0.00    +0.000 A 
ATOM     15  C   UNL     1      -9.465  -6.932  17.316  0.00  0.00    +0.000 A 
ATOM     16  C   UNL     1      -9.226  -5.708  17.944  0.00  0.00    +0.000 A 
ATOM     17  C   UNL     1      -9.985  -4.546  17.651  0.00  0.00    +0.000 A 
ATOM     18  C   UNL     1     -10.202  -3.717  18.799  0.00  0.00    +0.000 A 
ATOM     19  C   UNL     1      -9.266  -3.572  19.852  0.00  0.00    +0.000 A 
ATOM     20  C   UNL     1      -8.955  -2.477  20.720  0.00  0.00    +0.000 A 
ATOM     21  C   UNL     1     -11.655  -3.613  18.811  0.00  0.00    +0.000 C 
ATOM     22  O   UNL     1     -12.478  -3.638  19.721  0.00  0.00    +0.000 OA
ATOM     23  N   UNL     1     -12.015  -3.834  17.488  0.00  0.00    +0.000 N 
ATOM     24  C   UNL     1     -11.034  -4.354  16.695  0.00  0.00    +0.000 C 
ATOM     25  O   UNL     1     -11.147  -4.561  15.485  0.00  0.00    +0.000 OA
ATOM     26  H   UNL     1      -9.070   0.383  22.363  0.00  0.00    +0.000 HD
ATOM     27  H   UNL     1      -6.892  -1.111  22.994  0.00  0.00    +0.000 HD
ATOM     28  H   UNL     1      -6.380  -3.872  22.533  0.00  0.00    +0.000 HD
ATOM     29  H   UNL     1      -6.972  -5.821  21.194  0.00  0.00    +0.000 HD
ATOM     30  H   UNL     1      -7.812  -7.574  20.005  0.00  0.00    +0.000 HD
ATOM     31  H   UNL     1      -8.582  -9.911  18.780  0.00  0.00    +0.000 HD
ATOM     32  H   UNL     1     -10.848  -9.203  15.184  0.00  0.00    +0.000 HD
ATOM     33  H   UNL     1     -10.621  -6.781  15.464  0.00  0.00    +0.000 HD
ATOM     34  H   UNL     1     -12.967  -4.048  17.228  0.00  0.00    +0.000 HD
ENDROOT
BRANCH   1  35
ATOM     35  C   UNL     1      -9.642  -0.207  19.766  0.00  0.00    +0.000 C 
ATOM     36  H   UNL     1     -10.129  -0.738  18.953  0.00  0.00    +0.000 HD
ATOM     37  H   UNL     1      -8.734   0.317  19.460  0.00  0.00    +0.000 HD
ATOM     38  H   UNL     1     -10.333   0.547  20.173  0.00  0.00    +0.000 HD
ENDBRANCH   1  35
BRANCH  12  39
ATOM     39  O   UNL     1      -9.930 -11.024  16.752  0.00  0.00    +0.000 OA
ATOM     40  H   UNL     1     -10.713 -11.130  16.187  0.00  0.00    +0.000 HD
ENDBRANCH  12  39
TORSDOF 2
ENDMDL
MODEL 7
REMARK VINA RESULT:    -8.742      2.535      6.481
REMARK INTER + INTRA:          -9.253
REMARK INTER:                  -9.253
REMARK INTRA:                   0.000
REMARK UNBOUND:                 0.000
REMARK  Name = 
REMARK  2 active torsions:
REMARK  status: ('A' for Active; 'I' for Inactive)
REMARK    1  A    between atoms: C_1  and  N_2
REMARK    2  A    between atoms: C_13  and  O_14
REMARK                            x       y       z     vdW  Elec       q    Type
REMARK                         _______ _______ _______ _____ _____    ______ ____
ROOT
ATOM      1  N   UNL     1      -8.994 -10.622  18.176  0.00  0.00    +0.000 N 
ATOM      2  C   UNL     1      -8.877 -11.954  17.816  0.00  0.00    +0.000 A 
ATOM      3  C   UNL     1      -8.394 -11.956  16.539  0.00  0.00    +0.000 A 
ATOM      4  C   UNL     1      -8.727 -10.694  15.995  0.00  0.00    +0.000 A 
ATOM      5  C   UNL     1      -8.649 -10.256  14.665  0.00  0.00    +0.000 A 
ATOM      6  C   UNL     1      -8.978  -8.956  14.348  0.00  0.00    +0.000 A 
ATOM      7  C   UNL     1      -9.255  -8.068  15.376  0.00  0.00    +0.000 A 
ATOM      8  C   UNL     1      -9.371  -6.723  15.016  0.00  0.00    +0.000 A 
ATOM      9  N   UNL     1      -9.592  -6.072  13.826  0.00  0.00    +0.000 N 
ATOM     10  C   UNL     1      -9.936  -4.752  14.052  0.00  0.00    +0.000 A 
ATOM     11  C   UNL     1     -10.471  -3.825  13.158  0.00  0.00    +0.000 A 
ATOM     12  C   UNL     1     -10.756  -2.561  13.656  0.00  0.00    +0.000 A 
ATOM     13  C   UNL     1     -10.501  -2.219  14.978  0.00  0.00    +0.000 A 
ATOM     14  C   UNL     1      -9.967  -3.160  15.862  0.00  0.00    +0.000 A 
ATOM     15  C   UNL     1      -9.699  -4.465  15.404  0.00  0.00    +0.000 A 
ATOM     16  C   UNL     1      -9.333  -5.708  15.926  0.00  0.00    +0.000 A 
ATOM     17  C   UNL     1      -9.413  -6.001  17.311  0.00  0.00    +0.000 A 
ATOM     18  C   UNL     1      -9.792  -7.358  17.574  0.00  0.00    +0.000 A 
ATOM     19  C   UNL     1      -9.423  -8.449  16.750  0.00  0.00    +0.000 A 
ATOM     20  C   UNL     1      -9.148  -9.824  17.040  0.00  0.00    +0.000 A 
ATOM     21  C   UNL     1     -10.959  -7.173  18.425  0.00  0.00    +0.000 C 
ATOM     22  O   UNL     1     -12.042  -7.748  18.478  0.00  0.00    +0.000 OA
ATOM     23  N   UNL     1     -10.761  -5.922  18.993  0.00  0.00    +0.000 N 
ATOM     24  C   UNL     1      -9.795  -5.159  18.405  0.00  0.00    +0.000 C 
ATOM     25  O   UNL     1      -9.438  -4.049  18.805  0.00  0.00    +0.000 OA
ATOM     26  H   UNL     1      -8.925 -12.752  18.547  0.00  0.00    +0.000 HD
ATOM     27  H   UNL     1      -7.939 -12.788  16.017  0.00  0.00    +0.000 HD
ATOM     28  H   UNL     1      -8.313 -10.937  13.889  0.00  0.00    +0.000 HD
ATOM     29  H   UNL     1      -8.923  -8.649  13.311  0.00  0.00    +0.000 HD
ATOM     30  H   UNL     1      -9.733  -6.549  12.950  0.00  0.00    +0.000 HD
ATOM     31  H   UNL     1     -10.680  -4.102  12.133  0.00  0.00    +0.000 HD
ATOM     32  H   UNL     1     -10.734  -1.219  15.336  0.00  0.00    +0.000 HD
ATOM     33  H   UNL     1      -9.795  -2.861  16.890  0.00  0.00    +0.000 HD
ATOM     34  H   UNL     1     -11.511  -5.426  19.452  0.00  0.00    +0.000 HD
ENDROOT
BRANCH   1  35
ATOM     35  C   UNL     1      -8.483 -10.229  19.474  0.00  0.00    +0.000 C 
ATOM     36  H   UNL     1      -9.185 -10.508  20.255  0.00  0.00    +0.000 HD
ATOM     37  H   UNL     1      -8.267  -9.159  19.448  0.00  0.00    +0.000 HD
ATOM     38  H   UNL     1      -7.528 -10.751  19.640  0.00  0.00    +0.000 HD
ENDBRANCH   1  35
BRANCH  12  39
ATOM     39  O   UNL     1     -11.314  -1.604  12.859  0.00  0.00    +0.000 OA
ATOM     40  H   UNL     1     -10.985  -0.738  13.151  0.00  0.00    +0.000 HD
ENDBRANCH  12  39
TORSDOF 2
ENDMDL
