MODEL 1
REMARK VINA RESULT:   -10.056      0.000      0.000
REMARK INTER + INTRA:         -11.211
REMARK INTER:                 -10.938
REMARK INTRA:                  -0.274
REMARK UNBOUND:                -0.274
REMARK  Name = 
REMARK  2 active torsions:
REMARK  status: ('A' for Active; 'I' for Inactive)
REMARK    1  A    between atoms: O_1  and  C_2
REMARK    2  A    between atoms: C_6  and  C_7
REMARK                            x       y       z     vdW  Elec       q    Type
REMARK                         _______ _______ _______ _____ _____    ______ ____
ROOT
ATOM      1  C   UNL     1      -9.356  -8.278  16.994  0.00  0.00    +0.000 A 
ATOM      2  N   UNL     1      -8.449  -7.531  17.659  0.00  0.00    +0.000 NA
ATOM      3  C   UNL     1      -8.660  -6.202  17.862  0.00  0.00    +0.000 A 
ATOM      4  N   UNL     1      -7.739  -5.489  18.598  0.00  0.00    +0.000 N 
ATOM      5  C   UNL     1      -6.322  -5.859  18.603  0.00  0.00    +0.000 C 
ATOM      6  C   UNL     1      -5.808  -6.014  20.044  0.00  0.00    +0.000 C 
ATOM      7  O   UNL     1      -6.103  -4.856  20.846  0.00  0.00    +0.000 OA
ATOM      8  C   UNL     1      -7.521  -4.646  20.897  0.00  0.00    +0.000 C 
ATOM      9  C   UNL     1      -8.105  -4.395  19.500  0.00  0.00    +0.000 C 
ATOM     10  C   UNL     1      -9.826  -5.659  17.284  0.00  0.00    +0.000 A 
ATOM     11  S   UNL     1     -10.394  -4.024  17.188  0.00  0.00    +0.000 S 
ATOM     12  C   UNL     1     -11.820  -4.468  16.372  0.00  0.00    +0.000 A 
ATOM     13  C   UNL     1     -11.855  -5.815  16.109  0.00  0.00    +0.000 A 
ATOM     14  C   UNL     1     -10.709  -6.499  16.612  0.00  0.00    +0.000 A 
ATOM     15  N   UNL     1     -10.498  -7.824  16.468  0.00  0.00    +0.000 NA
ATOM     16  H   UNL     1      -5.769  -5.042  18.122  0.00  0.00    +0.000 HD
ATOM     17  H   UNL     1      -6.105  -6.769  18.034  0.00  0.00    +0.000 HD
ATOM     18  H   UNL     1      -4.720  -6.135  20.040  0.00  0.00    +0.000 HD
ATOM     19  H   UNL     1      -6.242  -6.898  20.524  0.00  0.00    +0.000 HD
ATOM     20  H   UNL     1      -7.712  -3.778  21.536  0.00  0.00    +0.000 HD
ATOM     21  H   UNL     1      -7.997  -5.516  21.366  0.00  0.00    +0.000 HD
ATOM     22  H   UNL     1      -7.701  -3.461  19.092  0.00  0.00    +0.000 HD
ATOM     23  H   UNL     1      -9.185  -4.286  19.626  0.00  0.00    +0.000 HD
ATOM     24  H   UNL     1     -12.553  -3.719  16.108  0.00  0.00    +0.000 HD
ATOM     25  H   UNL     1     -12.661  -6.302  15.576  0.00  0.00    +0.000 HD
ENDROOT
BRANCH   1  30
ATOM     26  C   UNL     1      -8.798 -11.968  17.750  0.00  0.00    +0.000 A 
ATOM     27  C   UNL     1      -8.591 -12.504  16.483  0.00  0.00    +0.000 A 
ATOM     28  C   UNL     1      -8.630 -11.660  15.378  0.00  0.00    +0.000 A 
ATOM     29  C   UNL     1      -8.877 -10.293  15.554  0.00  0.00    +0.000 A 
ATOM     30  C   UNL     1      -9.091  -9.729  16.831  0.00  0.00    +0.000 A 
ATOM     31  C   UNL     1      -9.045 -10.608  17.929  0.00  0.00    +0.000 A 
ATOM     32  H   UNL     1      -8.400 -13.562  16.338  0.00  0.00    +0.000 HD
ATOM     33  H   UNL     1      -8.473 -12.055  14.379  0.00  0.00    +0.000 HD
ATOM     34  H   UNL     1      -8.902  -9.659  14.668  0.00  0.00    +0.000 HD
ATOM     35  H   UNL     1      -9.203 -10.233  18.937  0.00  0.00    +0.000 HD
BRANCH  26  36
ATOM     36  O   UNL     1      -8.766 -12.763  18.860  0.00  0.00    +0.000 OA
ATOM     37  H   UNL     1      -9.666 -12.826  19.224  0.00  0.00    +0.000 HD
ENDBRANCH  26  36
ENDBRANCH   1  30
TORSDOF 2
ENDMDL
MODEL 2
REMARK VINA RESULT:    -9.830      0.950      1.381
REMARK INTER + INTRA:         -10.966
REMARK INTER:                 -10.691
REMARK INTRA:                  -0.275
REMARK UNBOUND:                -0.274
REMARK  Name = 
REMARK  2 active torsions:
REMARK  status: ('A' for Active; 'I' for Inactive)
REMARK    1  A    between atoms: O_1  and  C_2
REMARK    2  A    between atoms: C_6  and  C_7
REMARK                            x       y       z     vdW  Elec       q    Type
REMARK                         _______ _______ _______ _____ _____    ______ ____
ROOT
ATOM      1  C   UNL     1      -9.308  -8.360  17.377  0.00  0.00    +0.000 A 
ATOM      2  N   UNL     1      -8.387  -7.566  17.962  0.00  0.00    +0.000 NA
ATOM      3  C   UNL     1      -8.594  -6.226  18.070  0.00  0.00    +0.000 A 
ATOM      4  N   UNL     1      -7.656  -5.460  18.728  0.00  0.00    +0.000 N 
ATOM      5  C   UNL     1      -6.239  -5.831  18.726  0.00  0.00    +0.000 C 
ATOM      6  C   UNL     1      -5.690  -5.876  20.163  0.00  0.00    +0.000 C 
ATOM      7  O   UNL     1      -5.967  -4.662  20.881  0.00  0.00    +0.000 OA
ATOM      8  C   UNL     1      -7.384  -4.447  20.951  0.00  0.00    +0.000 C 
ATOM      9  C   UNL     1      -8.001  -4.301  19.553  0.00  0.00    +0.000 C 
ATOM     10  C   UNL     1      -9.774  -5.726  17.480  0.00  0.00    +0.000 A 
ATOM     11  S   UNL     1     -10.345  -4.103  17.275  0.00  0.00    +0.000 S 
ATOM     12  C   UNL     1     -11.790  -4.606  16.529  0.00  0.00    +0.000 A 
ATOM     13  C   UNL     1     -11.830  -5.969  16.370  0.00  0.00    +0.000 A 
ATOM     14  C   UNL     1     -10.672  -6.614  16.895  0.00  0.00    +0.000 A 
ATOM     15  N   UNL     1     -10.463  -7.946  16.846  0.00  0.00    +0.000 NA
ATOM     16  H   UNL     1      -5.698  -5.052  18.172  0.00  0.00    +0.000 HD
ATOM     17  H   UNL     1      -6.035  -6.781  18.222  0.00  0.00    +0.000 HD
ATOM     18  H   UNL     1      -4.603  -5.999  20.141  0.00  0.00    +0.000 HD
ATOM     19  H   UNL     1      -6.112  -6.722  20.718  0.00  0.00    +0.000 HD
ATOM     20  H   UNL     1      -7.560  -3.533  21.527  0.00  0.00    +0.000 HD
ATOM     21  H   UNL     1      -7.847  -5.279  21.496  0.00  0.00    +0.000 HD
ATOM     22  H   UNL     1      -7.608  -3.401  19.067  0.00  0.00    +0.000 HD
ATOM     23  H   UNL     1      -9.078  -4.182  19.696  0.00  0.00    +0.000 HD
ATOM     24  H   UNL     1     -12.530  -3.878  16.228  0.00  0.00    +0.000 HD
ATOM     25  H   UNL     1     -12.648  -6.493  15.894  0.00  0.00    +0.000 HD
ENDROOT
BRANCH   1  30
ATOM     26  C   UNL     1      -8.872 -11.915  16.081  0.00  0.00    +0.000 A 
ATOM     27  C   UNL     1      -8.532 -12.613  17.235  0.00  0.00    +0.000 A 
ATOM     28  C   UNL     1      -8.447 -11.924  18.441  0.00  0.00    +0.000 A 
ATOM     29  C   UNL     1      -8.702 -10.548  18.477  0.00  0.00    +0.000 A 
ATOM     30  C   UNL     1      -9.047  -9.820  17.317  0.00  0.00    +0.000 A 
ATOM     31  C   UNL     1      -9.125 -10.544  16.113  0.00  0.00    +0.000 A 
ATOM     32  H   UNL     1      -8.332 -13.679  17.216  0.00  0.00    +0.000 HD
ATOM     33  H   UNL     1      -8.183 -12.447  19.355  0.00  0.00    +0.000 HD
ATOM     34  H   UNL     1      -8.626 -10.039  19.437  0.00  0.00    +0.000 HD
ATOM     35  H   UNL     1      -9.385 -10.038  15.186  0.00  0.00    +0.000 HD
BRANCH  26  36
ATOM     36  O   UNL     1      -8.967 -12.553  14.878  0.00  0.00    +0.000 OA
ATOM     37  H   UNL     1      -9.721 -12.183  14.387  0.00  0.00    +0.000 HD
ENDBRANCH  26  36
ENDBRANCH   1  30
TORSDOF 2
ENDMDL
MODEL 3
REMARK VINA RESULT:    -9.308      2.383      4.115
REMARK INTER + INTRA:         -10.398
REMARK INTER:                 -10.113
REMARK INTRA:                  -0.285
REMARK UNBOUND:                -0.274
REMARK  Name = 
REMARK  2 active torsions:
REMARK  status: ('A' for Active; 'I' for Inactive)
REMARK    1  A    between atoms: O_1  and  C_2
REMARK    2  A    between atoms: C_6  and  C_7
REMARK                            x       y       z     vdW  Elec       q    Type
REMARK                         _______ _______ _______ _____ _____    ______ ____
ROOT
ATOM      1  C   UNL     1      -9.158  -7.512  17.642  0.00  0.00    +0.000 A 
ATOM      2  N   UNL     1      -9.912  -6.610  16.977  0.00  0.00    +0.000 NA
ATOM      3  C   UNL     1      -9.947  -5.309  17.375  0.00  0.00    +0.000 A 
ATOM      4  N   UNL     1     -10.681  -4.409  16.633  0.00  0.00    +0.000 N 
ATOM      5  C   UNL     1     -11.881  -4.827  15.905  0.00  0.00    +0.000 C 
ATOM      6  C   UNL     1     -11.799  -4.391  14.432  0.00  0.00    +0.000 C 
ATOM      7  O   UNL     1     -11.507  -2.989  14.304  0.00  0.00    +0.000 OA
ATOM      8  C   UNL     1     -10.250  -2.692  14.928  0.00  0.00    +0.000 C 
ATOM      9  C   UNL     1     -10.274  -3.018  16.428  0.00  0.00    +0.000 C 
ATOM     10  C   UNL     1      -9.218  -4.991  18.540  0.00  0.00    +0.000 A 
ATOM     11  S   UNL     1      -9.105  -3.518  19.446  0.00  0.00    +0.000 S 
ATOM     12  C   UNL     1      -8.003  -4.178  20.561  0.00  0.00    +0.000 A 
ATOM     13  C   UNL     1      -7.762  -5.506  20.310  0.00  0.00    +0.000 A 
ATOM     14  C   UNL     1      -8.467  -5.982  19.165  0.00  0.00    +0.000 A 
ATOM     15  N   UNL     1      -8.412  -7.254  18.721  0.00  0.00    +0.000 NA
ATOM     16  H   UNL     1     -12.738  -4.322  16.370  0.00  0.00    +0.000 HD
ATOM     17  H   UNL     1     -12.075  -5.903  15.962  0.00  0.00    +0.000 HD
ATOM     18  H   UNL     1     -12.760  -4.567  13.939  0.00  0.00    +0.000 HD
ATOM     19  H   UNL     1     -11.035  -4.964  13.894  0.00  0.00    +0.000 HD
ATOM     20  H   UNL     1     -10.045  -1.627  14.787  0.00  0.00    +0.000 HD
ATOM     21  H   UNL     1      -9.455  -3.254  14.421  0.00  0.00    +0.000 HD
ATOM     22  H   UNL     1     -10.996  -2.368  16.936  0.00  0.00    +0.000 HD
ATOM     23  H   UNL     1      -9.274  -2.802  16.812  0.00  0.00    +0.000 HD
ATOM     24  H   UNL     1      -7.600  -3.568  21.357  0.00  0.00    +0.000 HD
ATOM     25  H   UNL     1      -7.111  -6.123  20.916  0.00  0.00    +0.000 HD
ENDROOT
BRANCH   1  30
ATOM     26  C   UNL     1      -8.983 -11.315  17.525  0.00  0.00    +0.000 A 
ATOM     27  C   UNL     1      -9.085 -11.576  16.162  0.00  0.00    +0.000 A 
ATOM     28  C   UNL     1      -9.210 -10.509  15.277  0.00  0.00    +0.000 A 
ATOM     29  C   UNL     1      -9.231  -9.197  15.766  0.00  0.00    +0.000 A 
ATOM     30  C   UNL     1      -9.129  -8.911  17.145  0.00  0.00    +0.000 A 
ATOM     31  C   UNL     1      -9.004 -10.010  18.015  0.00  0.00    +0.000 A 
ATOM     32  H   UNL     1      -9.071 -12.589  15.775  0.00  0.00    +0.000 HD
ATOM     33  H   UNL     1      -9.293 -10.688  14.210  0.00  0.00    +0.000 HD
ATOM     34  H   UNL     1      -9.330  -8.385  15.047  0.00  0.00    +0.000 HD
ATOM     35  H   UNL     1      -8.923  -9.852  19.088  0.00  0.00    +0.000 HD
BRANCH  26  36
ATOM     36  O   UNL     1      -8.858 -12.333  18.426  0.00  0.00    +0.000 OA
ATOM     37  H   UNL     1      -8.136 -12.118  19.041  0.00  0.00    +0.000 HD
ENDBRANCH  26  36
ENDBRANCH   1  30
TORSDOF 2
ENDMDL
MODEL 4
REMARK VINA RESULT:    -8.942      2.788      4.543
REMARK INTER + INTRA:         -10.000
REMARK INTER:                  -9.723
REMARK INTRA:                  -0.277
REMARK UNBOUND:                -0.274
REMARK  Name = 
REMARK  2 active torsions:
REMARK  status: ('A' for Active; 'I' for Inactive)
REMARK    1  A    between atoms: O_1  and  C_2
REMARK    2  A    between atoms: C_6  and  C_7
REMARK                            x       y       z     vdW  Elec       q    Type
REMARK                         _______ _______ _______ _____ _____    ______ ____
ROOT
ATOM      1  C   UNL     1      -8.840  -6.924  17.844  0.00  0.00    +0.000 A 
ATOM      2  N   UNL     1      -9.714  -5.908  17.683  0.00  0.00    +0.000 NA
ATOM      3  C   UNL     1      -9.554  -4.741  18.364  0.00  0.00    +0.000 A 
ATOM      4  N   UNL     1     -10.434  -3.707  18.126  0.00  0.00    +0.000 N 
ATOM      5  C   UNL     1     -11.822  -3.968  17.739  0.00  0.00    +0.000 C 
ATOM      6  C   UNL     1     -12.182  -3.191  16.461  0.00  0.00    +0.000 C 
ATOM      7  O   UNL     1     -11.870  -1.792  16.578  0.00  0.00    +0.000 OA
ATOM      8  C   UNL     1     -10.466  -1.623  16.823  0.00  0.00    +0.000 C 
ATOM      9  C   UNL     1     -10.037  -2.298  18.133  0.00  0.00    +0.000 C 
ATOM     10  C   UNL     1      -8.480  -4.693  19.279  0.00  0.00    +0.000 A 
ATOM     11  S   UNL     1      -8.011  -3.476  20.420  0.00  0.00    +0.000 S 
ATOM     12  C   UNL     1      -6.652  -4.356  20.942  0.00  0.00    +0.000 A 
ATOM     13  C   UNL     1      -6.573  -5.580  20.324  0.00  0.00    +0.000 A 
ATOM     14  C   UNL     1      -7.626  -5.786  19.384  0.00  0.00    +0.000 A 
ATOM     15  N   UNL     1      -7.781  -6.913  18.660  0.00  0.00    +0.000 NA
ATOM     16  H   UNL     1     -12.462  -3.609  18.556  0.00  0.00    +0.000 HD
ATOM     17  H   UNL     1     -12.046  -5.030  17.601  0.00  0.00    +0.000 HD
ATOM     18  H   UNL     1     -13.257  -3.267  16.270  0.00  0.00    +0.000 HD
ATOM     19  H   UNL     1     -11.657  -3.600  15.591  0.00  0.00    +0.000 HD
ATOM     20  H   UNL     1     -10.259  -0.550  16.877  0.00  0.00    +0.000 HD
ATOM     21  H   UNL     1      -9.902  -2.028  15.974  0.00  0.00    +0.000 HD
ATOM     22  H   UNL     1     -10.528  -1.805  18.981  0.00  0.00    +0.000 HD
ATOM     23  H   UNL     1      -8.957  -2.156  18.221  0.00  0.00    +0.000 HD
ATOM     24  H   UNL     1      -5.988  -3.944  21.688  0.00  0.00    +0.000 HD
ATOM     25  H   UNL     1      -5.799  -6.308  20.530  0.00  0.00    +0.000 HD
ENDROOT
BRANCH   1  30
ATOM     26  C   UNL     1      -9.234  -9.333  14.921  0.00  0.00    +0.000 A 
ATOM     27  C   UNL     1      -9.427 -10.551  15.564  0.00  0.00    +0.000 A 
ATOM     28  C   UNL     1      -9.431 -10.589  16.954  0.00  0.00    +0.000 A 
ATOM     29  C   UNL     1      -9.242  -9.409  17.684  0.00  0.00    +0.000 A 
ATOM     30  C   UNL     1      -9.043  -8.162  17.052  0.00  0.00    +0.000 A 
ATOM     31  C   UNL     1      -9.044  -8.156  15.645  0.00  0.00    +0.000 A 
ATOM     32  H   UNL     1      -9.573 -11.471  15.006  0.00  0.00    +0.000 HD
ATOM     33  H   UNL     1      -9.580 -11.529  17.478  0.00  0.00    +0.000 HD
ATOM     34  H   UNL     1      -9.251  -9.473  18.771  0.00  0.00    +0.000 HD
ATOM     35  H   UNL     1      -8.895  -7.226  15.101  0.00  0.00    +0.000 HD
BRANCH  26  36
ATOM     36  O   UNL     1      -9.224  -9.253  13.558  0.00  0.00    +0.000 OA
ATOM     37  H   UNL     1     -10.139  -9.327  13.235  0.00  0.00    +0.000 HD
ENDBRANCH  26  36
ENDBRANCH   1  30
TORSDOF 2
ENDMDL
MODEL 5
REMARK VINA RESULT:    -8.557      2.452      4.293
REMARK INTER + INTRA:          -9.581
REMARK INTER:                  -9.304
REMARK INTRA:                  -0.277
REMARK UNBOUND:                -0.274
REMARK  Name = 
REMARK  2 active torsions:
REMARK  status: ('A' for Active; 'I' for Inactive)
REMARK    1  A    between atoms: O_1  and  C_2
REMARK    2  A    between atoms: C_6  and  C_7
REMARK                            x       y       z     vdW  Elec       q    Type
REMARK                         _______ _______ _______ _____ _____    ______ ____
ROOT
ATOM      1  C   UNL     1      -8.802  -6.856  18.354  0.00  0.00    +0.000 A 
ATOM      2  N   UNL     1      -9.671  -5.879  18.016  0.00  0.00    +0.000 NA
ATOM      3  C   UNL     1      -9.556  -4.633  18.549  0.00  0.00    +0.000 A 
ATOM      4  N   UNL     1     -10.426  -3.649  18.131  0.00  0.00    +0.000 N 
ATOM      5  C   UNL     1     -11.788  -3.975  17.703  0.00  0.00    +0.000 C 
ATOM      6  C   UNL     1     -12.079  -3.372  16.318  0.00  0.00    +0.000 C 
ATOM      7  O   UNL     1     -11.781  -1.965  16.272  0.00  0.00    +0.000 OA
ATOM      8  C   UNL     1     -10.395  -1.749  16.572  0.00  0.00    +0.000 C 
ATOM      9  C   UNL     1     -10.038  -2.246  17.980  0.00  0.00    +0.000 C 
ATOM     10  C   UNL     1      -8.537  -4.455  19.509  0.00  0.00    +0.000 A 
ATOM     11  S   UNL     1      -8.140  -3.096  20.509  0.00  0.00    +0.000 S 
ATOM     12  C   UNL     1      -6.808  -3.886  21.215  0.00  0.00    +0.000 A 
ATOM     13  C   UNL     1      -6.688  -5.177  20.764  0.00  0.00    +0.000 A 
ATOM     14  C   UNL     1      -7.684  -5.515  19.801  0.00  0.00    +0.000 A 
ATOM     15  N   UNL     1      -7.791  -6.727  19.220  0.00  0.00    +0.000 NA
ATOM     16  H   UNL     1     -12.476  -3.523  18.431  0.00  0.00    +0.000 HD
ATOM     17  H   UNL     1     -11.998  -5.049  17.690  0.00  0.00    +0.000 HD
ATOM     18  H   UNL     1     -13.141  -3.485  16.079  0.00  0.00    +0.000 HD
ATOM     19  H   UNL     1     -11.502  -3.882  15.539  0.00  0.00    +0.000 HD
ATOM     20  H   UNL     1     -10.197  -0.675  16.500  0.00  0.00    +0.000 HD
ATOM     21  H   UNL     1      -9.781  -2.252  15.815  0.00  0.00    +0.000 HD
ATOM     22  H   UNL     1     -10.579  -1.655  18.729  0.00  0.00    +0.000 HD
ATOM     23  H   UNL     1      -8.966  -2.081  18.109  0.00  0.00    +0.000 HD
ATOM     24  H   UNL     1      -6.191  -3.373  21.939  0.00  0.00    +0.000 HD
ATOM     25  H   UNL     1      -5.923  -5.863  21.106  0.00  0.00    +0.000 HD
ENDROOT
BRANCH   1  30
ATOM     26  C   UNL     1      -9.005 -10.622  17.832  0.00  0.00    +0.000 A 
ATOM     27  C   UNL     1      -9.254 -10.720  16.467  0.00  0.00    +0.000 A 
ATOM     28  C   UNL     1      -9.356  -9.556  15.713  0.00  0.00    +0.000 A 
ATOM     29  C   UNL     1      -9.206  -8.309  16.333  0.00  0.00    +0.000 A 
ATOM     30  C   UNL     1      -8.953  -8.187  17.717  0.00  0.00    +0.000 A 
ATOM     31  C   UNL     1      -8.856  -9.383  18.452  0.00  0.00    +0.000 A 
ATOM     32  H   UNL     1      -9.373 -11.682  15.979  0.00  0.00    +0.000 HD
ATOM     33  H   UNL     1      -9.551  -9.607  14.646  0.00  0.00    +0.000 HD
ATOM     34  H   UNL     1      -9.291  -7.416  15.714  0.00  0.00    +0.000 HD
ATOM     35  H   UNL     1      -8.663  -9.353  19.522  0.00  0.00    +0.000 HD
BRANCH  26  36
ATOM     36  O   UNL     1      -8.897 -11.741  18.607  0.00  0.00    +0.000 OA
ATOM     37  H   UNL     1      -9.453 -11.627  19.397  0.00  0.00    +0.000 HD
ENDBRANCH  26  36
ENDBRANCH   1  30
TORSDOF 2
ENDMDL
MODEL 6
REMARK VINA RESULT:    -8.413      1.636      6.103
REMARK INTER + INTRA:          -9.424
REMARK INTER:                  -9.148
REMARK INTRA:                  -0.276
REMARK UNBOUND:                -0.274
REMARK  Name = 
REMARK  2 active torsions:
REMARK  status: ('A' for Active; 'I' for Inactive)
REMARK    1  A    between atoms: O_1  and  C_2
REMARK    2  A    between atoms: C_6  and  C_7
REMARK                            x       y       z     vdW  Elec       q    Type
REMARK                         _______ _______ _______ _____ _____    ______ ____
ROOT
ATOM      1  C   UNL     1      -7.871  -5.852  19.046  0.00  0.00    +0.000 A 
ATOM      2  N   UNL     1      -8.084  -7.184  19.104  0.00  0.00    +0.000 NA
ATOM      3  C   UNL     1      -9.118  -7.751  18.425  0.00  0.00    +0.000 A 
ATOM      4  N   UNL     1      -9.264  -9.121  18.462  0.00  0.00    +0.000 N 
ATOM      5  C   UNL     1      -8.840  -9.897  19.630  0.00  0.00    +0.000 C 
ATOM      6  C   UNL     1      -7.911 -11.048  19.206  0.00  0.00    +0.000 C 
ATOM      7  O   UNL     1      -8.491 -11.848  18.162  0.00  0.00    +0.000 OA
ATOM      8  C   UNL     1      -8.750 -11.035  17.009  0.00  0.00    +0.000 C 
ATOM      9  C   UNL     1      -9.743  -9.908  17.325  0.00  0.00    +0.000 C 
ATOM     10  C   UNL     1      -9.972  -6.867  17.733  0.00  0.00    +0.000 A 
ATOM     11  S   UNL     1     -11.449  -7.151  16.872  0.00  0.00    +0.000 S 
ATOM     12  C   UNL     1     -11.612  -5.517  16.425  0.00  0.00    +0.000 A 
ATOM     13  C   UNL     1     -10.613  -4.743  16.961  0.00  0.00    +0.000 A 
ATOM     14  C   UNL     1      -9.681  -5.506  17.725  0.00  0.00    +0.000 A 
ATOM     15  N   UNL     1      -8.620  -4.977  18.368  0.00  0.00    +0.000 NA
ATOM     16  H   UNL     1      -9.744 -10.328  20.082  0.00  0.00    +0.000 HD
ATOM     17  H   UNL     1      -8.354  -9.295  20.403  0.00  0.00    +0.000 HD
ATOM     18  H   UNL     1      -7.728 -11.710  20.058  0.00  0.00    +0.000 HD
ATOM     19  H   UNL     1      -6.943 -10.665  18.864  0.00  0.00    +0.000 HD
ATOM     20  H   UNL     1      -9.162 -11.680  16.226  0.00  0.00    +0.000 HD
ATOM     21  H   UNL     1      -7.802 -10.626  16.638  0.00  0.00    +0.000 HD
ATOM     22  H   UNL     1     -10.718 -10.337  17.586  0.00  0.00    +0.000 HD
ATOM     23  H   UNL     1      -9.851  -9.319  16.411  0.00  0.00    +0.000 HD
ATOM     24  H   UNL     1     -12.440  -5.200  15.808  0.00  0.00    +0.000 HD
ATOM     25  H   UNL     1     -10.543  -3.672  16.822  0.00  0.00    +0.000 HD
ENDROOT
BRANCH   1  30
ATOM     26  C   UNL     1      -5.725  -3.674  21.315  0.00  0.00    +0.000 A 
ATOM     27  C   UNL     1      -4.465  -4.245  21.171  0.00  0.00    +0.000 A 
ATOM     28  C   UNL     1      -4.312  -5.343  20.330  0.00  0.00    +0.000 A 
ATOM     29  C   UNL     1      -5.421  -5.855  19.645  0.00  0.00    +0.000 A 
ATOM     30  C   UNL     1      -6.709  -5.291  19.778  0.00  0.00    +0.000 A 
ATOM     31  C   UNL     1      -6.831  -4.182  20.636  0.00  0.00    +0.000 A 
ATOM     32  H   UNL     1      -3.601  -3.856  21.699  0.00  0.00    +0.000 HD
ATOM     33  H   UNL     1      -3.339  -5.806  20.203  0.00  0.00    +0.000 HD
ATOM     34  H   UNL     1      -5.268  -6.715  18.995  0.00  0.00    +0.000 HD
ATOM     35  H   UNL     1      -7.798  -3.705  20.780  0.00  0.00    +0.000 HD
BRANCH  26  36
ATOM     36  O   UNL     1      -5.916  -2.595  22.130  0.00  0.00    +0.000 OA
ATOM     37  H   UNL     1      -6.484  -1.953  21.670  0.00  0.00    +0.000 HD
ENDBRANCH  26  36
ENDBRANCH   1  30
TORSDOF 2
ENDMDL
MODEL 7
REMARK VINA RESULT:    -8.318      2.284      3.068
REMARK INTER + INTRA:          -9.321
REMARK INTER:                  -9.022
REMARK INTRA:                  -0.299
REMARK UNBOUND:                -0.274
REMARK  Name = 
REMARK  2 active torsions:
REMARK  status: ('A' for Active; 'I' for Inactive)
REMARK    1  A    between atoms: O_1  and  C_2
REMARK    2  A    between atoms: C_6  and  C_7
REMARK                            x       y       z     vdW  Elec       q    Type
REMARK                         _______ _______ _______ _____ _____    ______ ____
ROOT
ATOM      1  C   UNL     1      -9.381  -5.980  18.548  0.00  0.00    +0.000 A 
ATOM      2  N   UNL     1      -8.826  -5.213  19.511  0.00  0.00    +0.000 NA
ATOM      3  C   UNL     1      -9.009  -3.864  19.515  0.00  0.00    +0.000 A 
ATOM      4  N   UNL     1      -8.476  -3.126  20.549  0.00  0.00    +0.000 N 
ATOM      5  C   UNL     1      -7.249  -3.547  21.228  0.00  0.00    +0.000 C 
ATOM      6  C   UNL     1      -7.462  -3.597  22.750  0.00  0.00    +0.000 C 
ATOM      7  O   UNL     1      -8.005  -2.365  23.256  0.00  0.00    +0.000 OA
ATOM      8  C   UNL     1      -9.271  -2.098  22.636  0.00  0.00    +0.000 C 
ATOM      9  C   UNL     1      -9.133  -1.946  21.115  0.00  0.00    +0.000 C 
ATOM     10  C   UNL     1      -9.740  -3.329  18.433  0.00  0.00    +0.000 A 
ATOM     11  S   UNL     1     -10.081  -1.689  17.991  0.00  0.00    +0.000 S 
ATOM     12  C   UNL     1     -11.006  -2.147  16.638  0.00  0.00    +0.000 A 
ATOM     13  C   UNL     1     -11.014  -3.510  16.468  0.00  0.00    +0.000 A 
ATOM     14  C   UNL     1     -10.278  -4.191  17.482  0.00  0.00    +0.000 A 
ATOM     15  N   UNL     1     -10.121  -5.530  17.530  0.00  0.00    +0.000 NA
ATOM     16  H   UNL     1      -6.479  -2.795  21.008  0.00  0.00    +0.000 HD
ATOM     17  H   UNL     1      -6.863  -4.510  20.877  0.00  0.00    +0.000 HD
ATOM     18  H   UNL     1      -6.504  -3.758  23.255  0.00  0.00    +0.000 HD
ATOM     19  H   UNL     1      -8.130  -4.420  23.027  0.00  0.00    +0.000 HD
ATOM     20  H   UNL     1      -9.669  -1.172  23.063  0.00  0.00    +0.000 HD
ATOM     21  H   UNL     1      -9.970  -2.906  22.884  0.00  0.00    +0.000 HD
ATOM     22  H   UNL     1      -8.521  -1.066  20.885  0.00  0.00    +0.000 HD
ATOM     23  H   UNL     1     -10.141  -1.787  20.722  0.00  0.00    +0.000 HD
ATOM     24  H   UNL     1     -11.481  -1.397  16.022  0.00  0.00    +0.000 HD
ATOM     25  H   UNL     1     -11.521  -4.010  15.654  0.00  0.00    +0.000 HD
ENDROOT
BRANCH   1  30
ATOM     26  C   UNL     1      -8.798  -9.505  19.864  0.00  0.00    +0.000 A 
ATOM     27  C   UNL     1      -8.798 -10.262  18.697  0.00  0.00    +0.000 A 
ATOM     28  C   UNL     1      -8.987  -9.623  17.476  0.00  0.00    +0.000 A 
ATOM     29  C   UNL     1      -9.173  -8.235  17.438  0.00  0.00    +0.000 A 
ATOM     30  C   UNL     1      -9.177  -7.448  18.611  0.00  0.00    +0.000 A 
ATOM     31  C   UNL     1      -8.984  -8.124  19.830  0.00  0.00    +0.000 A 
ATOM     32  H   UNL     1      -8.656 -11.338  18.717  0.00  0.00    +0.000 HD
ATOM     33  H   UNL     1      -8.992 -10.192  16.552  0.00  0.00    +0.000 HD
ATOM     34  H   UNL     1      -9.318  -7.765  16.466  0.00  0.00    +0.000 HD
ATOM     35  H   UNL     1      -8.979  -7.572  20.767  0.00  0.00    +0.000 HD
BRANCH  26  36
ATOM     36  O   UNL     1      -8.615 -10.095  21.081  0.00  0.00    +0.000 OA
ATOM     37  H   UNL     1      -9.459 -10.076  21.567  0.00  0.00    +0.000 HD
ENDBRANCH  26  36
ENDBRANCH   1  30
TORSDOF 2
ENDMDL
MODEL 8
REMARK VINA RESULT:    -8.024      3.027      4.745
REMARK INTER + INTRA:          -9.002
REMARK INTER:                  -8.704
REMARK INTRA:                  -0.297
REMARK UNBOUND:                -0.274
REMARK  Name = 
REMARK  2 active torsions:
REMARK  status: ('A' for Active; 'I' for Inactive)
REMARK    1  A    between atoms: O_1  and  C_2
REMARK    2  A    between atoms: C_6  and  C_7
REMARK                            x       y       z     vdW  Elec       q    Type
REMARK                         _______ _______ _______ _____ _____    ______ ____
ROOT
ATOM      1  C   UNL     1      -9.437  -6.687  17.172  0.00  0.00    +0.000 A 
ATOM      2  N   UNL     1     -10.092  -5.874  16.317  0.00  0.00    +0.000 NA
ATOM      3  C   UNL     1     -10.254  -4.553  16.602  0.00  0.00    +0.000 A 
ATOM      4  N   UNL     1     -10.875  -3.745  15.675  0.00  0.00    +0.000 N 
ATOM      5  C   UNL     1     -11.902  -4.275  14.775  0.00  0.00    +0.000 C 
ATOM      6  C   UNL     1     -11.568  -3.933  13.313  0.00  0.00    +0.000 C 
ATOM      7  O   UNL     1     -11.315  -2.529  13.135  0.00  0.00    +0.000 OA
ATOM      8  C   UNL     1     -10.208  -2.124  13.952  0.00  0.00    +0.000 C 
ATOM      9  C   UNL     1     -10.495  -2.350  15.443  0.00  0.00    +0.000 C 
ATOM     10  C   UNL     1      -9.765  -4.119  17.853  0.00  0.00    +0.000 A 
ATOM     11  S   UNL     1      -9.882  -2.585  18.651  0.00  0.00    +0.000 S 
ATOM     12  C   UNL     1      -8.978  -3.109  19.994  0.00  0.00    +0.000 A 
ATOM     13  C   UNL     1      -8.640  -4.436  19.890  0.00  0.00    +0.000 A 
ATOM     14  C   UNL     1      -9.102  -5.024  18.676  0.00  0.00    +0.000 A 
ATOM     15  N   UNL     1      -8.914  -6.318  18.346  0.00  0.00    +0.000 NA
ATOM     16  H   UNL     1     -12.850  -3.788  15.038  0.00  0.00    +0.000 HD
ATOM     17  H   UNL     1     -12.058  -5.353  14.876  0.00  0.00    +0.000 HD
ATOM     18  H   UNL     1     -12.413  -4.194  12.668  0.00  0.00    +0.000 HD
ATOM     19  H   UNL     1     -10.695  -4.498  12.967  0.00  0.00    +0.000 HD
ATOM     20  H   UNL     1     -10.024  -1.060  13.771  0.00  0.00    +0.000 HD
ATOM     21  H   UNL     1      -9.311  -2.674  13.641  0.00  0.00    +0.000 HD
ATOM     22  H   UNL     1     -11.324  -1.708  15.762  0.00  0.00    +0.000 HD
ATOM     23  H   UNL     1      -9.592  -2.056  15.985  0.00  0.00    +0.000 HD
ATOM     24  H   UNL     1      -8.754  -2.427  20.801  0.00  0.00    +0.000 HD
ATOM     25  H   UNL     1      -8.087  -4.975  20.648  0.00  0.00    +0.000 HD
ENDROOT
BRANCH   1  30
ATOM     26  C   UNL     1      -8.954  -9.862  15.125  0.00  0.00    +0.000 A 
ATOM     27  C   UNL     1      -8.913 -10.846  16.107  0.00  0.00    +0.000 A 
ATOM     28  C   UNL     1      -9.045 -10.476  17.442  0.00  0.00    +0.000 A 
ATOM     29  C   UNL     1      -9.216  -9.126  17.776  0.00  0.00    +0.000 A 
ATOM     30  C   UNL     1      -9.259  -8.112  16.795  0.00  0.00    +0.000 A 
ATOM     31  C   UNL     1      -9.123  -8.518  15.455  0.00  0.00    +0.000 A 
ATOM     32  H   UNL     1      -8.780 -11.893  15.857  0.00  0.00    +0.000 HD
ATOM     33  H   UNL     1      -9.016 -11.226  18.226  0.00  0.00    +0.000 HD
ATOM     34  H   UNL     1      -9.316  -8.870  18.830  0.00  0.00    +0.000 HD
ATOM     35  H   UNL     1      -9.147  -7.782  14.654  0.00  0.00    +0.000 HD
BRANCH  26  36
ATOM     36  O   UNL     1      -8.829 -10.185  13.804  0.00  0.00    +0.000 OA
ATOM     37  H   UNL     1      -8.616  -9.377  13.305  0.00  0.00    +0.000 HD
ENDBRANCH  26  36
ENDBRANCH   1  30
TORSDOF 2
ENDMDL
