REMARK  Name = 
REMARK  6 active torsions:
REMARK  status: ('A' for Active; 'I' for Inactive)
REMARK    1  A    between atoms: C_1  and  N_2
REMARK    2  A    between atoms: N_2  and  C_3
REMARK    3  A    between atoms: C_7  and  C_8
REMARK    4  A    between atoms: C_9  and  O_10
REMARK    5  A    between atoms: O_10  and  C_11
REMARK    6  A    between atoms: C_35  and  O_36
REMARK                            x       y       z     vdW  Elec       q    Type
REMARK                         _______ _______ _______ _____ _____    ______ ____
ROOT
ATOM      1  C   UNL     1       2.826  -0.852  -0.034  0.00  0.00    +0.000 C 
ATOM      2  C   UNL     1       2.466  -1.769  -1.208  0.00  0.00    +0.000 C 
ATOM      3  C   UNL     1       1.270  -1.323  -2.026  0.00  0.00    +0.000 C 
ATOM      4  O   UNL     1       1.480   0.013  -2.448  0.00  0.00    +0.000 OA
ATOM      5  C   UNL     1       1.505   1.019  -1.421  0.00  0.00    +0.000 C 
ATOM      6  C   UNL     1       2.175   0.589  -0.040  0.00  0.00    +0.000 C 
ATOM      7  N   UNL     1       0.128   1.436  -1.298  0.00  0.00    +0.000 N 
ATOM      8  C   UNL     1      -0.538   2.681  -1.212  0.00  0.00    +0.000 A 
ATOM      9  C   UNL     1      -0.113   4.020  -1.324  0.00  0.00    +0.000 A 
ATOM     10  C   UNL     1      -1.091   5.016  -1.468  0.00  0.00    +0.000 A 
ATOM     11  C   UNL     1      -2.439   4.695  -1.575  0.00  0.00    +0.000 A 
ATOM     12  C   UNL     1      -2.869   3.428  -1.209  0.00  0.00    +0.000 A 
ATOM     13  C   UNL     1      -1.916   2.476  -0.825  0.00  0.00    +0.000 A 
ATOM     14  C   UNL     1      -2.015   1.182  -0.304  0.00  0.00    +0.000 A 
ATOM     15  C   UNL     1      -2.599   0.778   0.919  0.00  0.00    +0.000 A 
ATOM     16  C   UNL     1      -2.558  -0.616   1.144  0.00  0.00    +0.000 A 
ATOM     17  C   UNL     1      -1.705  -1.273   0.241  0.00  0.00    +0.000 A 
ATOM     18  C   UNL     1      -1.321  -2.625   0.225  0.00  0.00    +0.000 A 
ATOM     19  C   UNL     1      -1.544  -3.750   1.038  0.00  0.00    +0.000 A 
ATOM     20  C   UNL     1      -1.229  -5.020   0.553  0.00  0.00    +0.000 A 
ATOM     21  C   UNL     1      -0.743  -5.184  -0.741  0.00  0.00    +0.000 A 
ATOM     22  C   UNL     1      -0.352  -4.085  -1.511  0.00  0.00    +0.000 A 
ATOM     23  C   UNL     1      -0.529  -2.805  -0.966  0.00  0.00    +0.000 A 
ATOM     24  N   UNL     1      -0.005  -1.558  -1.387  0.00  0.00    +0.000 N 
ATOM     25  C   UNL     1      -0.815  -0.739  -0.701  0.00  0.00    +0.000 A 
ATOM     26  C   UNL     1      -0.870   0.622  -0.838  0.00  0.00    +0.000 A 
ATOM     27  C   UNL     1      -3.143  -0.913   2.407  0.00  0.00    +0.000 C 
ATOM     28  O   UNL     1      -3.467  -1.946   2.976  0.00  0.00    +0.000 OA
ATOM     29  N   UNL     1      -3.291   0.350   2.991  0.00  0.00    +0.000 N 
ATOM     30  C   UNL     1      -2.721   1.436   2.226  0.00  0.00    +0.000 C 
ATOM     31  H   UNL     1       3.907  -0.664  -0.126  0.00  0.00    +0.000 HD
ATOM     32  H   UNL     1       2.317  -2.806  -0.894  0.00  0.00    +0.000 HD
ATOM     33  H   UNL     1       3.340  -1.795  -1.873  0.00  0.00    +0.000 HD
ATOM     34  H   UNL     1       1.244  -1.924  -2.943  0.00  0.00    +0.000 HD
ATOM     35  H   UNL     1       3.018   1.266   0.160  0.00  0.00    +0.000 HD
ATOM     36  H   UNL     1       0.932   4.297  -1.313  0.00  0.00    +0.000 HD
ATOM     37  H   UNL     1      -0.792   6.056  -1.559  0.00  0.00    +0.000 HD
ATOM     38  H   UNL     1      -3.163   5.432  -1.909  0.00  0.00    +0.000 HD
ATOM     39  H   UNL     1      -3.916   3.144  -1.298  0.00  0.00    +0.000 HD
ATOM     40  H   UNL     1      -1.965  -3.642   2.033  0.00  0.00    +0.000 HD
ATOM     41  H   UNL     1      -1.412  -5.887   1.181  0.00  0.00    +0.000 HD
ATOM     42  H   UNL     1      -0.633  -6.186  -1.146  0.00  0.00    +0.000 HD
ATOM     43  H   UNL     1       0.062  -4.224  -2.504  0.00  0.00    +0.000 HD
ATOM     44  H   UNL     1      -3.359   0.373   3.999  0.00  0.00    +0.000 HD
ATOM     45  H   UNL     1      -1.731   1.653   2.648  0.00  0.00    +0.000 HD
ENDROOT
BRANCH   5  46
ATOM     46  C   UNL     1       2.413   2.086  -2.062  0.00  0.00    +0.000 C 
ATOM     47  H   UNL     1       1.945   2.545  -2.939  0.00  0.00    +0.000 HD
ATOM     48  H   UNL     1       2.692   2.879  -1.361  0.00  0.00    +0.000 HD
ATOM     49  H   UNL     1       3.342   1.623  -2.421  0.00  0.00    +0.000 HD
ENDBRANCH   5  46
BRANCH   1  50
ATOM     50  N   UNL     1       2.645  -1.539   1.265  0.00  0.00    +0.000 NA
ATOM     51  H   UNL     1       2.754  -0.858   2.018  0.00  0.00    +0.000 HD
BRANCH  50  52
ATOM     52  C   UNL     1       3.493  -2.696   1.489  0.00  0.00    +0.000 C 
ATOM     53  H   UNL     1       3.208  -3.538   0.852  0.00  0.00    +0.000 HD
ATOM     54  H   UNL     1       3.369  -3.042   2.521  0.00  0.00    +0.000 HD
ATOM     55  H   UNL     1       4.552  -2.472   1.336  0.00  0.00    +0.000 HD
ENDBRANCH  50  52
ENDBRANCH   1  50
BRANCH  30  56
ATOM     56  O   UNL     1      -3.556   2.545   2.311  0.00  0.00    +0.000 OA
ATOM     57  H   UNL     1      -4.434   2.211   2.097  0.00  0.00    +0.000 HD
ENDBRANCH  30  56
BRANCH   6  58
ATOM     58  O   UNL     1       1.337   0.721   1.142  0.00  0.00    +0.000 OA
BRANCH  58  59
ATOM     59  C   UNL     1       1.156   2.032   1.656  0.00  0.00    +0.000 C 
ATOM     60  H   UNL     1       0.786   1.944   2.683  0.00  0.00    +0.000 HD
ATOM     61  H   UNL     1       2.083   2.609   1.664  0.00  0.00    +0.000 HD
ATOM     62  H   UNL     1       0.389   2.577   1.113  0.00  0.00    +0.000 HD
ENDBRANCH  58  59
ENDBRANCH   6  58
TORSDOF 6
