MODEL 1
REMARK VINA RESULT:    -8.877      0.000      0.000
REMARK INTER + INTRA:         -11.862
REMARK INTER:                 -11.472
REMARK INTRA:                  -0.390
REMARK UNBOUND:                -0.390
REMARK  Name = 
REMARK  7 active torsions:
REMARK  status: ('A' for Active; 'I' for Inactive)
REMARK    1  A    between atoms: C_2  and  C_3
REMARK    2  A    between atoms: C_6  and  C_7
REMARK    3  A    between atoms: C_7  and  N_8
REMARK    4  A    between atoms: C_11  and  O_12
REMARK    5  A    between atoms: C_13  and  O_14
REMARK    6  A    between atoms: C_20  and  O_21
REMARK    7  A    between atoms: C_22  and  O_23
REMARK                            x       y       z     vdW  Elec       q    Type
REMARK                         _______ _______ _______ _____ _____    ______ ____
ROOT
ATOM      1  N   UNL     1      -8.816  -6.041  17.606  0.00  0.00    +0.000 N 
ATOM      2  C   UNL     1      -7.760  -5.738  18.460  0.00  0.00    +0.000 A 
ATOM      3  C   UNL     1      -6.462  -6.278  18.569  0.00  0.00    +0.000 A 
ATOM      4  C   UNL     1      -5.617  -5.754  19.546  0.00  0.00    +0.000 A 
ATOM      5  C   UNL     1      -6.029  -4.718  20.371  0.00  0.00    +0.000 A 
ATOM      6  C   UNL     1      -7.299  -4.169  20.255  0.00  0.00    +0.000 A 
ATOM      7  C   UNL     1      -8.185  -4.690  19.285  0.00  0.00    +0.000 A 
ATOM      8  C   UNL     1      -9.517  -4.349  18.898  0.00  0.00    +0.000 A 
ATOM      9  C   UNL     1     -10.424  -3.353  19.338  0.00  0.00    +0.000 A 
ATOM     10  C   UNL     1     -11.688  -3.235  18.749  0.00  0.00    +0.000 A 
ATOM     11  C   UNL     1     -12.047  -4.110  17.739  0.00  0.00    +0.000 A 
ATOM     12  C   UNL     1     -11.171  -5.099  17.284  0.00  0.00    +0.000 A 
ATOM     13  C   UNL     1      -9.897  -5.211  17.864  0.00  0.00    +0.000 A 
ATOM     14  H   UNL     1      -6.124  -7.066  17.912  0.00  0.00    +0.000 HD
ATOM     15  H   UNL     1      -7.596  -3.350  20.900  0.00  0.00    +0.000 HD
ATOM     16  H   UNL     1     -10.129  -2.665  20.127  0.00  0.00    +0.000 HD
ATOM     17  H   UNL     1     -12.360  -2.455  19.090  0.00  0.00    +0.000 HD
ENDROOT
BRANCH   1  18
ATOM     18  C   UNL     1      -8.737  -6.984  16.488  0.00  0.00    +0.000 C 
ATOM     19  H   UNL     1      -9.523  -6.748  15.765  0.00  0.00    +0.000 HD
ATOM     20  H   UNL     1      -7.798  -6.788  15.959  0.00  0.00    +0.000 HD
BRANCH  18  24
ATOM     21  C   UNL     1      -8.880 -11.128  17.728  0.00  0.00    +0.000 A 
ATOM     22  C   UNL     1      -8.838 -10.115  18.685  0.00  0.00    +0.000 A 
ATOM     23  C   UNL     1      -8.802  -8.777  18.283  0.00  0.00    +0.000 A 
ATOM     24  C   UNL     1      -8.804  -8.430  16.925  0.00  0.00    +0.000 A 
ATOM     25  C   UNL     1      -8.877  -9.460  15.978  0.00  0.00    +0.000 A 
ATOM     26  C   UNL     1      -8.912 -10.799  16.372  0.00  0.00    +0.000 A 
ATOM     27  H   UNL     1      -8.828 -10.356  19.746  0.00  0.00    +0.000 HD
ATOM     28  H   UNL     1      -8.776  -8.009  19.053  0.00  0.00    +0.000 HD
ATOM     29  H   UNL     1      -8.916  -9.236  14.916  0.00  0.00    +0.000 HD
ATOM     30  H   UNL     1      -8.952 -11.579  15.615  0.00  0.00    +0.000 HD
BRANCH  21  32
ATOM     31  N   UNL     1      -8.924 -13.613  18.462  0.00  0.00    +0.000 NA
ATOM     32  C   UNL     1      -8.905 -12.502  18.131  0.00  0.00    +0.000 C 
ENDBRANCH  21  32
ENDBRANCH  18  24
ENDBRANCH   1  18
BRANCH   4  33
ATOM     33  O   UNL     1      -4.347  -6.237  19.729  0.00  0.00    +0.000 OA
ATOM     34  H   UNL     1      -4.301  -7.126  19.339  0.00  0.00    +0.000 HD
ENDBRANCH   4  33
BRANCH   5  35
ATOM     35  O   UNL     1      -5.172  -4.217  21.312  0.00  0.00    +0.000 OA
ATOM     36  H   UNL     1      -5.171  -3.252  21.151  0.00  0.00    +0.000 HD
ENDBRANCH   5  35
BRANCH  11  37
ATOM     37  O   UNL     1     -13.271  -4.038  17.124  0.00  0.00    +0.000 OA
ATOM     38  H   UNL     1     -13.733  -3.254  17.468  0.00  0.00    +0.000 HD
ENDBRANCH  11  37
BRANCH  12  39
ATOM     39  O   UNL     1     -11.595  -5.911  16.260  0.00  0.00    +0.000 OA
ATOM     40  H   UNL     1     -12.466  -5.539  16.010  0.00  0.00    +0.000 HD
ENDBRANCH  12  39
TORSDOF 7
ENDMDL
MODEL 2
REMARK VINA RESULT:    -8.424      2.912      6.851
REMARK INTER + INTRA:         -11.277
REMARK INTER:                 -10.693
REMARK INTRA:                  -0.584
REMARK UNBOUND:                -0.390
REMARK  Name = 
REMARK  7 active torsions:
REMARK  status: ('A' for Active; 'I' for Inactive)
REMARK    1  A    between atoms: C_2  and  C_3
REMARK    2  A    between atoms: C_6  and  C_7
REMARK    3  A    between atoms: C_7  and  N_8
REMARK    4  A    between atoms: C_11  and  O_12
REMARK    5  A    between atoms: C_13  and  O_14
REMARK    6  A    between atoms: C_20  and  O_21
REMARK    7  A    between atoms: C_22  and  O_23
REMARK                            x       y       z     vdW  Elec       q    Type
REMARK                         _______ _______ _______ _____ _____    ______ ____
ROOT
ATOM      1  N   UNL     1      -9.280  -8.484  17.838  0.00  0.00    +0.000 N 
ATOM      2  C   UNL     1      -9.380  -7.535  16.825  0.00  0.00    +0.000 A 
ATOM      3  C   UNL     1      -9.592  -6.141  16.869  0.00  0.00    +0.000 A 
ATOM      4  C   UNL     1      -9.647  -5.450  15.659  0.00  0.00    +0.000 A 
ATOM      5  C   UNL     1      -9.473  -6.107  14.450  0.00  0.00    +0.000 A 
ATOM      6  C   UNL     1      -9.244  -7.476  14.401  0.00  0.00    +0.000 A 
ATOM      7  C   UNL     1      -9.200  -8.207  15.611  0.00  0.00    +0.000 A 
ATOM      8  C   UNL     1      -8.968  -9.584  15.909  0.00  0.00    +0.000 A 
ATOM      9  C   UNL     1      -8.682 -10.711  15.100  0.00  0.00    +0.000 A 
ATOM     10  C   UNL     1      -8.477 -11.968  15.682  0.00  0.00    +0.000 A 
ATOM     11  C   UNL     1      -8.566 -12.099  17.057  0.00  0.00    +0.000 A 
ATOM     12  C   UNL     1      -8.845 -11.003  17.878  0.00  0.00    +0.000 A 
ATOM     13  C   UNL     1      -9.039  -9.739  17.299  0.00  0.00    +0.000 A 
ATOM     14  H   UNL     1      -9.701  -5.618  17.808  0.00  0.00    +0.000 HD
ATOM     15  H   UNL     1      -9.097  -7.967  13.446  0.00  0.00    +0.000 HD
ATOM     16  H   UNL     1      -8.605 -10.596  14.022  0.00  0.00    +0.000 HD
ATOM     17  H   UNL     1      -8.242 -12.814  15.045  0.00  0.00    +0.000 HD
ENDROOT
BRANCH   1  18
ATOM     18  C   UNL     1      -9.266  -8.176  19.269  0.00  0.00    +0.000 C 
ATOM     19  H   UNL     1     -10.268  -7.868  19.579  0.00  0.00    +0.000 HD
ATOM     20  H   UNL     1      -9.080  -9.113  19.805  0.00  0.00    +0.000 HD
BRANCH  18  24
ATOM     21  C   UNL     1      -6.300  -5.227  20.386  0.00  0.00    +0.000 A 
ATOM     22  C   UNL     1      -5.911  -6.397  19.735  0.00  0.00    +0.000 A 
ATOM     23  C   UNL     1      -6.869  -7.343  19.366  0.00  0.00    +0.000 A 
ATOM     24  C   UNL     1      -8.229  -7.141  19.644  0.00  0.00    +0.000 A 
ATOM     25  C   UNL     1      -8.606  -5.946  20.271  0.00  0.00    +0.000 A 
ATOM     26  C   UNL     1      -7.652  -4.997  20.644  0.00  0.00    +0.000 A 
ATOM     27  H   UNL     1      -4.861  -6.584  19.513  0.00  0.00    +0.000 HD
ATOM     28  H   UNL     1      -6.535  -8.243  18.853  0.00  0.00    +0.000 HD
ATOM     29  H   UNL     1      -9.651  -5.731  20.474  0.00  0.00    +0.000 HD
ATOM     30  H   UNL     1      -7.971  -4.086  21.144  0.00  0.00    +0.000 HD
BRANCH  21  32
ATOM     31  N   UNL     1      -4.528  -3.476  21.100  0.00  0.00    +0.000 NA
ATOM     32  C   UNL     1      -5.322  -4.258  20.778  0.00  0.00    +0.000 C 
ENDBRANCH  21  32
ENDBRANCH  18  24
ENDBRANCH   1  18
BRANCH   4  33
ATOM     33  O   UNL     1      -9.868  -4.099  15.615  0.00  0.00    +0.000 OA
ATOM     34  H   UNL     1      -9.007  -3.651  15.561  0.00  0.00    +0.000 HD
ENDBRANCH   4  33
BRANCH   5  35
ATOM     35  O   UNL     1      -9.519  -5.400  13.281  0.00  0.00    +0.000 OA
ATOM     36  H   UNL     1     -10.470  -5.365  13.054  0.00  0.00    +0.000 HD
ENDBRANCH   5  35
BRANCH  11  37
ATOM     37  O   UNL     1      -8.371 -13.305  17.680  0.00  0.00    +0.000 OA
ATOM     38  H   UNL     1      -8.757 -13.248  18.570  0.00  0.00    +0.000 HD
ENDBRANCH  11  37
BRANCH  12  39
ATOM     39  O   UNL     1      -8.893 -11.214  19.235  0.00  0.00    +0.000 OA
ATOM     40  H   UNL     1      -8.635 -10.349  19.616  0.00  0.00    +0.000 HD
ENDBRANCH  12  39
TORSDOF 7
ENDMDL
MODEL 3
REMARK VINA RESULT:    -8.255      3.030      6.062
REMARK INTER + INTRA:         -11.058
REMARK INTER:                 -10.234
REMARK INTRA:                  -0.824
REMARK UNBOUND:                -0.390
REMARK  Name = 
REMARK  7 active torsions:
REMARK  status: ('A' for Active; 'I' for Inactive)
REMARK    1  A    between atoms: C_2  and  C_3
REMARK    2  A    between atoms: C_6  and  C_7
REMARK    3  A    between atoms: C_7  and  N_8
REMARK    4  A    between atoms: C_11  and  O_12
REMARK    5  A    between atoms: C_13  and  O_14
REMARK    6  A    between atoms: C_20  and  O_21
REMARK    7  A    between atoms: C_22  and  O_23
REMARK                            x       y       z     vdW  Elec       q    Type
REMARK                         _______ _______ _______ _____ _____    ______ ____
ROOT
ATOM      1  N   UNL     1     -10.290  -6.083  17.493  0.00  0.00    +0.000 N 
ATOM      2  C   UNL     1      -9.608  -5.344  18.455  0.00  0.00    +0.000 A 
ATOM      3  C   UNL     1      -9.673  -3.980  18.805  0.00  0.00    +0.000 A 
ATOM      4  C   UNL     1      -8.844  -3.529  19.832  0.00  0.00    +0.000 A 
ATOM      5  C   UNL     1      -8.000  -4.399  20.507  0.00  0.00    +0.000 A 
ATOM      6  C   UNL     1      -7.946  -5.747  20.180  0.00  0.00    +0.000 A 
ATOM      7  C   UNL     1      -8.762  -6.231  19.132  0.00  0.00    +0.000 A 
ATOM      8  C   UNL     1      -8.962  -7.530  18.572  0.00  0.00    +0.000 A 
ATOM      9  C   UNL     1      -8.425  -8.805  18.879  0.00  0.00    +0.000 A 
ATOM     10  C   UNL     1      -8.828  -9.936  18.159  0.00  0.00    +0.000 A 
ATOM     11  C   UNL     1      -9.749  -9.793  17.136  0.00  0.00    +0.000 A 
ATOM     12  C   UNL     1     -10.295  -8.547  16.815  0.00  0.00    +0.000 A 
ATOM     13  C   UNL     1      -9.904  -7.414  17.544  0.00  0.00    +0.000 A 
ATOM     14  H   UNL     1     -10.347  -3.302  18.303  0.00  0.00    +0.000 HD
ATOM     15  H   UNL     1      -7.290  -6.413  20.729  0.00  0.00    +0.000 HD
ATOM     16  H   UNL     1      -7.709  -8.908  19.690  0.00  0.00    +0.000 HD
ATOM     17  H   UNL     1      -8.417 -10.904  18.421  0.00  0.00    +0.000 HD
ENDROOT
BRANCH   1  18
ATOM     18  C   UNL     1     -11.379  -5.563  16.663  0.00  0.00    +0.000 C 
ATOM     19  H   UNL     1     -11.960  -6.400  16.268  0.00  0.00    +0.000 HD
ATOM     20  H   UNL     1     -12.069  -5.027  17.325  0.00  0.00    +0.000 HD
BRANCH  18  24
ATOM     21  C   UNL     1     -10.028  -2.982  13.461  0.00  0.00    +0.000 A 
ATOM     22  C   UNL     1     -11.053  -2.565  14.308  0.00  0.00    +0.000 A 
ATOM     23  C   UNL     1     -11.482  -3.394  15.347  0.00  0.00    +0.000 A 
ATOM     24  C   UNL     1     -10.899  -4.652  15.556  0.00  0.00    +0.000 A 
ATOM     25  C   UNL     1      -9.849  -5.043  14.714  0.00  0.00    +0.000 A 
ATOM     26  C   UNL     1      -9.417  -4.219  13.672  0.00  0.00    +0.000 A 
ATOM     27  H   UNL     1     -11.529  -1.596  14.165  0.00  0.00    +0.000 HD
ATOM     28  H   UNL     1     -12.280  -3.037  15.995  0.00  0.00    +0.000 HD
ATOM     29  H   UNL     1      -9.344  -5.993  14.860  0.00  0.00    +0.000 HD
ATOM     30  H   UNL     1      -8.610  -4.555  13.024  0.00  0.00    +0.000 HD
BRANCH  21  32
ATOM     31  N   UNL     1      -9.235  -1.468  11.514  0.00  0.00    +0.000 NA
ATOM     32  C   UNL     1      -9.591  -2.143  12.386  0.00  0.00    +0.000 C 
ENDBRANCH  21  32
ENDBRANCH  18  24
ENDBRANCH   1  18
BRANCH   4  33
ATOM     33  O   UNL     1      -8.833  -2.214  20.219  0.00  0.00    +0.000 OA
ATOM     34  H   UNL     1      -8.680  -1.667  19.430  0.00  0.00    +0.000 HD
ENDBRANCH   4  33
BRANCH   5  35
ATOM     35  O   UNL     1      -7.209  -3.929  21.518  0.00  0.00    +0.000 OA
ATOM     36  H   UNL     1      -6.376  -4.436  21.432  0.00  0.00    +0.000 HD
ENDBRANCH   5  35
BRANCH  11  37
ATOM     37  O   UNL     1     -10.181 -10.866  16.401  0.00  0.00    +0.000 OA
ATOM     38  H   UNL     1     -11.090 -10.683  16.108  0.00  0.00    +0.000 HD
ENDBRANCH  11  37
BRANCH  12  39
ATOM     39  O   UNL     1     -11.223  -8.496  15.801  0.00  0.00    +0.000 OA
ATOM     40  H   UNL     1     -10.917  -9.177  15.168  0.00  0.00    +0.000 HD
ENDBRANCH  12  39
TORSDOF 7
ENDMDL
MODEL 4
REMARK VINA RESULT:    -7.879      2.832      6.490
REMARK INTER + INTRA:         -10.572
REMARK INTER:                  -9.861
REMARK INTRA:                  -0.711
REMARK UNBOUND:                -0.390
REMARK  Name = 
REMARK  7 active torsions:
REMARK  status: ('A' for Active; 'I' for Inactive)
REMARK    1  A    between atoms: C_2  and  C_3
REMARK    2  A    between atoms: C_6  and  C_7
REMARK    3  A    between atoms: C_7  and  N_8
REMARK    4  A    between atoms: C_11  and  O_12
REMARK    5  A    between atoms: C_13  and  O_14
REMARK    6  A    between atoms: C_20  and  O_21
REMARK    7  A    between atoms: C_22  and  O_23
REMARK                            x       y       z     vdW  Elec       q    Type
REMARK                         _______ _______ _______ _____ _____    ______ ____
ROOT
ATOM      1  N   UNL     1     -10.254  -4.302  18.582  0.00  0.00    +0.000 N 
ATOM      2  C   UNL     1      -9.196  -4.032  19.445  0.00  0.00    +0.000 A 
ATOM      3  C   UNL     1      -8.929  -2.925  20.278  0.00  0.00    +0.000 A 
ATOM      4  C   UNL     1      -7.761  -2.947  21.038  0.00  0.00    +0.000 A 
ATOM      5  C   UNL     1      -6.899  -4.034  20.999  0.00  0.00    +0.000 A 
ATOM      6  C   UNL     1      -7.168  -5.135  20.198  0.00  0.00    +0.000 A 
ATOM      7  C   UNL     1      -8.336  -5.135  19.401  0.00  0.00    +0.000 A 
ATOM      8  C   UNL     1      -8.906  -6.091  18.506  0.00  0.00    +0.000 A 
ATOM      9  C   UNL     1      -8.513  -7.393  18.107  0.00  0.00    +0.000 A 
ATOM     10  C   UNL     1      -9.295  -8.125  17.208  0.00  0.00    +0.000 A 
ATOM     11  C   UNL     1     -10.453  -7.561  16.704  0.00  0.00    +0.000 A 
ATOM     12  C   UNL     1     -10.865  -6.280  17.083  0.00  0.00    +0.000 A 
ATOM     13  C   UNL     1     -10.089  -5.547  17.995  0.00  0.00    +0.000 A 
ATOM     14  H   UNL     1      -9.608  -2.087  20.334  0.00  0.00    +0.000 HD
ATOM     15  H   UNL     1      -6.489  -5.980  20.192  0.00  0.00    +0.000 HD
ATOM     16  H   UNL     1      -7.605  -7.831  18.515  0.00  0.00    +0.000 HD
ATOM     17  H   UNL     1      -8.984  -9.126  16.929  0.00  0.00    +0.000 HD
ENDROOT
BRANCH   1  18
ATOM     18  C   UNL     1     -11.448  -3.466  18.443  0.00  0.00    +0.000 C 
ATOM     19  H   UNL     1     -12.334  -4.107  18.422  0.00  0.00    +0.000 HD
ATOM     20  H   UNL     1     -11.546  -2.878  19.363  0.00  0.00    +0.000 HD
BRANCH  18  24
ATOM     21  C   UNL     1     -11.285  -0.890  14.968  0.00  0.00    +0.000 A 
ATOM     22  C   UNL     1     -12.501  -1.439  15.374  0.00  0.00    +0.000 A 
ATOM     23  C   UNL     1     -12.554  -2.262  16.501  0.00  0.00    +0.000 A 
ATOM     24  C   UNL     1     -11.398  -2.554  17.238  0.00  0.00    +0.000 A 
ATOM     25  C   UNL     1     -10.189  -1.969  16.835  0.00  0.00    +0.000 A 
ATOM     26  C   UNL     1     -10.129  -1.147  15.708  0.00  0.00    +0.000 A 
ATOM     27  H   UNL     1     -13.413  -1.235  14.816  0.00  0.00    +0.000 HD
ATOM     28  H   UNL     1     -13.519  -2.669  16.795  0.00  0.00    +0.000 HD
ATOM     29  H   UNL     1      -9.276  -2.139  17.396  0.00  0.00    +0.000 HD
ATOM     30  H   UNL     1      -9.175  -0.720  15.408  0.00  0.00    +0.000 HD
BRANCH  21  32
ATOM     31  N   UNL     1     -11.162   0.623  12.868  0.00  0.00    +0.000 NA
ATOM     32  C   UNL     1     -11.219  -0.055  13.807  0.00  0.00    +0.000 C 
ENDBRANCH  21  32
ENDBRANCH  18  24
ENDBRANCH   1  18
BRANCH   4  33
ATOM     33  O   UNL     1      -7.419  -1.902  21.857  0.00  0.00    +0.000 OA
ATOM     34  H   UNL     1      -8.122  -1.234  21.806  0.00  0.00    +0.000 HD
ENDBRANCH   4  33
BRANCH   5  35
ATOM     35  O   UNL     1      -5.768  -4.031  21.767  0.00  0.00    +0.000 OA
ATOM     36  H   UNL     1      -5.456  -3.105  21.738  0.00  0.00    +0.000 HD
ENDBRANCH   5  35
BRANCH  11  37
ATOM     37  O   UNL     1     -11.260  -8.234  15.823  0.00  0.00    +0.000 OA
ATOM     38  H   UNL     1     -10.903  -9.133  15.717  0.00  0.00    +0.000 HD
ENDBRANCH  11  37
BRANCH  12  39
ATOM     39  O   UNL     1     -12.041  -5.801  16.555  0.00  0.00    +0.000 OA
ATOM     40  H   UNL     1     -11.997  -6.058  15.611  0.00  0.00    +0.000 HD
ENDBRANCH  12  39
TORSDOF 7
ENDMDL
MODEL 5
REMARK VINA RESULT:    -7.746      2.691      6.539
REMARK INTER + INTRA:         -10.400
REMARK INTER:                  -9.638
REMARK INTRA:                  -0.762
REMARK UNBOUND:                -0.390
REMARK  Name = 
REMARK  7 active torsions:
REMARK  status: ('A' for Active; 'I' for Inactive)
REMARK    1  A    between atoms: C_2  and  C_3
REMARK    2  A    between atoms: C_6  and  C_7
REMARK    3  A    between atoms: C_7  and  N_8
REMARK    4  A    between atoms: C_11  and  O_12
REMARK    5  A    between atoms: C_13  and  O_14
REMARK    6  A    between atoms: C_20  and  O_21
REMARK    7  A    between atoms: C_22  and  O_23
REMARK                            x       y       z     vdW  Elec       q    Type
REMARK                         _______ _______ _______ _____ _____    ______ ____
ROOT
ATOM      1  N   UNL     1      -8.687  -4.541  19.649  0.00  0.00    +0.000 N 
ATOM      2  C   UNL     1      -7.330  -4.709  19.909  0.00  0.00    +0.000 A 
ATOM      3  C   UNL     1      -6.400  -3.893  20.585  0.00  0.00    +0.000 A 
ATOM      4  C   UNL     1      -5.083  -4.343  20.680  0.00  0.00    +0.000 A 
ATOM      5  C   UNL     1      -4.703  -5.567  20.149  0.00  0.00    +0.000 A 
ATOM      6  C   UNL     1      -5.619  -6.384  19.499  0.00  0.00    +0.000 A 
ATOM      7  C   UNL     1      -6.958  -5.947  19.372  0.00  0.00    +0.000 A 
ATOM      8  C   UNL     1      -8.126  -6.537  18.798  0.00  0.00    +0.000 A 
ATOM      9  C   UNL     1      -8.365  -7.781  18.165  0.00  0.00    +0.000 A 
ATOM     10  C   UNL     1      -9.646  -8.108  17.707  0.00  0.00    +0.000 A 
ATOM     11  C   UNL     1     -10.676  -7.199  17.871  0.00  0.00    +0.000 A 
ATOM     12  C   UNL     1     -10.467  -5.965  18.495  0.00  0.00    +0.000 A 
ATOM     13  C   UNL     1      -9.186  -5.639  18.967  0.00  0.00    +0.000 A 
ATOM     14  H   UNL     1      -6.693  -2.951  21.025  0.00  0.00    +0.000 HD
ATOM     15  H   UNL     1      -5.305  -7.343  19.104  0.00  0.00    +0.000 HD
ATOM     16  H   UNL     1      -7.552  -8.493  18.048  0.00  0.00    +0.000 HD
ATOM     17  H   UNL     1      -9.811  -9.074  17.239  0.00  0.00    +0.000 HD
ENDROOT
BRANCH   1  18
ATOM     18  C   UNL     1      -9.503  -3.441  20.169  0.00  0.00    +0.000 C 
ATOM     19  H   UNL     1     -10.522  -3.799  20.335  0.00  0.00    +0.000 HD
ATOM     20  H   UNL     1      -9.123  -3.194  21.167  0.00  0.00    +0.000 HD
BRANCH  18  24
ATOM     21  C   UNL     1      -9.498   0.063  17.627  0.00  0.00    +0.000 A 
ATOM     22  C   UNL     1      -9.230   0.189  18.990  0.00  0.00    +0.000 A 
ATOM     23  C   UNL     1      -9.222  -0.944  19.807  0.00  0.00    +0.000 A 
ATOM     24  C   UNL     1      -9.484  -2.217  19.281  0.00  0.00    +0.000 A 
ATOM     25  C   UNL     1      -9.721  -2.329  17.904  0.00  0.00    +0.000 A 
ATOM     26  C   UNL     1      -9.732  -1.201  17.082  0.00  0.00    +0.000 A 
ATOM     27  H   UNL     1      -9.031   1.166  19.426  0.00  0.00    +0.000 HD
ATOM     28  H   UNL     1      -9.004  -0.814  20.865  0.00  0.00    +0.000 HD
ATOM     29  H   UNL     1      -9.894  -3.299  17.448  0.00  0.00    +0.000 HD
ATOM     30  H   UNL     1      -9.935  -1.315  16.020  0.00  0.00    +0.000 HD
BRANCH  21  32
ATOM     31  N   UNL     1      -9.533   2.157  16.102  0.00  0.00    +0.000 NA
ATOM     32  C   UNL     1      -9.520   1.220  16.784  0.00  0.00    +0.000 C 
ENDBRANCH  21  32
ENDBRANCH  18  24
ENDBRANCH   1  18
BRANCH   4  33
ATOM     33  O   UNL     1      -4.115  -3.600  21.304  0.00  0.00    +0.000 OA
ATOM     34  H   UNL     1      -3.581  -4.197  21.854  0.00  0.00    +0.000 HD
ENDBRANCH   4  33
BRANCH   5  35
ATOM     35  O   UNL     1      -3.408  -5.986  20.269  0.00  0.00    +0.000 OA
ATOM     36  H   UNL     1      -3.175  -6.317  19.378  0.00  0.00    +0.000 HD
ENDBRANCH   5  35
BRANCH  11  37
ATOM     37  O   UNL     1     -11.951  -7.468  17.445  0.00  0.00    +0.000 OA
ATOM     38  H   UNL     1     -12.103  -6.973  16.622  0.00  0.00    +0.000 HD
ENDBRANCH  11  37
BRANCH  12  39
ATOM     39  O   UNL     1     -11.548  -5.129  18.640  0.00  0.00    +0.000 OA
ATOM     40  H   UNL     1     -12.269  -5.592  18.167  0.00  0.00    +0.000 HD
ENDBRANCH  12  39
TORSDOF 7
ENDMDL
MODEL 6
REMARK VINA RESULT:    -7.665      2.819      7.043
REMARK INTER + INTRA:         -10.296
REMARK INTER:                  -9.458
REMARK INTRA:                  -0.837
REMARK UNBOUND:                -0.390
REMARK  Name = 
REMARK  7 active torsions:
REMARK  status: ('A' for Active; 'I' for Inactive)
REMARK    1  A    between atoms: C_2  and  C_3
REMARK    2  A    between atoms: C_6  and  C_7
REMARK    3  A    between atoms: C_7  and  N_8
REMARK    4  A    between atoms: C_11  and  O_12
REMARK    5  A    between atoms: C_13  and  O_14
REMARK    6  A    between atoms: C_20  and  O_21
REMARK    7  A    between atoms: C_22  and  O_23
REMARK                            x       y       z     vdW  Elec       q    Type
REMARK                         _______ _______ _______ _____ _____    ______ ____
ROOT
ATOM      1  N   UNL     1     -10.077  -5.167  18.668  0.00  0.00    +0.000 N 
ATOM      2  C   UNL     1     -10.076  -6.365  17.960  0.00  0.00    +0.000 A 
ATOM      3  C   UNL     1     -11.043  -6.955  17.120  0.00  0.00    +0.000 A 
ATOM      4  C   UNL     1     -10.743  -8.190  16.545  0.00  0.00    +0.000 A 
ATOM      5  C   UNL     1      -9.522  -8.809  16.771  0.00  0.00    +0.000 A 
ATOM      6  C   UNL     1      -8.558  -8.223  17.581  0.00  0.00    +0.000 A 
ATOM      7  C   UNL     1      -8.840  -6.979  18.191  0.00  0.00    +0.000 A 
ATOM      8  C   UNL     1      -8.081  -6.116  19.041  0.00  0.00    +0.000 A 
ATOM      9  C   UNL     1      -6.766  -6.189  19.562  0.00  0.00    +0.000 A 
ATOM     10  C   UNL     1      -6.267  -5.163  20.372  0.00  0.00    +0.000 A 
ATOM     11  C   UNL     1      -7.076  -4.079  20.666  0.00  0.00    +0.000 A 
ATOM     12  C   UNL     1      -8.375  -3.981  20.161  0.00  0.00    +0.000 A 
ATOM     13  C   UNL     1      -8.875  -5.003  19.339  0.00  0.00    +0.000 A 
ATOM     14  H   UNL     1     -11.985  -6.467  16.917  0.00  0.00    +0.000 HD
ATOM     15  H   UNL     1      -7.605  -8.716  17.733  0.00  0.00    +0.000 HD
ATOM     16  H   UNL     1      -6.135  -7.041  19.319  0.00  0.00    +0.000 HD
ATOM     17  H   UNL     1      -5.251  -5.232  20.747  0.00  0.00    +0.000 HD
ENDROOT
BRANCH   1  18
ATOM     18  C   UNL     1     -11.129  -4.151  18.581  0.00  0.00    +0.000 C 
ATOM     19  H   UNL     1     -12.105  -4.638  18.657  0.00  0.00    +0.000 HD
ATOM     20  H   UNL     1     -11.055  -3.525  19.478  0.00  0.00    +0.000 HD
BRANCH  18  24
ATOM     21  C   UNL     1     -10.810  -1.737  15.003  0.00  0.00    +0.000 A 
ATOM     22  C   UNL     1     -11.724  -2.789  15.056  0.00  0.00    +0.000 A 
ATOM     23  C   UNL     1     -11.834  -3.560  16.215  0.00  0.00    +0.000 A 
ATOM     24  C   UNL     1     -11.031  -3.300  17.335  0.00  0.00    +0.000 A 
ATOM     25  C   UNL     1     -10.140  -2.221  17.275  0.00  0.00    +0.000 A 
ATOM     26  C   UNL     1     -10.024  -1.446  16.119  0.00  0.00    +0.000 A 
ATOM     27  H   UNL     1     -12.354  -3.018  14.199  0.00  0.00    +0.000 HD
ATOM     28  H   UNL     1     -12.561  -4.369  16.228  0.00  0.00    +0.000 HD
ATOM     29  H   UNL     1      -9.524  -1.961  18.131  0.00  0.00    +0.000 HD
ATOM     30  H   UNL     1      -9.312  -0.625  16.094  0.00  0.00    +0.000 HD
BRANCH  21  32
ATOM     31  N   UNL     1     -10.578  -0.307  12.854  0.00  0.00    +0.000 NA
ATOM     32  C   UNL     1     -10.683  -0.949  13.814  0.00  0.00    +0.000 C 
ENDBRANCH  21  32
ENDBRANCH  18  24
ENDBRANCH   1  18
BRANCH   4  33
ATOM     33  O   UNL     1     -11.637  -8.838  15.733  0.00  0.00    +0.000 OA
ATOM     34  H   UNL     1     -11.544  -9.794  15.882  0.00  0.00    +0.000 HD
ENDBRANCH   4  33
BRANCH   5  35
ATOM     35  O   UNL     1      -9.253 -10.013  16.183  0.00  0.00    +0.000 OA
ATOM     36  H   UNL     1      -9.954 -10.609  16.515  0.00  0.00    +0.000 HD
ENDBRANCH   5  35
BRANCH  11  37
ATOM     37  O   UNL     1      -6.637  -3.044  21.450  0.00  0.00    +0.000 OA
ATOM     38  H   UNL     1      -6.947  -3.203  22.358  0.00  0.00    +0.000 HD
ENDBRANCH  11  37
BRANCH  12  39
ATOM     39  O   UNL     1      -9.105  -2.860  20.480  0.00  0.00    +0.000 OA
ATOM     40  H   UNL     1      -9.771  -2.803  19.765  0.00  0.00    +0.000 HD
ENDBRANCH  12  39
TORSDOF 7
ENDMDL
MODEL 7
REMARK VINA RESULT:    -7.650      3.001      6.534
REMARK INTER + INTRA:         -10.277
REMARK INTER:                 -10.253
REMARK INTRA:                  -0.024
REMARK UNBOUND:                -0.390
REMARK  Name = 
REMARK  7 active torsions:
REMARK  status: ('A' for Active; 'I' for Inactive)
REMARK    1  A    between atoms: C_2  and  C_3
REMARK    2  A    between atoms: C_6  and  C_7
REMARK    3  A    between atoms: C_7  and  N_8
REMARK    4  A    between atoms: C_11  and  O_12
REMARK    5  A    between atoms: C_13  and  O_14
REMARK    6  A    between atoms: C_20  and  O_21
REMARK    7  A    between atoms: C_22  and  O_23
REMARK                            x       y       z     vdW  Elec       q    Type
REMARK                         _______ _______ _______ _____ _____    ______ ____
ROOT
ATOM      1  N   UNL     1      -9.035  -8.629  17.955  0.00  0.00    +0.000 N 
ATOM      2  C   UNL     1      -8.905 -10.002  17.770  0.00  0.00    +0.000 A 
ATOM      3  C   UNL     1      -8.866 -11.070  18.691  0.00  0.00    +0.000 A 
ATOM      4  C   UNL     1      -8.722 -12.362  18.187  0.00  0.00    +0.000 A 
ATOM      5  C   UNL     1      -8.644 -12.596  16.822  0.00  0.00    +0.000 A 
ATOM      6  C   UNL     1      -8.703 -11.550  15.909  0.00  0.00    +0.000 A 
ATOM      7  C   UNL     1      -8.831 -10.227  16.390  0.00  0.00    +0.000 A 
ATOM      8  C   UNL     1      -8.940  -8.960  15.740  0.00  0.00    +0.000 A 
ATOM      9  C   UNL     1      -8.976  -8.575  14.377  0.00  0.00    +0.000 A 
ATOM     10  C   UNL     1      -9.113  -7.228  14.024  0.00  0.00    +0.000 A 
ATOM     11  C   UNL     1      -9.203  -6.273  15.021  0.00  0.00    +0.000 A 
ATOM     12  C   UNL     1      -9.174  -6.626  16.373  0.00  0.00    +0.000 A 
ATOM     13  C   UNL     1      -9.050  -7.978  16.731  0.00  0.00    +0.000 A 
ATOM     14  H   UNL     1      -8.953 -10.899  19.754  0.00  0.00    +0.000 HD
ATOM     15  H   UNL     1      -8.654 -11.756  14.846  0.00  0.00    +0.000 HD
ATOM     16  H   UNL     1      -8.912  -9.334  13.600  0.00  0.00    +0.000 HD
ATOM     17  H   UNL     1      -9.154  -6.958  12.974  0.00  0.00    +0.000 HD
ENDROOT
BRANCH   1  18
ATOM     18  C   UNL     1      -9.288  -7.984  19.245  0.00  0.00    +0.000 C 
ATOM     19  H   UNL     1     -10.276  -7.516  19.224  0.00  0.00    +0.000 HD
ATOM     20  H   UNL     1      -9.367  -8.777  19.998  0.00  0.00    +0.000 HD
BRANCH  18  24
ATOM     21  C   UNL     1      -6.216  -5.164  20.405  0.00  0.00    +0.000 A 
ATOM     22  C   UNL     1      -5.873  -6.326  19.716  0.00  0.00    +0.000 A 
ATOM     23  C   UNL     1      -6.866  -7.231  19.333  0.00  0.00    +0.000 A 
ATOM     24  C   UNL     1      -8.214  -6.994  19.635  0.00  0.00    +0.000 A 
ATOM     25  C   UNL     1      -8.545  -5.806  20.301  0.00  0.00    +0.000 A 
ATOM     26  C   UNL     1      -7.557  -4.899  20.688  0.00  0.00    +0.000 A 
ATOM     27  H   UNL     1      -4.833  -6.539  19.475  0.00  0.00    +0.000 HD
ATOM     28  H   UNL     1      -6.566  -8.125  18.791  0.00  0.00    +0.000 HD
ATOM     29  H   UNL     1      -9.580  -5.565  20.524  0.00  0.00    +0.000 HD
ATOM     30  H   UNL     1      -7.841  -3.993  21.219  0.00  0.00    +0.000 HD
BRANCH  21  32
ATOM     31  N   UNL     1      -4.386  -3.485  21.144  0.00  0.00    +0.000 NA
ATOM     32  C   UNL     1      -5.203  -4.238  20.812  0.00  0.00    +0.000 C 
ENDBRANCH  21  32
ENDBRANCH  18  24
ENDBRANCH   1  18
BRANCH   4  33
ATOM     33  O   UNL     1      -8.656 -13.451  19.016  0.00  0.00    +0.000 OA
ATOM     34  H   UNL     1      -8.768 -13.143  19.931  0.00  0.00    +0.000 HD
ENDBRANCH   4  33
BRANCH   5  35
ATOM     35  O   UNL     1      -8.516 -13.875  16.358  0.00  0.00    +0.000 OA
ATOM     36  H   UNL     1      -9.254 -13.979  15.723  0.00  0.00    +0.000 HD
ENDBRANCH   5  35
BRANCH  11  37
ATOM     37  O   UNL     1      -9.343  -4.940  14.732  0.00  0.00    +0.000 OA
ATOM     38  H   UNL     1      -8.719  -4.721  14.020  0.00  0.00    +0.000 HD
ENDBRANCH  11  37
BRANCH  12  39
ATOM     39  O   UNL     1      -9.295  -5.620  17.302  0.00  0.00    +0.000 OA
ATOM     40  H   UNL     1      -8.369  -5.377  17.507  0.00  0.00    +0.000 HD
ENDBRANCH  12  39
TORSDOF 7
ENDMDL
MODEL 8
REMARK VINA RESULT:    -7.267      3.080      5.571
REMARK INTER + INTRA:          -9.781
REMARK INTER:                  -9.351
REMARK INTRA:                  -0.430
REMARK UNBOUND:                -0.390
REMARK  Name = 
REMARK  7 active torsions:
REMARK  status: ('A' for Active; 'I' for Inactive)
REMARK    1  A    between atoms: C_2  and  C_3
REMARK    2  A    between atoms: C_6  and  C_7
REMARK    3  A    between atoms: C_7  and  N_8
REMARK    4  A    between atoms: C_11  and  O_12
REMARK    5  A    between atoms: C_13  and  O_14
REMARK    6  A    between atoms: C_20  and  O_21
REMARK    7  A    between atoms: C_22  and  O_23
REMARK                            x       y       z     vdW  Elec       q    Type
REMARK                         _______ _______ _______ _____ _____    ______ ____
ROOT
ATOM      1  N   UNL     1     -10.517  -3.718  17.532  0.00  0.00    +0.000 N 
ATOM      2  C   UNL     1     -10.887  -3.446  16.219  0.00  0.00    +0.000 A 
ATOM      3  C   UNL     1     -11.472  -4.259  15.225  0.00  0.00    +0.000 A 
ATOM      4  C   UNL     1     -11.726  -3.686  13.979  0.00  0.00    +0.000 A 
ATOM      5  C   UNL     1     -11.439  -2.352  13.730  0.00  0.00    +0.000 A 
ATOM      6  C   UNL     1     -10.882  -1.542  14.711  0.00  0.00    +0.000 A 
ATOM      7  C   UNL     1     -10.597  -2.098  15.979  0.00  0.00    +0.000 A 
ATOM      8  C   UNL     1     -10.059  -1.552  17.185  0.00  0.00    +0.000 A 
ATOM      9  C   UNL     1      -9.635  -0.249  17.548  0.00  0.00    +0.000 A 
ATOM     10  C   UNL     1      -9.160   0.006  18.839  0.00  0.00    +0.000 A 
ATOM     11  C   UNL     1      -9.098  -1.029  19.755  0.00  0.00    +0.000 A 
ATOM     12  C   UNL     1      -9.513  -2.322  19.423  0.00  0.00    +0.000 A 
ATOM     13  C   UNL     1     -10.003  -2.579  18.133  0.00  0.00    +0.000 A 
ATOM     14  H   UNL     1     -11.723  -5.291  15.419  0.00  0.00    +0.000 HD
ATOM     15  H   UNL     1     -10.678  -0.498  14.501  0.00  0.00    +0.000 HD
ATOM     16  H   UNL     1      -9.695   0.559  16.825  0.00  0.00    +0.000 HD
ATOM     17  H   UNL     1      -8.856   1.014  19.101  0.00  0.00    +0.000 HD
ENDROOT
BRANCH   1  18
ATOM     18  C   UNL     1     -10.786  -4.979  18.228  0.00  0.00    +0.000 C 
ATOM     19  H   UNL     1     -10.342  -4.938  19.226  0.00  0.00    +0.000 HD
ATOM     20  H   UNL     1     -11.867  -5.033  18.401  0.00  0.00    +0.000 HD
BRANCH  18  24
ATOM     21  C   UNL     1      -9.457  -8.440  15.995  0.00  0.00    +0.000 A 
ATOM     22  C   UNL     1      -8.576  -7.386  16.239  0.00  0.00    +0.000 A 
ATOM     23  C   UNL     1      -9.003  -6.275  16.969  0.00  0.00    +0.000 A 
ATOM     24  C   UNL     1     -10.314  -6.193  17.461  0.00  0.00    +0.000 A 
ATOM     25  C   UNL     1     -11.176  -7.274  17.232  0.00  0.00    +0.000 A 
ATOM     26  C   UNL     1     -10.756  -8.387  16.502  0.00  0.00    +0.000 A 
ATOM     27  H   UNL     1      -7.555  -7.420  15.863  0.00  0.00    +0.000 HD
ATOM     28  H   UNL     1      -8.291  -5.472  17.149  0.00  0.00    +0.000 HD
ATOM     29  H   UNL     1     -12.188  -7.269  17.625  0.00  0.00    +0.000 HD
ATOM     30  H   UNL     1     -11.451  -9.205  16.326  0.00  0.00    +0.000 HD
BRANCH  21  32
ATOM     31  N   UNL     1      -8.680 -10.497  14.623  0.00  0.00    +0.000 NA
ATOM     32  C   UNL     1      -9.030  -9.578  15.237  0.00  0.00    +0.000 C 
ENDBRANCH  21  32
ENDBRANCH  18  24
ENDBRANCH   1  18
BRANCH   4  33
ATOM     33  O   UNL     1     -12.273  -4.414  12.955  0.00  0.00    +0.000 OA
ATOM     34  H   UNL     1     -13.241  -4.330  13.006  0.00  0.00    +0.000 HD
ENDBRANCH   4  33
BRANCH   5  35
ATOM     35  O   UNL     1     -11.712  -1.816  12.503  0.00  0.00    +0.000 OA
ATOM     36  H   UNL     1     -12.614  -1.449  12.593  0.00  0.00    +0.000 HD
ENDBRANCH   5  35
BRANCH  11  37
ATOM     37  O   UNL     1      -8.645  -0.834  21.034  0.00  0.00    +0.000 OA
ATOM     38  H   UNL     1      -9.417  -0.685  21.607  0.00  0.00    +0.000 HD
ENDBRANCH  11  37
BRANCH  12  39
ATOM     39  O   UNL     1      -9.443  -3.288  20.398  0.00  0.00    +0.000 OA
ATOM     40  H   UNL     1      -9.012  -2.833  21.150  0.00  0.00    +0.000 HD
ENDBRANCH  12  39
TORSDOF 7
ENDMDL
MODEL 9
REMARK VINA RESULT:    -7.221      3.591      4.971
REMARK INTER + INTRA:          -9.722
REMARK INTER:                  -8.973
REMARK INTRA:                  -0.749
REMARK UNBOUND:                -0.390
REMARK  Name = 
REMARK  7 active torsions:
REMARK  status: ('A' for Active; 'I' for Inactive)
REMARK    1  A    between atoms: C_2  and  C_3
REMARK    2  A    between atoms: C_6  and  C_7
REMARK    3  A    between atoms: C_7  and  N_8
REMARK    4  A    between atoms: C_11  and  O_12
REMARK    5  A    between atoms: C_13  and  O_14
REMARK    6  A    between atoms: C_20  and  O_21
REMARK    7  A    between atoms: C_22  and  O_23
REMARK                            x       y       z     vdW  Elec       q    Type
REMARK                         _______ _______ _______ _____ _____    ______ ____
ROOT
ATOM      1  N   UNL     1      -8.818  -2.654  21.103  0.00  0.00    +0.000 N 
ATOM      2  C   UNL     1      -8.755  -2.828  22.482  0.00  0.00    +0.000 A 
ATOM      3  C   UNL     1      -7.904  -3.614  23.287  0.00  0.00    +0.000 A 
ATOM      4  C   UNL     1      -8.095  -3.578  24.668  0.00  0.00    +0.000 A 
ATOM      5  C   UNL     1      -9.074  -2.776  25.237  0.00  0.00    +0.000 A 
ATOM      6  C   UNL     1      -9.901  -1.985  24.451  0.00  0.00    +0.000 A 
ATOM      7  C   UNL     1      -9.744  -2.013  23.046  0.00  0.00    +0.000 A 
ATOM      8  C   UNL     1     -10.395  -1.323  21.978  0.00  0.00    +0.000 A 
ATOM      9  C   UNL     1     -11.424  -0.349  21.945  0.00  0.00    +0.000 A 
ATOM     10  C   UNL     1     -11.861   0.178  20.724  0.00  0.00    +0.000 A 
ATOM     11  C   UNL     1     -11.285  -0.269  19.549  0.00  0.00    +0.000 A 
ATOM     12  C   UNL     1     -10.267  -1.227  19.554  0.00  0.00    +0.000 A 
ATOM     13  C   UNL     1      -9.817  -1.748  20.777  0.00  0.00    +0.000 A 
ATOM     14  H   UNL     1      -7.122  -4.220  22.854  0.00  0.00    +0.000 HD
ATOM     15  H   UNL     1     -10.650  -1.355  24.916  0.00  0.00    +0.000 HD
ATOM     16  H   UNL     1     -11.865   0.002  22.874  0.00  0.00    +0.000 HD
ATOM     17  H   UNL     1     -12.639   0.935  20.723  0.00  0.00    +0.000 HD
ENDROOT
BRANCH   1  18
ATOM     18  C   UNL     1      -7.860  -3.218  20.149  0.00  0.00    +0.000 C 
ATOM     19  H   UNL     1      -7.755  -2.534  19.302  0.00  0.00    +0.000 HD
ATOM     20  H   UNL     1      -6.878  -3.221  20.634  0.00  0.00    +0.000 HD
BRANCH  18  24
ATOM     21  C   UNL     1      -8.884  -7.202  18.802  0.00  0.00    +0.000 A 
ATOM     22  C   UNL     1      -7.891  -7.024  19.765  0.00  0.00    +0.000 A 
ATOM     23  C   UNL     1      -7.569  -5.739  20.207  0.00  0.00    +0.000 A 
ATOM     24  C   UNL     1      -8.227  -4.612  19.693  0.00  0.00    +0.000 A 
ATOM     25  C   UNL     1      -9.242  -4.811  18.748  0.00  0.00    +0.000 A 
ATOM     26  C   UNL     1      -9.568  -6.093  18.302  0.00  0.00    +0.000 A 
ATOM     27  H   UNL     1      -7.359  -7.880  20.176  0.00  0.00    +0.000 HD
ATOM     28  H   UNL     1      -6.794  -5.633  20.963  0.00  0.00    +0.000 HD
ATOM     29  H   UNL     1      -9.802  -3.971  18.349  0.00  0.00    +0.000 HD
ATOM     30  H   UNL     1     -10.350  -6.217  17.556  0.00  0.00    +0.000 HD
BRANCH  21  32
ATOM     31  N   UNL     1      -9.473  -9.580  17.956  0.00  0.00    +0.000 NA
ATOM     32  C   UNL     1      -9.212  -8.515  18.336  0.00  0.00    +0.000 C 
ENDBRANCH  21  32
ENDBRANCH  18  24
ENDBRANCH   1  18
BRANCH   4  33
ATOM     33  O   UNL     1      -7.323  -4.327  25.517  0.00  0.00    +0.000 OA
ATOM     34  H   UNL     1      -7.914  -4.875  26.061  0.00  0.00    +0.000 HD
ENDBRANCH   4  33
BRANCH   5  35
ATOM     35  O   UNL     1      -9.227  -2.753  26.595  0.00  0.00    +0.000 OA
ATOM     36  H   UNL     1      -9.876  -3.462  26.779  0.00  0.00    +0.000 HD
ENDBRANCH   5  35
BRANCH  11  37
ATOM     37  O   UNL     1     -11.671   0.216  18.326  0.00  0.00    +0.000 OA
ATOM     38  H   UNL     1     -10.884   0.576  17.884  0.00  0.00    +0.000 HD
ENDBRANCH  11  37
BRANCH  12  39
ATOM     39  O   UNL     1      -9.730  -1.599  18.345  0.00  0.00    +0.000 OA
ATOM     40  H   UNL     1     -10.177  -2.446  18.139  0.00  0.00    +0.000 HD
ENDBRANCH  12  39
TORSDOF 7
ENDMDL
