
 OpenBabel01112422233D

 71 78  0  0  1  0  0  0  0  0999 V2000
    4.6534   -2.0042   -0.4060 C   0  0  0  0  0  0  0  0  0  0  0  0
    4.3277   -0.7424   -1.1965 C   0  0  0  0  0  0  0  0  0  0  0  0
    3.6496    0.3487   -0.3324 N   0  3  0  0  0  0  0  0  0  0  0  0
    3.4148    1.5711   -1.2344 C   0  0  0  0  0  0  0  0  0  0  0  0
    4.6349    0.8147    0.7588 C   0  0  0  0  0  0  0  0  0  0  0  0
    2.3379   -0.2090    0.3321 C   0  0  1  0  0  0  0  0  0  0  0  0
    1.6127    0.8504    1.1119 C   0  0  0  0  0  0  0  0  0  0  0  0
    0.5139    0.1949    1.9375 C   0  0  2  0  0  0  0  0  0  0  0  0
    0.2540   -1.1671    1.6294 O   0  0  0  0  0  0  0  0  0  0  0  0
    0.1322   -1.5328    0.2435 C   0  0  2  0  0  0  0  0  0  0  0  0
    0.2792   -3.0717    0.3728 C   0  0  0  0  0  0  0  0  0  0  0  0
    1.3524   -0.9766   -0.6035 C   0  0  1  0  0  0  0  0  0  0  0  0
    1.1694   -0.3958   -1.9003 O   0  0  0  0  0  0  0  0  0  0  0  0
    0.2510    0.6581   -2.1372 C   0  0  0  0  0  0  0  0  0  0  0  0
   -1.1905   -1.1794   -0.2238 N   0  0  0  0  0  0  0  0  0  0  0  0
   -1.9074   -1.6619   -1.3551 C   0  0  0  0  0  0  0  0  0  0  0  0
   -1.6333   -2.7321   -2.2281 C   0  0  0  0  0  0  0  0  0  0  0  0
   -2.3060   -2.8203   -3.4506 C   0  0  0  0  0  0  0  0  0  0  0  0
   -3.2468   -1.8712   -3.8182 C   0  0  0  0  0  0  0  0  0  0  0  0
   -3.6610   -0.9012   -2.9022 C   0  0  0  0  0  0  0  0  0  0  0  0
   -3.0525   -0.8206   -1.6272 C   0  0  0  0  0  0  0  0  0  0  0  0
   -3.2241   -0.0027   -0.5016 C   0  0  0  0  0  0  0  0  0  0  0  0
   -4.3377    0.8037   -0.1951 C   0  0  0  0  0  0  0  0  0  0  0  0
   -4.0165    1.8800    0.6772 C   0  0  0  0  0  0  0  0  0  0  0  0
   -2.6671    1.8855    1.0474 C   0  0  0  0  0  0  0  0  0  0  0  0
   -1.8634    2.9523    1.5160 C   0  0  0  0  0  0  0  0  0  0  0  0
   -1.8049    4.3511    1.3414 C   0  0  0  0  0  0  0  0  0  0  0  0
   -0.7591    5.0806    1.9300 C   0  0  0  0  0  0  0  0  0  0  0  0
    0.1222    4.4750    2.8192 C   0  0  0  0  0  0  0  0  0  0  0  0
    0.1062    3.0971    3.0053 C   0  0  0  0  0  0  0  0  0  0  0  0
   -0.7663    2.3376    2.2084 C   0  0  0  0  0  0  0  0  0  0  0  0
   -0.6799    0.9775    1.8604 N   0  0  0  0  0  0  0  0  0  0  0  0
   -1.7612    0.8346    1.0793 C   0  0  0  0  0  0  0  0  0  0  0  0
   -2.0185   -0.1785    0.1780 C   0  0  0  0  0  0  0  0  0  0  0  0
   -5.1021    2.0627    1.6161 C   0  0  0  0  0  0  0  0  0  0  0  0
   -5.2047    2.7215    2.6427 O   0  0  0  0  0  0  0  0  0  0  0  0
   -6.0265    1.0800    1.2572 N   0  0  0  0  0  0  0  0  0  0  0  0
   -5.6717    0.2481    0.1149 C   0  0  0  0  0  0  0  0  0  0  0  0
    5.3354   -1.8011    0.4235 H   0  0  0  0  0  0  0  0  0  0  0  0
    5.1373   -2.7311   -1.0643 H   0  0  0  0  0  0  0  0  0  0  0  0
    3.7678   -2.4970    0.0038 H   0  0  0  0  0  0  0  0  0  0  0  0
    3.6632   -0.9644   -2.0370 H   0  0  0  0  0  0  0  0  0  0  0  0
    5.2467   -0.3052   -1.6019 H   0  0  0  0  0  0  0  0  0  0  0  0
    4.3877    1.9160   -1.5971 H   0  0  0  0  0  0  0  0  0  0  0  0
    2.8079    1.2873   -2.0877 H   0  0  0  0  0  0  0  0  0  0  0  0
    2.9418    2.3671   -0.6529 H   0  0  0  0  0  0  0  0  0  0  0  0
    5.6204    0.9418    0.3040 H   0  0  0  0  0  0  0  0  0  0  0  0
    4.6633    0.0646    1.5532 H   0  0  0  0  0  0  0  0  0  0  0  0
    4.2922    1.7725    1.1605 H   0  0  0  0  0  0  0  0  0  0  0  0
    2.7077   -0.9318    1.0699 H   0  0  0  0  0  0  0  0  0  0  0  0
    1.2024    1.6085    0.4367 H   0  0  0  0  0  0  0  0  0  0  0  0
    2.2662    1.4015    1.7938 H   0  0  0  0  0  0  0  0  0  0  0  0
    0.8124    0.1941    2.9908 H   0  0  0  0  0  0  0  0  0  0  0  0
   -0.6344   -3.5256    0.7764 H   0  0  0  0  0  0  0  0  0  0  0  0
    1.0883   -3.3292    1.0712 H   0  0  0  0  0  0  0  0  0  0  0  0
    0.5206   -3.5616   -0.5731 H   0  0  0  0  0  0  0  0  0  0  0  0
    1.9040   -1.8752   -0.8859 H   0  0  0  0  0  0  0  0  0  0  0  0
   -0.0668    1.1760   -1.2369 H   0  0  0  0  0  0  0  0  0  0  0  0
   -0.6026    0.2824   -2.7036 H   0  0  0  0  0  0  0  0  0  0  0  0
    0.7319    1.3910   -2.7927 H   0  0  0  0  0  0  0  0  0  0  0  0
   -0.8952   -3.4909   -2.0066 H   0  0  0  0  0  0  0  0  0  0  0  0
   -2.0599   -3.6285   -4.1379 H   0  0  0  0  0  0  0  0  0  0  0  0
   -3.6747   -1.8950   -4.8185 H   0  0  0  0  0  0  0  0  0  0  0  0
   -4.3969   -0.1600   -3.2094 H   0  0  0  0  0  0  0  0  0  0  0  0
   -2.4739    4.8449    0.6413 H   0  0  0  0  0  0  0  0  0  0  0  0
   -0.6409    6.1376    1.7010 H   0  0  0  0  0  0  0  0  0  0  0  0
    0.8552    5.0765    3.3517 H   0  0  0  0  0  0  0  0  0  0  0  0
    0.8074    2.6271    3.6889 H   0  0  0  0  0  0  0  0  0  0  0  0
   -6.6402    0.7536    1.9932 H   0  0  0  0  0  0  0  0  0  0  0  0
   -5.5994   -0.7946    0.4463 H   0  0  0  0  0  0  0  0  0  0  0  0
   -6.4063    0.3772   -0.6768 H   0  0  0  0  0  0  0  0  0  0  0  0
  1  2  1  0  0  0  0
  1 39  1  0  0  0  0
  1 40  1  0  0  0  0
  1 41  1  0  0  0  0
  2  3  1  0  0  0  0
  2 42  1  0  0  0  0
  2 43  1  0  0  0  0
  3  4  1  0  0  0  0
  3  5  1  0  0  0  0
  3  6  1  0  0  0  0
  4 44  1  0  0  0  0
  4 45  1  0  0  0  0
  4 46  1  0  0  0  0
  5 47  1  0  0  0  0
  5 48  1  0  0  0  0
  5 49  1  0  0  0  0
  6  7  1  0  0  0  0
  6 12  1  0  0  0  0
  6 50  1  1  0  0  0
  7  8  1  0  0  0  0
  7 51  1  0  0  0  0
  7 52  1  0  0  0  0
  8  9  1  0  0  0  0
  8 32  1  0  0  0  0
  8 53  1  1  0  0  0
  9 10  1  0  0  0  0
 10 11  1  6  0  0  0
 10 12  1  0  0  0  0
 10 15  1  0  0  0  0
 11 54  1  0  0  0  0
 11 55  1  0  0  0  0
 11 56  1  0  0  0  0
 12 13  1  0  0  0  0
 12 57  1  6  0  0  0
 13 14  1  0  0  0  0
 14 58  1  0  0  0  0
 14 59  1  0  0  0  0
 14 60  1  0  0  0  0
 15 16  1  0  0  0  0
 15 34  1  0  0  0  0
 16 17  1  0  0  0  0
 16 21  2  0  0  0  0
 17 18  2  0  0  0  0
 17 61  1  0  0  0  0
 18 19  1  0  0  0  0
 18 62  1  0  0  0  0
 19 20  2  0  0  0  0
 19 63  1  0  0  0  0
 20 21  1  0  0  0  0
 20 64  1  0  0  0  0
 21 22  1  0  0  0  0
 22 23  1  0  0  0  0
 22 34  2  0  0  0  0
 23 24  2  0  0  0  0
 23 38  1  0  0  0  0
 24 25  1  0  0  0  0
 24 35  1  0  0  0  0
 25 26  1  0  0  0  0
 25 33  2  0  0  0  0
 26 27  1  0  0  0  0
 26 31  2  0  0  0  0
 27 28  2  0  0  0  0
 27 65  1  0  0  0  0
 28 29  1  0  0  0  0
 28 66  1  0  0  0  0
 29 30  2  0  0  0  0
 29 67  1  0  0  0  0
 30 31  1  0  0  0  0
 30 68  1  0  0  0  0
 31 32  1  0  0  0  0
 32 33  1  0  0  0  0
 33 34  1  0  0  0  0
 35 36  2  0  0  0  0
 35 37  1  0  0  0  0
 37 38  1  0  0  0  0
 37 69  1  0  0  0  0
 38 70  1  0  0  0  0
 38 71  1  0  0  0  0
M  CHG  1   3   1
M  END
$$$$
