REMARK  Name = 
REMARK  5 active torsions:
REMARK  status: ('A' for Active; 'I' for Inactive)
REMARK    1  A    between atoms: C_2  and  C_4
REMARK    2  A    between atoms: C_4  and  O_7
REMARK    3  A    between atoms: O_7  and  C_8
REMARK    4  A    between atoms: C_12  and  N_13
REMARK    5  A    between atoms: C_18  and  C_19
REMARK                            x       y       z     vdW  Elec       q    Type
REMARK                         _______ _______ _______ _____ _____    ______ ____
ROOT
ATOM      1  N   UNL     1       1.054   2.214   0.107  0.00  0.00    +0.000 N 
ATOM      2  C   UNL     1       2.096   1.414   0.576  0.00  0.00    +0.000 A 
ATOM      3  N   UNL     1       2.908   1.962   1.494  0.00  0.00    +0.000 NA
ATOM      4  C   UNL     1       3.838   1.160   2.057  0.00  0.00    +0.000 A 
ATOM      5  C   UNL     1       3.987  -0.171   1.755  0.00  0.00    +0.000 A 
ATOM      6  C   UNL     1       3.130  -0.630   0.792  0.00  0.00    +0.000 A 
ATOM      7  N   UNL     1       2.211   0.144   0.186  0.00  0.00    +0.000 NA
ATOM      8  H   UNL     1       1.046   3.069   0.645  0.00  0.00    +0.000 HD
ATOM      9  H   UNL     1       4.456   1.632   2.814  0.00  0.00    +0.000 HD
ATOM     10  H   UNL     1       4.696  -0.808   2.262  0.00  0.00    +0.000 HD
ENDROOT
BRANCH   6  11
ATOM     11  C   UNL     1       2.987  -2.040   0.486  0.00  0.00    +0.000 A 
ATOM     12  C   UNL     1       3.083  -2.545  -0.797  0.00  0.00    +0.000 A 
ATOM     13  N   UNL     1       2.584  -3.821  -0.773  0.00  0.00    +0.000 N 
ATOM     14  C   UNL     1       1.846  -3.987   0.377  0.00  0.00    +0.000 A 
ATOM     15  C   UNL     1       0.818  -4.884   0.685  0.00  0.00    +0.000 A 
ATOM     16  C   UNL     1       0.263  -4.805   1.965  0.00  0.00    +0.000 A 
ATOM     17  C   UNL     1       0.782  -3.937   2.925  0.00  0.00    +0.000 A 
ATOM     18  C   UNL     1       1.789  -3.027   2.590  0.00  0.00    +0.000 A 
ATOM     19  C   UNL     1       2.268  -3.000   1.265  0.00  0.00    +0.000 A 
ATOM     20  H   UNL     1       3.408  -2.093  -1.725  0.00  0.00    +0.000 HD
ATOM     21  H   UNL     1       2.591  -4.467  -1.550  0.00  0.00    +0.000 HD
ATOM     22  H   UNL     1       0.411  -5.558  -0.061  0.00  0.00    +0.000 HD
ATOM     23  H   UNL     1      -0.594  -5.425   2.216  0.00  0.00    +0.000 HD
ATOM     24  H   UNL     1       0.365  -3.924   3.928  0.00  0.00    +0.000 HD
ATOM     25  H   UNL     1       2.140  -2.308   3.324  0.00  0.00    +0.000 HD
ENDBRANCH   6  11
BRANCH   1  30
ATOM     26  C   UNL     1      -2.410   2.544  -1.233  0.00  0.00    +0.000 A 
ATOM     27  C   UNL     1      -2.600   1.313  -1.850  0.00  0.00    +0.000 A 
ATOM     28  C   UNL     1      -1.566   0.373  -1.836  0.00  0.00    +0.000 A 
ATOM     29  C   UNL     1      -0.355   0.661  -1.203  0.00  0.00    +0.000 A 
ATOM     30  C   UNL     1      -0.145   1.876  -0.547  0.00  0.00    +0.000 A 
ATOM     31  C   UNL     1      -1.186   2.816  -0.591  0.00  0.00    +0.000 A 
ATOM     32  H   UNL     1      -3.521   1.042  -2.346  0.00  0.00    +0.000 HD
ATOM     33  H   UNL     1      -1.702  -0.587  -2.326  0.00  0.00    +0.000 HD
ATOM     34  H   UNL     1       0.414  -0.105  -1.238  0.00  0.00    +0.000 HD
ATOM     35  H   UNL     1      -1.059   3.782  -0.108  0.00  0.00    +0.000 HD
BRANCH  26  36
ATOM     36  O   UNL     1      -3.323   3.554  -1.164  0.00  0.00    +0.000 OA
BRANCH  36  37
ATOM     37  C   UNL     1      -4.564   3.402  -1.860  0.00  0.00    +0.000 C 
ATOM     38  F   UNL     1      -5.227   2.324  -1.368  0.00  0.00    +0.000 F 
ATOM     39  F   UNL     1      -4.302   3.166  -3.175  0.00  0.00    +0.000 F 
BRANCH  37  41
ATOM     40  F   UNL     1      -6.584   4.552  -2.412  0.00  0.00    +0.000 F 
ATOM     41  C   UNL     1      -5.411   4.668  -1.732  0.00  0.00    +0.000 C 
ATOM     42  F   UNL     1      -5.746   4.912  -0.436  0.00  0.00    +0.000 F 
ATOM     43  H   UNL     1      -4.877   5.542  -2.116  0.00  0.00    +0.000 HD
ENDBRANCH  37  41
ENDBRANCH  36  37
ENDBRANCH  26  36
ENDBRANCH   1  30
TORSDOF 5
