REMARK  Name = 
REMARK  5 active torsions:
REMARK  status: ('A' for Active; 'I' for Inactive)
REMARK    1  A    between atoms: C_2  and  C_3
REMARK    2  A    between atoms: C_12  and  O_13
REMARK    3  A    between atoms: C_14  and  O_15
REMARK    4  A    between atoms: C_21  and  O_22
REMARK    5  A    between atoms: C_23  and  O_24
REMARK                            x       y       z     vdW  Elec       q    Type
REMARK                         _______ _______ _______ _____ _____    ______ ____
ROOT
ATOM      1  O   UNL     1      -0.604   1.468   2.325  0.00  0.00    +0.000 OA
ATOM      2  C   UNL     1      -0.703   0.666   1.399  0.00  0.00    +0.000 C 
ATOM      3  N   UNL     1       0.419   0.423   0.587  0.00  0.00    +0.000 N 
ATOM      4  C   UNL     1       0.701  -0.769  -0.066  0.00  0.00    +0.000 A 
ATOM      5  C   UNL     1       0.221  -2.078   0.048  0.00  0.00    +0.000 A 
ATOM      6  C   UNL     1       0.157  -2.763  -1.160  0.00  0.00    +0.000 A 
ATOM      7  C   UNL     1       0.604  -2.179  -2.347  0.00  0.00    +0.000 A 
ATOM      8  C   UNL     1       1.423  -1.051  -2.325  0.00  0.00    +0.000 A 
ATOM      9  C   UNL     1       1.547  -0.395  -1.093  0.00  0.00    +0.000 A 
ATOM     10  C   UNL     1       2.348   0.596  -0.470  0.00  0.00    +0.000 A 
ATOM     11  C   UNL     1       3.687   1.019  -0.487  0.00  0.00    +0.000 A 
ATOM     12  C   UNL     1       4.016   2.244   0.121  0.00  0.00    +0.000 A 
ATOM     13  C   UNL     1       2.984   3.103   0.502  0.00  0.00    +0.000 A 
ATOM     14  C   UNL     1       1.664   2.671   0.547  0.00  0.00    +0.000 A 
ATOM     15  C   UNL     1       1.434   1.315   0.295  0.00  0.00    +0.000 A 
ATOM     16  H   UNL     1      -0.243  -2.452   0.955  0.00  0.00    +0.000 HD
ATOM     17  H   UNL     1       1.815  -0.621  -3.244  0.00  0.00    +0.000 HD
ATOM     18  H   UNL     1       4.466   0.361  -0.857  0.00  0.00    +0.000 HD
ATOM     19  H   UNL     1       5.048   2.515   0.245  0.00  0.00    +0.000 HD
ENDROOT
BRANCH   2  20
ATOM     20  C   UNL     1      -2.058   0.046   1.156  0.00  0.00    +0.000 A 
ATOM     21  C   UNL     1      -3.018   0.112   2.180  0.00  0.00    +0.000 A 
ATOM     22  C   UNL     1      -4.280  -0.448   1.992  0.00  0.00    +0.000 A 
ATOM     23  C   UNL     1      -4.599  -1.098   0.810  0.00  0.00    +0.000 A 
ATOM     24  C   UNL     1      -3.671  -1.146  -0.227  0.00  0.00    +0.000 A 
ATOM     25  C   UNL     1      -2.426  -0.541  -0.065  0.00  0.00    +0.000 A 
ATOM     26  H   UNL     1      -2.771   0.604   3.119  0.00  0.00    +0.000 HD
ATOM     27  H   UNL     1      -5.016  -0.368   2.794  0.00  0.00    +0.000 HD
ATOM     28  H   UNL     1      -5.591  -1.508   0.667  0.00  0.00    +0.000 HD
ATOM     29  H   UNL     1      -3.919  -1.642  -1.162  0.00  0.00    +0.000 HD
ATOM     30  H   UNL     1      -1.758  -0.553  -0.918  0.00  0.00    +0.000 HD
ENDBRANCH   2  20
BRANCH   6  31
ATOM     31  O   UNL     1      -0.449  -3.983  -1.243  0.00  0.00    +0.000 OA
ATOM     32  H   UNL     1      -0.351  -4.406  -0.370  0.00  0.00    +0.000 HD
ENDBRANCH   6  31
BRANCH   7  33
ATOM     33  O   UNL     1       0.205  -2.705  -3.543  0.00  0.00    +0.000 OA
ATOM     34  H   UNL     1      -0.451  -3.391  -3.300  0.00  0.00    +0.000 HD
ENDBRANCH   7  33
BRANCH  13  35
ATOM     35  O   UNL     1       3.237   4.404   0.833  0.00  0.00    +0.000 OA
ATOM     36  H   UNL     1       4.199   4.546   0.806  0.00  0.00    +0.000 HD
ENDBRANCH  13  35
BRANCH  14  37
ATOM     37  O   UNL     1       0.648   3.564   0.750  0.00  0.00    +0.000 OA
ATOM     38  H   UNL     1       1.083   4.439   0.747  0.00  0.00    +0.000 HD
ENDBRANCH  14  37
TORSDOF 5
