MODEL 1
REMARK VINA RESULT:    -9.587      0.000      0.000
REMARK INTER + INTRA:         -13.871
REMARK INTER:                 -13.511
REMARK INTRA:                  -0.361
REMARK UNBOUND:                -0.361
REMARK  Name = 
REMARK  8 active torsions:
REMARK  status: ('A' for Active; 'I' for Inactive)
REMARK    1  A    between atoms: C_1  and  N_2
REMARK    2  A    between atoms: C_12  and  C_13
REMARK    3  A    between atoms: C_13  and  C_14
REMARK    4  A    between atoms: C_14  and  C_15
REMARK    5  A    between atoms: C_15  and  N_16
REMARK    6  A    between atoms: N_16  and  C_17
REMARK    7  A    between atoms: C_17  and  C_18
REMARK    8  A    between atoms: C_18  and  O_19
REMARK                            x       y       z     vdW  Elec       q    Type
REMARK                         _______ _______ _______ _____ _____    ______ ____
ROOT
ATOM      1  N   UNL     1     -11.985  -0.787  15.993  0.00  0.00    +0.000 N 
ATOM      2  C   UNL     1     -12.296  -0.255  14.753  0.00  0.00    +0.000 A 
ATOM      3  C   UNL     1     -11.769  -1.075  13.805  0.00  0.00    +0.000 A 
ATOM      4  C   UNL     1     -11.628  -2.317  14.453  0.00  0.00    +0.000 A 
ATOM      5  C   UNL     1     -11.523  -3.590  13.876  0.00  0.00    +0.000 A 
ATOM      6  C   UNL     1     -11.305  -4.684  14.671  0.00  0.00    +0.000 A 
ATOM      7  C   UNL     1     -10.925  -4.435  15.979  0.00  0.00    +0.000 A 
ATOM      8  C   UNL     1     -10.257  -5.489  16.591  0.00  0.00    +0.000 A 
ATOM      9  N   UNL     1     -10.242  -6.835  16.373  0.00  0.00    +0.000 N 
ATOM     10  C   UNL     1      -9.626  -7.489  17.429  0.00  0.00    +0.000 A 
ATOM     11  C   UNL     1      -9.626  -8.855  17.709  0.00  0.00    +0.000 A 
ATOM     12  C   UNL     1      -8.992  -9.236  18.904  0.00  0.00    +0.000 A 
ATOM     13  C   UNL     1      -8.347  -8.304  19.715  0.00  0.00    +0.000 A 
ATOM     14  C   UNL     1      -8.327  -6.950  19.385  0.00  0.00    +0.000 A 
ATOM     15  C   UNL     1      -9.017  -6.519  18.234  0.00  0.00    +0.000 A 
ATOM     16  C   UNL     1      -9.401  -5.318  17.630  0.00  0.00    +0.000 A 
ATOM     17  C   UNL     1      -9.356  -4.060  18.289  0.00  0.00    +0.000 A 
ATOM     18  C   UNL     1     -10.490  -3.229  17.967  0.00  0.00    +0.000 A 
ATOM     19  C   UNL     1     -11.057  -3.190  16.670  0.00  0.00    +0.000 A 
ATOM     20  C   UNL     1     -11.571  -2.113  15.868  0.00  0.00    +0.000 A 
ATOM     21  C   UNL     1     -11.040  -3.023  19.297  0.00  0.00    +0.000 C 
ATOM     22  O   UNL     1     -12.197  -3.023  19.706  0.00  0.00    +0.000 OA
ATOM     23  N   UNL     1      -9.977  -3.165  20.145  0.00  0.00    +0.000 N 
ATOM     24  C   UNL     1      -8.849  -3.752  19.575  0.00  0.00    +0.000 C 
ATOM     25  O   UNL     1      -7.800  -3.939  20.155  0.00  0.00    +0.000 OA
ATOM     26  H   UNL     1     -12.812   0.690  14.639  0.00  0.00    +0.000 HD
ATOM     27  H   UNL     1     -11.697  -0.888  12.742  0.00  0.00    +0.000 HD
ATOM     28  H   UNL     1     -11.613  -3.709  12.802  0.00  0.00    +0.000 HD
ATOM     29  H   UNL     1     -11.251  -5.663  14.206  0.00  0.00    +0.000 HD
ATOM     30  H   UNL     1     -10.825  -7.302  15.691  0.00  0.00    +0.000 HD
ATOM     31  H   UNL     1      -8.999 -10.281  19.212  0.00  0.00    +0.000 HD
ATOM     32  H   UNL     1      -7.865  -8.630  20.633  0.00  0.00    +0.000 HD
ATOM     33  H   UNL     1      -7.819  -6.253  20.044  0.00  0.00    +0.000 HD
ATOM     34  H   UNL     1     -10.084  -3.335  21.134  0.00  0.00    +0.000 HD
ENDROOT
BRANCH   1  35
ATOM     35  C   UNL     1     -12.185   0.039  17.163  0.00  0.00    +0.000 C 
ATOM     36  H   UNL     1     -12.335  -0.608  18.028  0.00  0.00    +0.000 HD
ATOM     37  H   UNL     1     -13.002   0.737  16.993  0.00  0.00    +0.000 HD
ATOM     38  H   UNL     1     -11.265   0.620  17.335  0.00  0.00    +0.000 HD
ENDBRANCH   1  35
BRANCH  11  39
ATOM     39  C   UNL     1     -10.301  -9.871  16.818  0.00  0.00    +0.000 C 
ATOM     40  H   UNL     1     -10.507  -9.395  15.851  0.00  0.00    +0.000 HD
ATOM     41  H   UNL     1     -11.273 -10.159  17.236  0.00  0.00    +0.000 HD
BRANCH  39  42
ATOM     42  C   UNL     1      -9.448 -11.125  16.586  0.00  0.00    +0.000 C 
ATOM     43  H   UNL     1     -10.078 -12.021  16.547  0.00  0.00    +0.000 HD
ATOM     44  H   UNL     1      -8.790 -11.264  17.453  0.00  0.00    +0.000 HD
BRANCH  42  45
ATOM     45  C   UNL     1      -8.611 -11.040  15.308  0.00  0.00    +0.000 C 
ATOM     46  H   UNL     1      -7.780 -10.344  15.471  0.00  0.00    +0.000 HD
ATOM     47  H   UNL     1      -9.216 -10.663  14.476  0.00  0.00    +0.000 HD
BRANCH  45  48
ATOM     48  N   UNL     1      -8.115 -12.377  14.975  0.00  0.00    +0.000 NA
ATOM     49  H   UNL     1      -7.098 -12.321  14.916  0.00  0.00    +0.000 HD
BRANCH  48  50
ATOM     50  C   UNL     1      -8.451 -13.322  16.053  0.00  0.00    +0.000 C 
ATOM     51  H   UNL     1      -9.294 -12.944  16.641  0.00  0.00    +0.000 HD
ATOM     52  H   UNL     1      -7.585 -13.437  16.715  0.00  0.00    +0.000 HD
BRANCH  50  53
ATOM     53  C   UNL     1      -8.822 -14.689  15.473  0.00  0.00    +0.000 C 
ATOM     54  H   UNL     1      -7.997 -15.113  14.889  0.00  0.00    +0.000 HD
ATOM     55  H   UNL     1      -9.691 -14.593  14.815  0.00  0.00    +0.000 HD
BRANCH  53  56
ATOM     56  O   UNL     1      -9.157 -15.603  16.515  0.00  0.00    +0.000 OA
ATOM     57  H   UNL     1      -8.327 -16.047  16.754  0.00  0.00    +0.000 HD
ENDBRANCH  53  56
ENDBRANCH  50  53
ENDBRANCH  48  50
ENDBRANCH  45  48
ENDBRANCH  42  45
ENDBRANCH  39  42
ENDBRANCH  11  39
TORSDOF 8
ENDMDL
MODEL 2
REMARK VINA RESULT:    -9.526      2.921      7.013
REMARK INTER + INTRA:         -13.785
REMARK INTER:                 -13.298
REMARK INTRA:                  -0.487
REMARK UNBOUND:                -0.361
REMARK  Name = 
REMARK  8 active torsions:
REMARK  status: ('A' for Active; 'I' for Inactive)
REMARK    1  A    between atoms: C_1  and  N_2
REMARK    2  A    between atoms: C_12  and  C_13
REMARK    3  A    between atoms: C_13  and  C_14
REMARK    4  A    between atoms: C_14  and  C_15
REMARK    5  A    between atoms: C_15  and  N_16
REMARK    6  A    between atoms: N_16  and  C_17
REMARK    7  A    between atoms: C_17  and  C_18
REMARK    8  A    between atoms: C_18  and  O_19
REMARK                            x       y       z     vdW  Elec       q    Type
REMARK                         _______ _______ _______ _____ _____    ______ ____
ROOT
ATOM      1  N   UNL     1      -8.589  -9.085  19.028  0.00  0.00    +0.000 N 
ATOM      2  C   UNL     1      -8.503 -10.449  18.802  0.00  0.00    +0.000 A 
ATOM      3  C   UNL     1      -9.295 -10.744  17.736  0.00  0.00    +0.000 A 
ATOM      4  C   UNL     1      -9.407  -9.528  17.034  0.00  0.00    +0.000 A 
ATOM      5  C   UNL     1      -9.751  -9.331  15.690  0.00  0.00    +0.000 A 
ATOM      6  C   UNL     1      -9.893  -8.059  15.200  0.00  0.00    +0.000 A 
ATOM      7  C   UNL     1      -9.958  -7.039  16.134  0.00  0.00    +0.000 A 
ATOM      8  C   UNL     1     -10.573  -5.881  15.674  0.00  0.00    +0.000 A 
ATOM      9  N   UNL     1     -10.759  -5.356  14.429  0.00  0.00    +0.000 N 
ATOM     10  C   UNL     1     -11.191  -4.042  14.519  0.00  0.00    +0.000 A 
ATOM     11  C   UNL     1     -11.258  -3.089  13.502  0.00  0.00    +0.000 A 
ATOM     12  C   UNL     1     -11.653  -1.800  13.895  0.00  0.00    +0.000 A 
ATOM     13  C   UNL     1     -12.020  -1.519  15.210  0.00  0.00    +0.000 A 
ATOM     14  C   UNL     1     -11.985  -2.505  16.196  0.00  0.00    +0.000 A 
ATOM     15  C   UNL     1     -11.522  -3.792  15.856  0.00  0.00    +0.000 A 
ATOM     16  C   UNL     1     -11.167  -4.981  16.499  0.00  0.00    +0.000 A 
ATOM     17  C   UNL     1     -10.954  -5.082  17.900  0.00  0.00    +0.000 A 
ATOM     18  C   UNL     1      -9.844  -5.943  18.228  0.00  0.00    +0.000 A 
ATOM     19  C   UNL     1      -9.567  -7.130  17.508  0.00  0.00    +0.000 A 
ATOM     20  C   UNL     1      -9.140  -8.439  17.922  0.00  0.00    +0.000 A 
ATOM     21  C   UNL     1      -9.004  -5.008  18.959  0.00  0.00    +0.000 C 
ATOM     22  O   UNL     1      -7.792  -4.821  18.943  0.00  0.00    +0.000 OA
ATOM     23  N   UNL     1      -9.869  -4.076  19.463  0.00  0.00    +0.000 N 
ATOM     24  C   UNL     1     -11.143  -4.094  18.898  0.00  0.00    +0.000 C 
ATOM     25  O   UNL     1     -12.056  -3.366  19.227  0.00  0.00    +0.000 OA
ATOM     26  H   UNL     1      -7.939 -11.111  19.446  0.00  0.00    +0.000 HD
ATOM     27  H   UNL     1      -9.575 -11.725  17.378  0.00  0.00    +0.000 HD
ATOM     28  H   UNL     1      -9.904 -10.183  15.037  0.00  0.00    +0.000 HD
ATOM     29  H   UNL     1     -10.135  -7.930  14.151  0.00  0.00    +0.000 HD
ATOM     30  H   UNL     1     -10.381  -5.764  13.584  0.00  0.00    +0.000 HD
ATOM     31  H   UNL     1     -11.676  -0.993  13.163  0.00  0.00    +0.000 HD
ATOM     32  H   UNL     1     -12.322  -0.511  15.483  0.00  0.00    +0.000 HD
ATOM     33  H   UNL     1     -12.274  -2.247  17.210  0.00  0.00    +0.000 HD
ATOM     34  H   UNL     1      -9.569  -3.170  19.792  0.00  0.00    +0.000 HD
ENDROOT
BRANCH   1  35
ATOM     35  C   UNL     1      -8.067  -8.563  20.270  0.00  0.00    +0.000 C 
ATOM     36  H   UNL     1      -8.455  -7.555  20.418  0.00  0.00    +0.000 HD
ATOM     37  H   UNL     1      -6.981  -8.617  20.273  0.00  0.00    +0.000 HD
ATOM     38  H   UNL     1      -8.446  -9.191  21.093  0.00  0.00    +0.000 HD
ENDBRANCH   1  35
BRANCH  11  39
ATOM     39  C   UNL     1     -10.886  -3.397  12.070  0.00  0.00    +0.000 C 
ATOM     40  H   UNL     1     -10.359  -4.359  12.053  0.00  0.00    +0.000 HD
ATOM     41  H   UNL     1     -10.179  -2.649  11.691  0.00  0.00    +0.000 HD
BRANCH  39  42
ATOM     42  C   UNL     1     -12.102  -3.476  11.140  0.00  0.00    +0.000 C 
ATOM     43  H   UNL     1     -12.407  -2.476  10.813  0.00  0.00    +0.000 HD
ATOM     44  H   UNL     1     -12.952  -3.872  11.710  0.00  0.00    +0.000 HD
BRANCH  42  45
ATOM     45  C   UNL     1     -11.848  -4.353   9.912  0.00  0.00    +0.000 C 
ATOM     46  H   UNL     1     -11.283  -3.777   9.172  0.00  0.00    +0.000 HD
ATOM     47  H   UNL     1     -12.796  -4.662   9.457  0.00  0.00    +0.000 HD
BRANCH  45  48
ATOM     48  N   UNL     1     -11.104  -5.546  10.325  0.00  0.00    +0.000 NA
ATOM     49  H   UNL     1     -11.506  -5.869  11.206  0.00  0.00    +0.000 HD
BRANCH  48  50
ATOM     50  C   UNL     1     -11.280  -6.618   9.332  0.00  0.00    +0.000 C 
ATOM     51  H   UNL     1     -11.149  -6.224   8.319  0.00  0.00    +0.000 HD
ATOM     52  H   UNL     1     -12.292  -7.031   9.421  0.00  0.00    +0.000 HD
BRANCH  50  53
ATOM     53  C   UNL     1     -10.261  -7.737   9.565  0.00  0.00    +0.000 C 
ATOM     54  H   UNL     1      -9.504  -7.760   8.772  0.00  0.00    +0.000 HD
ATOM     55  H   UNL     1     -10.767  -8.707   9.582  0.00  0.00    +0.000 HD
BRANCH  53  56
ATOM     56  O   UNL     1      -9.601  -7.563  10.817  0.00  0.00    +0.000 OA
ATOM     57  H   UNL     1     -10.270  -7.749  11.496  0.00  0.00    +0.000 HD
ENDBRANCH  53  56
ENDBRANCH  50  53
ENDBRANCH  48  50
ENDBRANCH  45  48
ENDBRANCH  42  45
ENDBRANCH  39  42
ENDBRANCH  11  39
TORSDOF 8
ENDMDL
MODEL 3
REMARK VINA RESULT:    -8.842      3.184      5.047
REMARK INTER + INTRA:         -12.821
REMARK INTER:                 -12.530
REMARK INTRA:                  -0.291
REMARK UNBOUND:                -0.361
REMARK  Name = 
REMARK  8 active torsions:
REMARK  status: ('A' for Active; 'I' for Inactive)
REMARK    1  A    between atoms: C_1  and  N_2
REMARK    2  A    between atoms: C_12  and  C_13
REMARK    3  A    between atoms: C_13  and  C_14
REMARK    4  A    between atoms: C_14  and  C_15
REMARK    5  A    between atoms: C_15  and  N_16
REMARK    6  A    between atoms: N_16  and  C_17
REMARK    7  A    between atoms: C_17  and  C_18
REMARK    8  A    between atoms: C_18  and  O_19
REMARK                            x       y       z     vdW  Elec       q    Type
REMARK                         _______ _______ _______ _____ _____    ______ ____
ROOT
ATOM      1  N   UNL     1      -9.846   0.765  23.303  0.00  0.00    +0.000 N 
ATOM      2  C   UNL     1     -10.504   1.950  23.016  0.00  0.00    +0.000 A 
ATOM      3  C   UNL     1     -10.741   1.980  21.678  0.00  0.00    +0.000 A 
ATOM      4  C   UNL     1     -10.712   0.628  21.284  0.00  0.00    +0.000 A 
ATOM      5  C   UNL     1     -11.274   0.045  20.141  0.00  0.00    +0.000 A 
ATOM      6  C   UNL     1     -11.068  -1.284  19.881  0.00  0.00    +0.000 A 
ATOM      7  C   UNL     1     -10.083  -1.916  20.621  0.00  0.00    +0.000 A 
ATOM      8  C   UNL     1      -9.570  -3.064  20.030  0.00  0.00    +0.000 A 
ATOM      9  N   UNL     1     -10.069  -3.942  19.113  0.00  0.00    +0.000 N 
ATOM     10  C   UNL     1      -9.277  -5.078  19.051  0.00  0.00    +0.000 A 
ATOM     11  C   UNL     1      -9.569  -6.295  18.437  0.00  0.00    +0.000 A 
ATOM     12  C   UNL     1      -8.615  -7.313  18.608  0.00  0.00    +0.000 A 
ATOM     13  C   UNL     1      -7.423  -7.086  19.293  0.00  0.00    +0.000 A 
ATOM     14  C   UNL     1      -7.139  -5.844  19.859  0.00  0.00    +0.000 A 
ATOM     15  C   UNL     1      -8.105  -4.820  19.774  0.00  0.00    +0.000 A 
ATOM     16  C   UNL     1      -8.331  -3.546  20.303  0.00  0.00    +0.000 A 
ATOM     17  C   UNL     1      -7.611  -3.016  21.406  0.00  0.00    +0.000 A 
ATOM     18  C   UNL     1      -8.451  -2.258  22.300  0.00  0.00    +0.000 A 
ATOM     19  C   UNL     1      -9.500  -1.429  21.834  0.00  0.00    +0.000 A 
ATOM     20  C   UNL     1      -9.963  -0.129  22.239  0.00  0.00    +0.000 A 
ATOM     21  C   UNL     1      -8.250  -3.003  23.532  0.00  0.00    +0.000 C 
ATOM     22  O   UNL     1      -9.034  -3.352  24.408  0.00  0.00    +0.000 OA
ATOM     23  N   UNL     1      -7.019  -3.584  23.395  0.00  0.00    +0.000 N 
ATOM     24  C   UNL     1      -6.510  -3.579  22.098  0.00  0.00    +0.000 C 
ATOM     25  O   UNL     1      -5.427  -4.022  21.778  0.00  0.00    +0.000 OA
ATOM     26  H   UNL     1     -10.698   2.703  23.769  0.00  0.00    +0.000 HD
ATOM     27  H   UNL     1     -11.104   2.816  21.094  0.00  0.00    +0.000 HD
ATOM     28  H   UNL     1     -11.871   0.644  19.463  0.00  0.00    +0.000 HD
ATOM     29  H   UNL     1     -11.533  -1.721  19.004  0.00  0.00    +0.000 HD
ATOM     30  H   UNL     1     -11.008  -3.895  18.741  0.00  0.00    +0.000 HD
ATOM     31  H   UNL     1      -8.802  -8.306  18.199  0.00  0.00    +0.000 HD
ATOM     32  H   UNL     1      -6.704  -7.893  19.408  0.00  0.00    +0.000 HD
ATOM     33  H   UNL     1      -6.203  -5.706  20.389  0.00  0.00    +0.000 HD
ATOM     34  H   UNL     1      -6.714  -4.362  23.963  0.00  0.00    +0.000 HD
ENDROOT
BRANCH   1  35
ATOM     35  C   UNL     1      -9.233   0.619  24.603  0.00  0.00    +0.000 C 
ATOM     36  H   UNL     1      -8.153   0.545  24.476  0.00  0.00    +0.000 HD
ATOM     37  H   UNL     1      -9.669  -0.227  25.130  0.00  0.00    +0.000 HD
ATOM     38  H   UNL     1      -9.439   1.531  25.185  0.00  0.00    +0.000 HD
ENDBRANCH   1  35
BRANCH  11  39
ATOM     39  C   UNL     1     -10.848  -6.537  17.671  0.00  0.00    +0.000 C 
ATOM     40  H   UNL     1     -11.312  -5.564  17.464  0.00  0.00    +0.000 HD
ATOM     41  H   UNL     1     -11.562  -7.097  18.287  0.00  0.00    +0.000 HD
BRANCH  39  42
ATOM     42  C   UNL     1     -10.623  -7.274  16.345  0.00  0.00    +0.000 C 
ATOM     43  H   UNL     1      -9.582  -7.173  16.017  0.00  0.00    +0.000 HD
ATOM     44  H   UNL     1     -11.226  -6.787  15.568  0.00  0.00    +0.000 HD
BRANCH  42  45
ATOM     45  C   UNL     1     -10.984  -8.758  16.428  0.00  0.00    +0.000 C 
ATOM     46  H   UNL     1     -12.074  -8.864  16.375  0.00  0.00    +0.000 HD
ATOM     47  H   UNL     1     -10.643  -9.185  17.377  0.00  0.00    +0.000 HD
BRANCH  45  48
ATOM     48  N   UNL     1     -10.336  -9.468  15.322  0.00  0.00    +0.000 NA
ATOM     49  H   UNL     1      -9.605  -8.858  14.953  0.00  0.00    +0.000 HD
BRANCH  48  50
ATOM     50  C   UNL     1      -9.690 -10.693  15.820  0.00  0.00    +0.000 C 
ATOM     51  H   UNL     1      -8.777 -10.900  15.250  0.00  0.00    +0.000 HD
ATOM     52  H   UNL     1     -10.378 -11.538  15.702  0.00  0.00    +0.000 HD
BRANCH  50  53
ATOM     53  C   UNL     1      -9.329 -10.545  17.301  0.00  0.00    +0.000 C 
ATOM     54  H   UNL     1     -10.023  -9.872  17.816  0.00  0.00    +0.000 HD
ATOM     55  H   UNL     1      -8.319 -10.137  17.401  0.00  0.00    +0.000 HD
BRANCH  53  56
ATOM     56  O   UNL     1      -9.357 -11.813  17.953  0.00  0.00    +0.000 OA
ATOM     57  H   UNL     1      -8.496 -12.225  17.768  0.00  0.00    +0.000 HD
ENDBRANCH  53  56
ENDBRANCH  50  53
ENDBRANCH  48  50
ENDBRANCH  45  48
ENDBRANCH  42  45
ENDBRANCH  39  42
ENDBRANCH  11  39
TORSDOF 8
ENDMDL
MODEL 4
REMARK VINA RESULT:    -8.669      4.672      9.729
REMARK INTER + INTRA:         -12.577
REMARK INTER:                 -11.294
REMARK INTRA:                  -1.282
REMARK UNBOUND:                -0.361
REMARK  Name = 
REMARK  8 active torsions:
REMARK  status: ('A' for Active; 'I' for Inactive)
REMARK    1  A    between atoms: C_1  and  N_2
REMARK    2  A    between atoms: C_12  and  C_13
REMARK    3  A    between atoms: C_13  and  C_14
REMARK    4  A    between atoms: C_14  and  C_15
REMARK    5  A    between atoms: C_15  and  N_16
REMARK    6  A    between atoms: N_16  and  C_17
REMARK    7  A    between atoms: C_17  and  C_18
REMARK    8  A    between atoms: C_18  and  O_19
REMARK                            x       y       z     vdW  Elec       q    Type
REMARK                         _______ _______ _______ _____ _____    ______ ____
ROOT
ATOM      1  N   UNL     1      -8.064  -5.514  18.895  0.00  0.00    +0.000 N 
ATOM      2  C   UNL     1      -8.714  -5.885  17.730  0.00  0.00    +0.000 A 
ATOM      3  C   UNL     1      -9.897  -5.215  17.683  0.00  0.00    +0.000 A 
ATOM      4  C   UNL     1      -9.699  -4.093  18.510  0.00  0.00    +0.000 A 
ATOM      5  C   UNL     1     -10.406  -2.883  18.516  0.00  0.00    +0.000 A 
ATOM      6  C   UNL     1     -10.123  -1.930  19.458  0.00  0.00    +0.000 A 
ATOM      7  C   UNL     1      -9.339  -2.329  20.528  0.00  0.00    +0.000 A 
ATOM      8  C   UNL     1      -9.473  -1.538  21.662  0.00  0.00    +0.000 A 
ATOM      9  N   UNL     1      -9.865  -0.246  21.856  0.00  0.00    +0.000 N 
ATOM     10  C   UNL     1      -9.567   0.160  23.148  0.00  0.00    +0.000 A 
ATOM     11  C   UNL     1      -9.577   1.456  23.664  0.00  0.00    +0.000 A 
ATOM     12  C   UNL     1      -9.142   1.590  24.993  0.00  0.00    +0.000 A 
ATOM     13  C   UNL     1      -8.791   0.480  25.760  0.00  0.00    +0.000 A 
ATOM     14  C   UNL     1      -8.834  -0.808  25.229  0.00  0.00    +0.000 A 
ATOM     15  C   UNL     1      -9.192  -0.976  23.876  0.00  0.00    +0.000 A 
ATOM     16  C   UNL     1      -9.208  -1.990  22.915  0.00  0.00    +0.000 A 
ATOM     17  C   UNL     1      -8.538  -3.232  23.074  0.00  0.00    +0.000 A 
ATOM     18  C   UNL     1      -7.924  -3.688  21.851  0.00  0.00    +0.000 A 
ATOM     19  C   UNL     1      -8.533  -3.510  20.585  0.00  0.00    +0.000 A 
ATOM     20  C   UNL     1      -8.636  -4.360  19.430  0.00  0.00    +0.000 A 
ATOM     21  C   UNL     1      -6.538  -3.777  22.280  0.00  0.00    +0.000 C 
ATOM     22  O   UNL     1      -5.492  -3.459  21.722  0.00  0.00    +0.000 OA
ATOM     23  N   UNL     1      -6.599  -3.982  23.631  0.00  0.00    +0.000 N 
ATOM     24  C   UNL     1      -7.842  -3.724  24.206  0.00  0.00    +0.000 C 
ATOM     25  O   UNL     1      -8.104  -3.871  25.381  0.00  0.00    +0.000 OA
ATOM     26  H   UNL     1      -8.319  -6.634  17.057  0.00  0.00    +0.000 HD
ATOM     27  H   UNL     1     -10.713  -5.373  16.991  0.00  0.00    +0.000 HD
ATOM     28  H   UNL     1     -11.177  -2.700  17.775  0.00  0.00    +0.000 HD
ATOM     29  H   UNL     1     -10.666  -0.992  19.429  0.00  0.00    +0.000 HD
ATOM     30  H   UNL     1     -10.083   0.395  21.105  0.00  0.00    +0.000 HD
ATOM     31  H   UNL     1      -9.074   2.580  25.444  0.00  0.00    +0.000 HD
ATOM     32  H   UNL     1      -8.460   0.617  26.786  0.00  0.00    +0.000 HD
ATOM     33  H   UNL     1      -8.549  -1.647  25.856  0.00  0.00    +0.000 HD
ATOM     34  H   UNL     1      -5.813  -3.828  24.245  0.00  0.00    +0.000 HD
ENDROOT
BRANCH   1  35
ATOM     35  C   UNL     1      -6.922  -6.292  19.319  0.00  0.00    +0.000 C 
ATOM     36  H   UNL     1      -6.144  -6.216  18.560  0.00  0.00    +0.000 HD
ATOM     37  H   UNL     1      -7.224  -7.315  19.533  0.00  0.00    +0.000 HD
ATOM     38  H   UNL     1      -6.528  -5.847  20.247  0.00  0.00    +0.000 HD
ENDBRANCH   1  35
BRANCH  11  39
ATOM     39  C   UNL     1      -9.982   2.658  22.843  0.00  0.00    +0.000 C 
ATOM     40  H   UNL     1     -10.068   2.343  21.795  0.00  0.00    +0.000 HD
ATOM     41  H   UNL     1      -9.198   3.423  22.874  0.00  0.00    +0.000 HD
BRANCH  39  42
ATOM     42  C   UNL     1     -11.316   3.267  23.292  0.00  0.00    +0.000 C 
ATOM     43  H   UNL     1     -11.216   4.347  23.449  0.00  0.00    +0.000 HD
ATOM     44  H   UNL     1     -11.578   2.849  24.272  0.00  0.00    +0.000 HD
BRANCH  42  45
ATOM     45  C   UNL     1     -12.448   3.004  22.297  0.00  0.00    +0.000 C 
ATOM     46  H   UNL     1     -12.839   3.963  21.939  0.00  0.00    +0.000 HD
ATOM     47  H   UNL     1     -13.266   2.459  22.781  0.00  0.00    +0.000 HD
BRANCH  45  48
ATOM     48  N   UNL     1     -11.928   2.204  21.186  0.00  0.00    +0.000 NA
ATOM     49  H   UNL     1     -11.080   1.740  21.513  0.00  0.00    +0.000 HD
BRANCH  48  50
ATOM     50  C   UNL     1     -12.899   1.159  20.821  0.00  0.00    +0.000 C 
ATOM     51  H   UNL     1     -12.472   0.490  20.066  0.00  0.00    +0.000 HD
ATOM     52  H   UNL     1     -13.798   1.629  20.406  0.00  0.00    +0.000 HD
BRANCH  50  53
ATOM     53  C   UNL     1     -13.288   0.335  22.052  0.00  0.00    +0.000 C 
ATOM     54  H   UNL     1     -14.374   0.331  22.202  0.00  0.00    +0.000 HD
ATOM     55  H   UNL     1     -12.821   0.755  22.947  0.00  0.00    +0.000 HD
BRANCH  53  56
ATOM     56  O   UNL     1     -12.844  -1.013  21.914  0.00  0.00    +0.000 OA
ATOM     57  H   UNL     1     -12.419  -1.239  22.759  0.00  0.00    +0.000 HD
ENDBRANCH  53  56
ENDBRANCH  50  53
ENDBRANCH  48  50
ENDBRANCH  45  48
ENDBRANCH  42  45
ENDBRANCH  39  42
ENDBRANCH  11  39
TORSDOF 8
ENDMDL
MODEL 5
REMARK VINA RESULT:    -8.574      3.936      6.259
REMARK INTER + INTRA:         -12.443
REMARK INTER:                 -11.651
REMARK INTRA:                  -0.792
REMARK UNBOUND:                -0.361
REMARK  Name = 
REMARK  8 active torsions:
REMARK  status: ('A' for Active; 'I' for Inactive)
REMARK    1  A    between atoms: C_1  and  N_2
REMARK    2  A    between atoms: C_12  and  C_13
REMARK    3  A    between atoms: C_13  and  C_14
REMARK    4  A    between atoms: C_14  and  C_15
REMARK    5  A    between atoms: C_15  and  N_16
REMARK    6  A    between atoms: N_16  and  C_17
REMARK    7  A    between atoms: C_17  and  C_18
REMARK    8  A    between atoms: C_18  and  O_19
REMARK                            x       y       z     vdW  Elec       q    Type
REMARK                         _______ _______ _______ _____ _____    ______ ____
ROOT
ATOM      1  N   UNL     1      -9.855   0.851  23.207  0.00  0.00    +0.000 N 
ATOM      2  C   UNL     1     -10.471   2.053  22.900  0.00  0.00    +0.000 A 
ATOM      3  C   UNL     1     -10.677   2.084  21.556  0.00  0.00    +0.000 A 
ATOM      4  C   UNL     1     -10.678   0.729  21.169  0.00  0.00    +0.000 A 
ATOM      5  C   UNL     1     -11.231   0.156  20.017  0.00  0.00    +0.000 A 
ATOM      6  C   UNL     1     -11.058  -1.180  19.767  0.00  0.00    +0.000 A 
ATOM      7  C   UNL     1     -10.109  -1.836  20.533  0.00  0.00    +0.000 A 
ATOM      8  C   UNL     1      -9.616  -3.001  19.958  0.00  0.00    +0.000 A 
ATOM      9  N   UNL     1     -10.119  -3.869  19.034  0.00  0.00    +0.000 N 
ATOM     10  C   UNL     1      -9.359  -5.028  18.996  0.00  0.00    +0.000 A 
ATOM     11  C   UNL     1      -9.672  -6.240  18.381  0.00  0.00    +0.000 A 
ATOM     12  C   UNL     1      -8.753  -7.283  18.578  0.00  0.00    +0.000 A 
ATOM     13  C   UNL     1      -7.570  -7.087  19.290  0.00  0.00    +0.000 A 
ATOM     14  C   UNL     1      -7.264  -5.851  19.857  0.00  0.00    +0.000 A 
ATOM     15  C   UNL     1      -8.197  -4.801  19.744  0.00  0.00    +0.000 A 
ATOM     16  C   UNL     1      -8.398  -3.517  20.262  0.00  0.00    +0.000 A 
ATOM     17  C   UNL     1      -7.688  -3.003  21.379  0.00  0.00    +0.000 A 
ATOM     18  C   UNL     1      -8.526  -2.216  22.250  0.00  0.00    +0.000 A 
ATOM     19  C   UNL     1      -9.540  -1.359  21.756  0.00  0.00    +0.000 A 
ATOM     20  C   UNL     1      -9.973  -0.045  22.145  0.00  0.00    +0.000 A 
ATOM     21  C   UNL     1      -8.374  -2.961  23.489  0.00  0.00    +0.000 C 
ATOM     22  O   UNL     1      -9.189  -3.281  24.350  0.00  0.00    +0.000 OA
ATOM     23  N   UNL     1      -7.159  -3.578  23.384  0.00  0.00    +0.000 N 
ATOM     24  C   UNL     1      -6.620  -3.594  22.099  0.00  0.00    +0.000 C 
ATOM     25  O   UNL     1      -5.543  -4.070  21.806  0.00  0.00    +0.000 OA
ATOM     26  H   UNL     1     -10.661   2.816  23.644  0.00  0.00    +0.000 HD
ATOM     27  H   UNL     1     -11.002   2.926  20.961  0.00  0.00    +0.000 HD
ATOM     28  H   UNL     1     -11.795   0.769  19.322  0.00  0.00    +0.000 HD
ATOM     29  H   UNL     1     -11.515  -1.607  18.882  0.00  0.00    +0.000 HD
ATOM     30  H   UNL     1     -11.048  -3.797  18.641  0.00  0.00    +0.000 HD
ATOM     31  H   UNL     1      -8.959  -8.272  18.170  0.00  0.00    +0.000 HD
ATOM     32  H   UNL     1      -6.878  -7.915  19.425  0.00  0.00    +0.000 HD
ATOM     33  H   UNL     1      -6.336  -5.738  20.407  0.00  0.00    +0.000 HD
ATOM     34  H   UNL     1      -6.889  -4.361  23.962  0.00  0.00    +0.000 HD
ENDROOT
BRANCH   1  35
ATOM     35  C   UNL     1      -9.276   0.694  24.522  0.00  0.00    +0.000 C 
ATOM     36  H   UNL     1      -9.331   1.649  25.046  0.00  0.00    +0.000 HD
ATOM     37  H   UNL     1      -8.266   0.299  24.442  0.00  0.00    +0.000 HD
ATOM     38  H   UNL     1      -9.887  -0.031  25.083  0.00  0.00    +0.000 HD
ENDBRANCH   1  35
BRANCH  11  39
ATOM     39  C   UNL     1     -10.940  -6.448  17.587  0.00  0.00    +0.000 C 
ATOM     40  H   UNL     1     -11.712  -5.783  17.995  0.00  0.00    +0.000 HD
ATOM     41  H   UNL     1     -11.310  -7.472  17.719  0.00  0.00    +0.000 HD
BRANCH  39  42
ATOM     42  C   UNL     1     -10.766  -6.152  16.092  0.00  0.00    +0.000 C 
ATOM     43  H   UNL     1     -11.307  -6.887  15.485  0.00  0.00    +0.000 HD
ATOM     44  H   UNL     1      -9.707  -6.277  15.833  0.00  0.00    +0.000 HD
BRANCH  42  45
ATOM     45  C   UNL     1     -11.230  -4.745  15.712  0.00  0.00    +0.000 C 
ATOM     46  H   UNL     1     -11.926  -4.379  16.475  0.00  0.00    +0.000 HD
ATOM     47  H   UNL     1     -11.752  -4.758  14.748  0.00  0.00    +0.000 HD
BRANCH  45  48
ATOM     48  N   UNL     1     -10.059  -3.870  15.611  0.00  0.00    +0.000 NA
ATOM     49  H   UNL     1      -9.291  -4.427  15.235  0.00  0.00    +0.000 HD
BRANCH  48  50
ATOM     50  C   UNL     1     -10.327  -2.778  14.660  0.00  0.00    +0.000 C 
ATOM     51  H   UNL     1     -10.123  -1.808  15.127  0.00  0.00    +0.000 HD
ATOM     52  H   UNL     1     -11.382  -2.809  14.362  0.00  0.00    +0.000 HD
BRANCH  50  53
ATOM     53  C   UNL     1      -9.450  -2.924  13.414  0.00  0.00    +0.000 C 
ATOM     54  H   UNL     1      -8.938  -1.985  13.174  0.00  0.00    +0.000 HD
ATOM     55  H   UNL     1     -10.064  -3.207  12.555  0.00  0.00    +0.000 HD
BRANCH  53  56
ATOM     56  O   UNL     1      -8.468  -3.940  13.607  0.00  0.00    +0.000 OA
ATOM     57  H   UNL     1      -8.405  -4.411  12.760  0.00  0.00    +0.000 HD
ENDBRANCH  53  56
ENDBRANCH  50  53
ENDBRANCH  48  50
ENDBRANCH  45  48
ENDBRANCH  42  45
ENDBRANCH  39  42
ENDBRANCH  11  39
TORSDOF 8
ENDMDL
MODEL 6
REMARK VINA RESULT:    -8.497      3.529      6.625
REMARK INTER + INTRA:         -12.334
REMARK INTER:                 -11.556
REMARK INTRA:                  -0.778
REMARK UNBOUND:                -0.361
REMARK  Name = 
REMARK  8 active torsions:
REMARK  status: ('A' for Active; 'I' for Inactive)
REMARK    1  A    between atoms: C_1  and  N_2
REMARK    2  A    between atoms: C_12  and  C_13
REMARK    3  A    between atoms: C_13  and  C_14
REMARK    4  A    between atoms: C_14  and  C_15
REMARK    5  A    between atoms: C_15  and  N_16
REMARK    6  A    between atoms: N_16  and  C_17
REMARK    7  A    between atoms: C_17  and  C_18
REMARK    8  A    between atoms: C_18  and  O_19
REMARK                            x       y       z     vdW  Elec       q    Type
REMARK                         _______ _______ _______ _____ _____    ______ ____
ROOT
ATOM      1  N   UNL     1     -12.596  -1.329  14.291  0.00  0.00    +0.000 N 
ATOM      2  C   UNL     1     -13.354  -0.174  14.381  0.00  0.00    +0.000 A 
ATOM      3  C   UNL     1     -13.510   0.119  15.700  0.00  0.00    +0.000 A 
ATOM      4  C   UNL     1     -12.432  -0.529  16.334  0.00  0.00    +0.000 A 
ATOM      5  C   UNL     1     -11.869  -0.253  17.587  0.00  0.00    +0.000 A 
ATOM      6  C   UNL     1     -10.871  -1.052  18.078  0.00  0.00    +0.000 A 
ATOM      7  C   UNL     1     -10.662  -2.255  17.427  0.00  0.00    +0.000 A 
ATOM      8  C   UNL     1     -10.026  -3.221  18.198  0.00  0.00    +0.000 A 
ATOM      9  N   UNL     1      -9.199  -3.152  19.280  0.00  0.00    +0.000 N 
ATOM     10  C   UNL     1      -8.611  -4.385  19.517  0.00  0.00    +0.000 A 
ATOM     11  C   UNL     1      -7.535  -4.675  20.357  0.00  0.00    +0.000 A 
ATOM     12  C   UNL     1      -7.083  -6.005  20.336  0.00  0.00    +0.000 A 
ATOM     13  C   UNL     1      -7.722  -6.980  19.572  0.00  0.00    +0.000 A 
ATOM     14  C   UNL     1      -8.823  -6.668  18.776  0.00  0.00    +0.000 A 
ATOM     15  C   UNL     1      -9.259  -5.329  18.711  0.00  0.00    +0.000 A 
ATOM     16  C   UNL     1     -10.152  -4.552  17.967  0.00  0.00    +0.000 A 
ATOM     17  C   UNL     1     -10.751  -4.991  16.756  0.00  0.00    +0.000 A 
ATOM     18  C   UNL     1     -10.841  -3.939  15.774  0.00  0.00    +0.000 A 
ATOM     19  C   UNL     1     -11.139  -2.599  16.122  0.00  0.00    +0.000 A 
ATOM     20  C   UNL     1     -11.964  -1.596  15.504  0.00  0.00    +0.000 A 
ATOM     21  C   UNL     1     -10.073  -4.534  14.693  0.00  0.00    +0.000 C 
ATOM     22  O   UNL     1      -9.240  -4.056  13.928  0.00  0.00    +0.000 OA
ATOM     23  N   UNL     1     -10.183  -5.884  14.883  0.00  0.00    +0.000 N 
ATOM     24  C   UNL     1     -10.665  -6.261  16.135  0.00  0.00    +0.000 C 
ATOM     25  O   UNL     1     -10.858  -7.406  16.485  0.00  0.00    +0.000 OA
ATOM     26  H   UNL     1     -13.773   0.316  13.511  0.00  0.00    +0.000 HD
ATOM     27  H   UNL     1     -14.162   0.865  16.134  0.00  0.00    +0.000 HD
ATOM     28  H   UNL     1     -12.223   0.592  18.168  0.00  0.00    +0.000 HD
ATOM     29  H   UNL     1     -10.433  -0.805  19.039  0.00  0.00    +0.000 HD
ATOM     30  H   UNL     1      -8.859  -2.286  19.675  0.00  0.00    +0.000 HD
ATOM     31  H   UNL     1      -6.214  -6.291  20.928  0.00  0.00    +0.000 HD
ATOM     32  H   UNL     1      -7.349  -8.001  19.579  0.00  0.00    +0.000 HD
ATOM     33  H   UNL     1      -9.291  -7.453  18.192  0.00  0.00    +0.000 HD
ATOM     34  H   UNL     1      -9.557  -6.551  14.456  0.00  0.00    +0.000 HD
ENDROOT
BRANCH   1  35
ATOM     35  C   UNL     1     -12.527  -2.005  13.015  0.00  0.00    +0.000 C 
ATOM     36  H   UNL     1     -11.923  -1.406  12.332  0.00  0.00    +0.000 HD
ATOM     37  H   UNL     1     -13.529  -2.210  12.644  0.00  0.00    +0.000 HD
ATOM     38  H   UNL     1     -12.010  -2.967  13.162  0.00  0.00    +0.000 HD
ENDBRANCH   1  35
BRANCH  11  39
ATOM     39  C   UNL     1      -6.857  -3.626  21.206  0.00  0.00    +0.000 C 
ATOM     40  H   UNL     1      -7.040  -2.645  20.750  0.00  0.00    +0.000 HD
ATOM     41  H   UNL     1      -5.770  -3.773  21.200  0.00  0.00    +0.000 HD
BRANCH  39  42
ATOM     42  C   UNL     1      -7.366  -3.606  22.653  0.00  0.00    +0.000 C 
ATOM     43  H   UNL     1      -6.528  -3.570  23.358  0.00  0.00    +0.000 HD
ATOM     44  H   UNL     1      -7.881  -4.554  22.854  0.00  0.00    +0.000 HD
BRANCH  42  45
ATOM     45  C   UNL     1      -8.310  -2.434  22.929  0.00  0.00    +0.000 C 
ATOM     46  H   UNL     1      -7.970  -1.560  22.363  0.00  0.00    +0.000 HD
ATOM     47  H   UNL     1      -8.303  -2.178  23.994  0.00  0.00    +0.000 HD
BRANCH  45  48
ATOM     48  N   UNL     1      -9.668  -2.815  22.535  0.00  0.00    +0.000 NA
ATOM     49  H   UNL     1      -9.796  -3.797  22.784  0.00  0.00    +0.000 HD
BRANCH  48  50
ATOM     50  C   UNL     1     -10.653  -2.029  23.298  0.00  0.00    +0.000 C 
ATOM     51  H   UNL     1     -11.533  -1.821  22.681  0.00  0.00    +0.000 HD
ATOM     52  H   UNL     1     -10.200  -1.077  23.597  0.00  0.00    +0.000 HD
BRANCH  50  53
ATOM     53  C   UNL     1     -11.093  -2.790  24.551  0.00  0.00    +0.000 C 
ATOM     54  H   UNL     1     -11.249  -2.111  25.397  0.00  0.00    +0.000 HD
ATOM     55  H   UNL     1     -10.328  -3.519  24.835  0.00  0.00    +0.000 HD
BRANCH  53  56
ATOM     56  O   UNL     1     -12.307  -3.498  24.308  0.00  0.00    +0.000 OA
ATOM     57  H   UNL     1     -13.022  -2.878  24.527  0.00  0.00    +0.000 HD
ENDBRANCH  53  56
ENDBRANCH  50  53
ENDBRANCH  48  50
ENDBRANCH  45  48
ENDBRANCH  42  45
ENDBRANCH  39  42
ENDBRANCH  11  39
TORSDOF 8
ENDMDL
MODEL 7
REMARK VINA RESULT:    -8.459      2.328      3.424
REMARK INTER + INTRA:         -12.281
REMARK INTER:                 -11.920
REMARK INTRA:                  -0.361
REMARK UNBOUND:                -0.361
REMARK  Name = 
REMARK  8 active torsions:
REMARK  status: ('A' for Active; 'I' for Inactive)
REMARK    1  A    between atoms: C_1  and  N_2
REMARK    2  A    between atoms: C_12  and  C_13
REMARK    3  A    between atoms: C_13  and  C_14
REMARK    4  A    between atoms: C_14  and  C_15
REMARK    5  A    between atoms: C_15  and  N_16
REMARK    6  A    between atoms: N_16  and  C_17
REMARK    7  A    between atoms: C_17  and  C_18
REMARK    8  A    between atoms: C_18  and  O_19
REMARK                            x       y       z     vdW  Elec       q    Type
REMARK                         _______ _______ _______ _____ _____    ______ ____
ROOT
ATOM      1  N   UNL     1     -11.573   1.295  20.441  0.00  0.00    +0.000 N 
ATOM      2  C   UNL     1     -12.028   2.316  19.623  0.00  0.00    +0.000 A 
ATOM      3  C   UNL     1     -11.673   2.014  18.345  0.00  0.00    +0.000 A 
ATOM      4  C   UNL     1     -11.498   0.616  18.349  0.00  0.00    +0.000 A 
ATOM      5  C   UNL     1     -11.528  -0.265  17.260  0.00  0.00    +0.000 A 
ATOM      6  C   UNL     1     -11.250  -1.593  17.448  0.00  0.00    +0.000 A 
ATOM      7  C   UNL     1     -10.684  -1.942  18.662  0.00  0.00    +0.000 A 
ATOM      8  C   UNL     1      -9.985  -3.143  18.643  0.00  0.00    +0.000 A 
ATOM      9  N   UNL     1     -10.058  -4.252  17.852  0.00  0.00    +0.000 N 
ATOM     10  C   UNL     1      -9.331  -5.292  18.410  0.00  0.00    +0.000 A 
ATOM     11  C   UNL     1      -9.351  -6.640  18.053  0.00  0.00    +0.000 A 
ATOM     12  C   UNL     1      -8.576  -7.497  18.852  0.00  0.00    +0.000 A 
ATOM     13  C   UNL     1      -7.786  -7.008  19.892  0.00  0.00    +0.000 A 
ATOM     14  C   UNL     1      -7.753  -5.648  20.196  0.00  0.00    +0.000 A 
ATOM     15  C   UNL     1      -8.576  -4.767  19.466  0.00  0.00    +0.000 A 
ATOM     16  C   UNL     1      -8.987  -3.432  19.518  0.00  0.00    +0.000 A 
ATOM     17  C   UNL     1      -8.797  -2.597  20.651  0.00  0.00    +0.000 A 
ATOM     18  C   UNL     1      -9.928  -1.734  20.895  0.00  0.00    +0.000 A 
ATOM     19  C   UNL     1     -10.666  -1.136  19.845  0.00  0.00    +0.000 A 
ATOM     20  C   UNL     1     -11.239   0.173  19.684  0.00  0.00    +0.000 A 
ATOM     21  C   UNL     1     -10.281  -2.153  22.241  0.00  0.00    +0.000 C 
ATOM     22  O   UNL     1     -11.369  -2.361  22.768  0.00  0.00    +0.000 OA
ATOM     23  N   UNL     1      -9.118  -2.633  22.778  0.00  0.00    +0.000 N 
ATOM     24  C   UNL     1      -8.105  -2.880  21.854  0.00  0.00    +0.000 C 
ATOM     25  O   UNL     1      -6.995  -3.282  22.135  0.00  0.00    +0.000 OA
ATOM     26  H   UNL     1     -12.514   3.201  20.013  0.00  0.00    +0.000 HD
ATOM     27  H   UNL     1     -11.740   2.655  17.477  0.00  0.00    +0.000 HD
ATOM     28  H   UNL     1     -11.771   0.103  16.269  0.00  0.00    +0.000 HD
ATOM     29  H   UNL     1     -11.304  -2.261  16.596  0.00  0.00    +0.000 HD
ATOM     30  H   UNL     1     -10.749  -4.379  17.125  0.00  0.00    +0.000 HD
ATOM     31  H   UNL     1      -8.586  -8.571  18.664  0.00  0.00    +0.000 HD
ATOM     32  H   UNL     1      -7.197  -7.697  20.492  0.00  0.00    +0.000 HD
ATOM     33  H   UNL     1      -7.130  -5.306  21.015  0.00  0.00    +0.000 HD
ATOM     34  H   UNL     1      -9.095  -3.227  23.595  0.00  0.00    +0.000 HD
ENDROOT
BRANCH   1  35
ATOM     35  C   UNL     1     -11.574   1.511  21.870  0.00  0.00    +0.000 C 
ATOM     36  H   UNL     1     -11.756   0.559  22.369  0.00  0.00    +0.000 HD
ATOM     37  H   UNL     1     -12.294   2.284  22.132  0.00  0.00    +0.000 HD
ATOM     38  H   UNL     1     -10.572   1.858  22.167  0.00  0.00    +0.000 HD
ENDBRANCH   1  35
BRANCH  11  39
ATOM     39  C   UNL     1     -10.186  -7.170  16.911  0.00  0.00    +0.000 C 
ATOM     40  H   UNL     1     -10.362  -6.348  16.205  0.00  0.00    +0.000 HD
ATOM     41  H   UNL     1     -11.172  -7.485  17.273  0.00  0.00    +0.000 HD
BRANCH  39  42
ATOM     42  C   UNL     1      -9.515  -8.331  16.167  0.00  0.00    +0.000 C 
ATOM     43  H   UNL     1      -8.540  -8.563  16.609  0.00  0.00    +0.000 HD
ATOM     44  H   UNL     1      -9.305  -8.012  15.139  0.00  0.00    +0.000 HD
BRANCH  42  45
ATOM     45  C   UNL     1     -10.376  -9.596  16.152  0.00  0.00    +0.000 C 
ATOM     46  H   UNL     1     -10.979  -9.607  15.237  0.00  0.00    +0.000 HD
ATOM     47  H   UNL     1     -11.055  -9.610  17.012  0.00  0.00    +0.000 HD
BRANCH  45  48
ATOM     48  N   UNL     1      -9.499 -10.768  16.214  0.00  0.00    +0.000 NA
ATOM     49  H   UNL     1      -8.625 -10.522  15.747  0.00  0.00    +0.000 HD
BRANCH  48  50
ATOM     50  C   UNL     1      -9.184 -11.088  17.616  0.00  0.00    +0.000 C 
ATOM     51  H   UNL     1     -10.096 -11.074  18.223  0.00  0.00    +0.000 HD
ATOM     52  H   UNL     1      -8.488 -10.339  18.010  0.00  0.00    +0.000 HD
BRANCH  50  53
ATOM     53  C   UNL     1      -8.540 -12.473  17.719  0.00  0.00    +0.000 C 
ATOM     54  H   UNL     1      -7.446 -12.407  17.700  0.00  0.00    +0.000 HD
ATOM     55  H   UNL     1      -8.859 -13.098  16.880  0.00  0.00    +0.000 HD
BRANCH  53  56
ATOM     56  O   UNL     1      -8.935 -13.122  18.926  0.00  0.00    +0.000 OA
ATOM     57  H   UNL     1      -8.169 -13.061  19.521  0.00  0.00    +0.000 HD
ENDBRANCH  53  56
ENDBRANCH  50  53
ENDBRANCH  48  50
ENDBRANCH  45  48
ENDBRANCH  42  45
ENDBRANCH  39  42
ENDBRANCH  11  39
TORSDOF 8
ENDMDL
MODEL 8
REMARK VINA RESULT:    -8.203      3.805      6.217
REMARK INTER + INTRA:         -11.920
REMARK INTER:                 -10.696
REMARK INTRA:                  -1.224
REMARK UNBOUND:                -0.361
REMARK  Name = 
REMARK  8 active torsions:
REMARK  status: ('A' for Active; 'I' for Inactive)
REMARK    1  A    between atoms: C_1  and  N_2
REMARK    2  A    between atoms: C_12  and  C_13
REMARK    3  A    between atoms: C_13  and  C_14
REMARK    4  A    between atoms: C_14  and  C_15
REMARK    5  A    between atoms: C_15  and  N_16
REMARK    6  A    between atoms: N_16  and  C_17
REMARK    7  A    between atoms: C_17  and  C_18
REMARK    8  A    between atoms: C_18  and  O_19
REMARK                            x       y       z     vdW  Elec       q    Type
REMARK                         _______ _______ _______ _____ _____    ______ ____
ROOT
ATOM      1  N   UNL     1     -12.001   1.361  18.309  0.00  0.00    +0.000 N 
ATOM      2  C   UNL     1     -12.456   2.113  19.380  0.00  0.00    +0.000 A 
ATOM      3  C   UNL     1     -12.568   1.283  20.451  0.00  0.00    +0.000 A 
ATOM      4  C   UNL     1     -11.699   0.214  20.162  0.00  0.00    +0.000 A 
ATOM      5  C   UNL     1     -11.118  -0.698  21.053  0.00  0.00    +0.000 A 
ATOM      6  C   UNL     1     -10.358  -1.733  20.573  0.00  0.00    +0.000 A 
ATOM      7  C   UNL     1     -10.434  -1.979  19.213  0.00  0.00    +0.000 A 
ATOM      8  C   UNL     1     -10.074  -3.270  18.844  0.00  0.00    +0.000 A 
ATOM      9  N   UNL     1      -9.283  -4.218  19.424  0.00  0.00    +0.000 N 
ATOM     10  C   UNL     1      -9.021  -5.242  18.528  0.00  0.00    +0.000 A 
ATOM     11  C   UNL     1      -8.071  -6.258  18.639  0.00  0.00    +0.000 A 
ATOM     12  C   UNL     1      -7.958  -7.116  17.533  0.00  0.00    +0.000 A 
ATOM     13  C   UNL     1      -8.797  -6.992  16.426  0.00  0.00    +0.000 A 
ATOM     14  C   UNL     1      -9.767  -5.993  16.363  0.00  0.00    +0.000 A 
ATOM     15  C   UNL     1      -9.860  -5.066  17.421  0.00  0.00    +0.000 A 
ATOM     16  C   UNL     1     -10.516  -3.865  17.707  0.00  0.00    +0.000 A 
ATOM     17  C   UNL     1     -11.173  -3.077  16.725  0.00  0.00    +0.000 A 
ATOM     18  C   UNL     1     -10.978  -1.663  16.932  0.00  0.00    +0.000 A 
ATOM     19  C   UNL     1     -10.948  -1.083  18.223  0.00  0.00    +0.000 A 
ATOM     20  C   UNL     1     -11.485   0.143  18.749  0.00  0.00    +0.000 A 
ATOM     21  C   UNL     1     -10.351  -1.306  15.670  0.00  0.00    +0.000 C 
ATOM     22  O   UNL     1      -9.408  -0.565  15.412  0.00  0.00    +0.000 OA
ATOM     23  N   UNL     1     -10.794  -2.243  14.778  0.00  0.00    +0.000 N 
ATOM     24  C   UNL     1     -11.386  -3.366  15.354  0.00  0.00    +0.000 C 
ATOM     25  O   UNL     1     -11.862  -4.293  14.733  0.00  0.00    +0.000 OA
ATOM     26  H   UNL     1     -12.719   3.158  19.286  0.00  0.00    +0.000 HD
ATOM     27  H   UNL     1     -13.028   1.502  21.405  0.00  0.00    +0.000 HD
ATOM     28  H   UNL     1     -11.268  -0.586  22.121  0.00  0.00    +0.000 HD
ATOM     29  H   UNL     1      -9.898  -2.412  21.282  0.00  0.00    +0.000 HD
ATOM     30  H   UNL     1      -8.752  -4.067  20.271  0.00  0.00    +0.000 HD
ATOM     31  H   UNL     1      -7.201  -7.899  17.529  0.00  0.00    +0.000 HD
ATOM     32  H   UNL     1      -8.686  -7.672  15.585  0.00  0.00    +0.000 HD
ATOM     33  H   UNL     1     -10.399  -5.925  15.483  0.00  0.00    +0.000 HD
ATOM     34  H   UNL     1     -10.339  -2.417  13.893  0.00  0.00    +0.000 HD
ENDROOT
BRANCH   1  35
ATOM     35  C   UNL     1     -12.067   1.943  16.987  0.00  0.00    +0.000 C 
ATOM     36  H   UNL     1     -12.183   3.023  17.084  0.00  0.00    +0.000 HD
ATOM     37  H   UNL     1     -12.858   1.470  16.408  0.00  0.00    +0.000 HD
ATOM     38  H   UNL     1     -11.108   1.754  16.480  0.00  0.00    +0.000 HD
ENDBRANCH   1  35
BRANCH  11  39
ATOM     39  C   UNL     1      -7.179  -6.411  19.848  0.00  0.00    +0.000 C 
ATOM     40  H   UNL     1      -7.178  -7.468  20.142  0.00  0.00    +0.000 HD
ATOM     41  H   UNL     1      -7.588  -5.852  20.698  0.00  0.00    +0.000 HD
BRANCH  39  42
ATOM     42  C   UNL     1      -5.735  -5.965  19.586  0.00  0.00    +0.000 C 
ATOM     43  H   UNL     1      -5.594  -5.707  18.531  0.00  0.00    +0.000 HD
ATOM     44  H   UNL     1      -5.068  -6.816  19.774  0.00  0.00    +0.000 HD
BRANCH  42  45
ATOM     45  C   UNL     1      -5.318  -4.778  20.457  0.00  0.00    +0.000 C 
ATOM     46  H   UNL     1      -4.649  -4.129  19.880  0.00  0.00    +0.000 HD
ATOM     47  H   UNL     1      -4.778  -5.124  21.346  0.00  0.00    +0.000 HD
BRANCH  45  48
ATOM     48  N   UNL     1      -6.518  -4.051  20.876  0.00  0.00    +0.000 NA
ATOM     49  H   UNL     1      -7.240  -4.743  21.082  0.00  0.00    +0.000 HD
BRANCH  48  50
ATOM     50  C   UNL     1      -6.247  -3.305  22.116  0.00  0.00    +0.000 C 
ATOM     51  H   UNL     1      -6.170  -2.233  21.906  0.00  0.00    +0.000 HD
ATOM     52  H   UNL     1      -5.298  -3.648  22.545  0.00  0.00    +0.000 HD
BRANCH  50  53
ATOM     53  C   UNL     1      -7.367  -3.533  23.135  0.00  0.00    +0.000 C 
ATOM     54  H   UNL     1      -7.623  -2.606  23.661  0.00  0.00    +0.000 HD
ATOM     55  H   UNL     1      -7.053  -4.272  23.878  0.00  0.00    +0.000 HD
BRANCH  53  56
ATOM     56  O   UNL     1      -8.540  -4.027  22.491  0.00  0.00    +0.000 OA
ATOM     57  H   UNL     1      -8.607  -3.538  21.654  0.00  0.00    +0.000 HD
ENDBRANCH  53  56
ENDBRANCH  50  53
ENDBRANCH  48  50
ENDBRANCH  45  48
ENDBRANCH  42  45
ENDBRANCH  39  42
ENDBRANCH  11  39
TORSDOF 8
ENDMDL
MODEL 9
REMARK VINA RESULT:    -8.180      2.435      4.321
REMARK INTER + INTRA:         -11.888
REMARK INTER:                 -11.505
REMARK INTRA:                  -0.383
REMARK UNBOUND:                -0.361
REMARK  Name = 
REMARK  8 active torsions:
REMARK  status: ('A' for Active; 'I' for Inactive)
REMARK    1  A    between atoms: C_1  and  N_2
REMARK    2  A    between atoms: C_12  and  C_13
REMARK    3  A    between atoms: C_13  and  C_14
REMARK    4  A    between atoms: C_14  and  C_15
REMARK    5  A    between atoms: C_15  and  N_16
REMARK    6  A    between atoms: N_16  and  C_17
REMARK    7  A    between atoms: C_17  and  C_18
REMARK    8  A    between atoms: C_18  and  O_19
REMARK                            x       y       z     vdW  Elec       q    Type
REMARK                         _______ _______ _______ _____ _____    ______ ____
ROOT
ATOM      1  N   UNL     1     -11.475   1.312  18.141  0.00  0.00    +0.000 N 
ATOM      2  C   UNL     1     -11.923   2.075  19.206  0.00  0.00    +0.000 A 
ATOM      3  C   UNL     1     -12.296   1.225  20.199  0.00  0.00    +0.000 A 
ATOM      4  C   UNL     1     -11.585   0.039  19.933  0.00  0.00    +0.000 A 
ATOM      5  C   UNL     1     -11.271  -1.002  20.817  0.00  0.00    +0.000 A 
ATOM      6  C   UNL     1     -10.639  -2.126  20.352  0.00  0.00    +0.000 A 
ATOM      7  C   UNL     1     -10.593  -2.288  18.978  0.00  0.00    +0.000 A 
ATOM      8  C   UNL     1     -10.407  -3.601  18.563  0.00  0.00    +0.000 A 
ATOM      9  N   UNL     1      -9.857  -4.698  19.158  0.00  0.00    +0.000 N 
ATOM     10  C   UNL     1      -9.661  -5.705  18.227  0.00  0.00    +0.000 A 
ATOM     11  C   UNL     1      -8.910  -6.872  18.371  0.00  0.00    +0.000 A 
ATOM     12  C   UNL     1      -8.809  -7.681  17.227  0.00  0.00    +0.000 A 
ATOM     13  C   UNL     1      -9.479  -7.361  16.047  0.00  0.00    +0.000 A 
ATOM     14  C   UNL     1     -10.258  -6.209  15.948  0.00  0.00    +0.000 A 
ATOM     15  C   UNL     1     -10.323  -5.334  17.050  0.00  0.00    +0.000 A 
ATOM     16  C   UNL     1     -10.803  -4.055  17.346  0.00  0.00    +0.000 A 
ATOM     17  C   UNL     1     -11.202  -3.119  16.355  0.00  0.00    +0.000 A 
ATOM     18  C   UNL     1     -10.803  -1.771  16.679  0.00  0.00    +0.000 A 
ATOM     19  C   UNL     1     -10.832  -1.269  18.002  0.00  0.00    +0.000 A 
ATOM     20  C   UNL     1     -11.220   0.003  18.550  0.00  0.00    +0.000 A 
ATOM     21  C   UNL     1      -9.982  -1.463  15.519  0.00  0.00    +0.000 C 
ATOM     22  O   UNL     1      -8.906  -0.881  15.417  0.00  0.00    +0.000 OA
ATOM     23  N   UNL     1     -10.463  -2.266  14.523  0.00  0.00    +0.000 N 
ATOM     24  C   UNL     1     -11.294  -3.299  14.953  0.00  0.00    +0.000 C 
ATOM     25  O   UNL     1     -11.839  -4.099  14.221  0.00  0.00    +0.000 OA
ATOM     26  H   UNL     1     -12.000   3.154  19.157  0.00  0.00    +0.000 HD
ATOM     27  H   UNL     1     -12.824   1.471  21.110  0.00  0.00    +0.000 HD
ATOM     28  H   UNL     1     -11.527  -0.919  21.867  0.00  0.00    +0.000 HD
ATOM     29  H   UNL     1     -10.384  -2.908  21.058  0.00  0.00    +0.000 HD
ATOM     30  H   UNL     1      -9.412  -4.681  20.066  0.00  0.00    +0.000 HD
ATOM     31  H   UNL     1      -8.194  -8.581  17.251  0.00  0.00    +0.000 HD
ATOM     32  H   UNL     1      -9.381  -8.008  15.178  0.00  0.00    +0.000 HD
ATOM     33  H   UNL     1     -10.761  -5.992  15.011  0.00  0.00    +0.000 HD
ATOM     34  H   UNL     1      -9.941  -2.470  13.683  0.00  0.00    +0.000 HD
ENDROOT
BRANCH   1  35
ATOM     35  C   UNL     1     -11.287   1.961  16.864  0.00  0.00    +0.000 C 
ATOM     36  H   UNL     1     -12.184   2.533  16.626  0.00  0.00    +0.000 HD
ATOM     37  H   UNL     1     -11.025   1.227  16.105  0.00  0.00    +0.000 HD
ATOM     38  H   UNL     1     -10.452   2.673  16.958  0.00  0.00    +0.000 HD
ENDBRANCH   1  35
BRANCH  11  39
ATOM     39  C   UNL     1      -8.204  -7.235  19.656  0.00  0.00    +0.000 C 
ATOM     40  H   UNL     1      -8.316  -6.397  20.357  0.00  0.00    +0.000 HD
ATOM     41  H   UNL     1      -7.128  -7.352  19.481  0.00  0.00    +0.000 HD
BRANCH  39  42
ATOM     42  C   UNL     1      -8.761  -8.507  20.306  0.00  0.00    +0.000 C 
ATOM     43  H   UNL     1      -9.788  -8.696  19.974  0.00  0.00    +0.000 HD
ATOM     44  H   UNL     1      -8.826  -8.346  21.390  0.00  0.00    +0.000 HD
BRANCH  42  45
ATOM     45  C   UNL     1      -7.903  -9.741  20.018  0.00  0.00    +0.000 C 
ATOM     46  H   UNL     1      -7.338 -10.002  20.919  0.00  0.00    +0.000 HD
ATOM     47  H   UNL     1      -7.188  -9.533  19.213  0.00  0.00    +0.000 HD
BRANCH  45  48
ATOM     48  N   UNL     1      -8.777 -10.843  19.610  0.00  0.00    +0.000 NA
ATOM     49  H   UNL     1      -9.737 -10.499  19.637  0.00  0.00    +0.000 HD
BRANCH  48  50
ATOM     50  C   UNL     1      -8.480 -11.235  18.222  0.00  0.00    +0.000 C 
ATOM     51  H   UNL     1      -7.575 -10.727  17.869  0.00  0.00    +0.000 HD
ATOM     52  H   UNL     1      -9.319 -10.946  17.578  0.00  0.00    +0.000 HD
BRANCH  50  53
ATOM     53  C   UNL     1      -8.271 -12.748  18.124  0.00  0.00    +0.000 C 
ATOM     54  H   UNL     1      -7.224 -13.020  18.305  0.00  0.00    +0.000 HD
ATOM     55  H   UNL     1      -8.548 -13.101  17.127  0.00  0.00    +0.000 HD
BRANCH  53  56
ATOM     56  O   UNL     1      -9.087 -13.430  19.075  0.00  0.00    +0.000 OA
ATOM     57  H   UNL     1      -9.819 -12.823  19.278  0.00  0.00    +0.000 HD
ENDBRANCH  53  56
ENDBRANCH  50  53
ENDBRANCH  48  50
ENDBRANCH  45  48
ENDBRANCH  42  45
ENDBRANCH  39  42
ENDBRANCH  11  39
TORSDOF 8
ENDMDL
