MODEL 1
REMARK VINA RESULT:   -11.126      0.000      0.000
REMARK INTER + INTRA:         -14.394
REMARK INTER:                 -13.728
REMARK INTRA:                  -0.666
REMARK UNBOUND:                -0.666
REMARK  Name = 
REMARK  5 active torsions:
REMARK  status: ('A' for Active; 'I' for Inactive)
REMARK    1  A    between atoms: C_1  and  N_2
REMARK    2  A    between atoms: C_4  and  C_5
REMARK    3  A    between atoms: C_6  and  C_7
REMARK    4  A    between atoms: C_18  and  C_19
REMARK    5  A    between atoms: C_19  and  N_20
REMARK                            x       y       z     vdW  Elec       q    Type
REMARK                         _______ _______ _______ _____ _____    ______ ____
ROOT
ATOM      1  C   UNL     1      -8.366  -4.374  19.590  0.00  0.00    +0.000 A 
ATOM      2  C   UNL     1      -8.453  -3.517  20.695  0.00  0.00    +0.000 A 
ATOM      3  N   UNL     1      -7.198  -3.532  21.252  0.00  0.00    +0.000 N 
ATOM      4  C   UNL     1      -6.343  -4.407  20.620  0.00  0.00    +0.000 A 
ATOM      5  C   UNL     1      -5.007  -4.740  20.919  0.00  0.00    +0.000 A 
ATOM      6  C   UNL     1      -4.354  -5.659  20.105  0.00  0.00    +0.000 A 
ATOM      7  C   UNL     1      -5.009  -6.212  19.016  0.00  0.00    +0.000 A 
ATOM      8  C   UNL     1      -6.343  -5.866  18.721  0.00  0.00    +0.000 A 
ATOM      9  C   UNL     1      -7.040  -4.950  19.550  0.00  0.00    +0.000 A 
ATOM     10  C   UNL     1      -6.748  -2.718  22.346  0.00  0.00    +0.000 C 
ATOM     11  C   UNL     1      -7.771  -1.802  22.962  0.00  0.00    +0.000 C 
ATOM     12  C   UNL     1      -9.255  -2.117  22.740  0.00  0.00    +0.000 C 
ATOM     13  C   UNL     1      -9.552  -2.627  21.287  0.00  0.00    +0.000 C 
ATOM     14  H   UNL     1      -4.493  -4.302  21.767  0.00  0.00    +0.000 HD
ATOM     15  H   UNL     1      -3.328  -5.939  20.329  0.00  0.00    +0.000 HD
ATOM     16  H   UNL     1      -4.485  -6.928  18.386  0.00  0.00    +0.000 HD
ATOM     17  H   UNL     1      -6.825  -6.316  17.856  0.00  0.00    +0.000 HD
ATOM     18  H   UNL     1      -5.919  -2.107  21.964  0.00  0.00    +0.000 HD
ATOM     19  H   UNL     1      -6.340  -3.396  23.104  0.00  0.00    +0.000 HD
ATOM     20  H   UNL     1      -7.571  -1.795  24.040  0.00  0.00    +0.000 HD
ATOM     21  H   UNL     1      -7.565  -0.790  22.595  0.00  0.00    +0.000 HD
ATOM     22  H   UNL     1      -9.543  -2.933  23.417  0.00  0.00    +0.000 HD
ATOM     23  H   UNL     1      -9.733  -1.784  20.610  0.00  0.00    +0.000 HD
ATOM     24  H   UNL     1     -10.485  -3.210  21.317  0.00  0.00    +0.000 HD
ENDROOT
BRANCH   1  26
ATOM     25  C   UNL     1      -9.935  -5.801  18.226  0.00  0.00    +0.000 C 
ATOM     26  C   UNL     1      -9.383  -4.633  18.623  0.00  0.00    +0.000 C 
ATOM     27  C   UNL     1     -10.091  -3.541  17.919  0.00  0.00    +0.000 C 
ATOM     28  O   UNL     1      -9.839  -2.352  17.960  0.00  0.00    +0.000 OA
ATOM     29  N   UNL     1     -11.061  -4.111  17.175  0.00  0.00    +0.000 N 
ATOM     30  C   UNL     1     -10.961  -5.457  17.195  0.00  0.00    +0.000 C 
ATOM     31  O   UNL     1     -11.558  -6.212  16.473  0.00  0.00    +0.000 OA
ATOM     32  H   UNL     1     -11.633  -3.611  16.519  0.00  0.00    +0.000 HD
BRANCH  25  35
ATOM     33  N   UNL     1      -8.988  -8.821  19.956  0.00  0.00    +0.000 N 
ATOM     34  C   UNL     1      -9.318  -7.499  19.913  0.00  0.00    +0.000 A 
ATOM     35  C   UNL     1      -9.586  -7.144  18.607  0.00  0.00    +0.000 A 
ATOM     36  C   UNL     1      -9.403  -8.336  17.814  0.00  0.00    +0.000 A 
ATOM     37  C   UNL     1      -9.521  -8.671  16.444  0.00  0.00    +0.000 A 
ATOM     38  C   UNL     1      -9.209  -9.967  16.000  0.00  0.00    +0.000 A 
ATOM     39  C   UNL     1      -8.795 -10.944  16.897  0.00  0.00    +0.000 A 
ATOM     40  C   UNL     1      -8.695 -10.657  18.257  0.00  0.00    +0.000 A 
ATOM     41  C   UNL     1      -9.003  -9.357  18.691  0.00  0.00    +0.000 A 
ATOM     42  H   UNL     1      -9.328  -6.918  20.824  0.00  0.00    +0.000 HD
ATOM     43  H   UNL     1      -9.837  -7.936  15.711  0.00  0.00    +0.000 HD
ATOM     44  H   UNL     1      -9.282 -10.205  14.942  0.00  0.00    +0.000 HD
ATOM     45  H   UNL     1      -8.549 -11.941  16.538  0.00  0.00    +0.000 HD
ATOM     46  H   UNL     1      -8.376 -11.425  18.956  0.00  0.00    +0.000 HD
BRANCH  33  47
ATOM     47  C   UNL     1      -8.661  -9.529  21.170  0.00  0.00    +0.000 C 
ATOM     48  H   UNL     1      -7.852  -9.009  21.689  0.00  0.00    +0.000 HD
ATOM     49  H   UNL     1      -8.342 -10.540  20.907  0.00  0.00    +0.000 HD
ATOM     50  H   UNL     1      -9.550  -9.549  21.806  0.00  0.00    +0.000 HD
ENDBRANCH  33  47
ENDBRANCH  25  35
ENDBRANCH   1  26
BRANCH  12  51
ATOM     51  C   UNL     1     -10.047  -0.844  23.205  0.00  0.00    +0.000 C 
ATOM     52  H   UNL     1     -10.055  -0.736  24.292  0.00  0.00    +0.000 HD
ATOM     53  H   UNL     1     -11.092  -0.904  22.870  0.00  0.00    +0.000 HD
BRANCH  51  54
ATOM     54  N   UNL     1      -9.490   0.390  22.618  0.00  0.00    +0.000 NA
ATOM     55  H   UNL     1      -9.976   0.628  21.755  0.00  0.00    +0.000 HD
ATOM     56  H   UNL     1      -8.507   0.266  22.371  0.00  0.00    +0.000 HD
ENDBRANCH  51  54
ENDBRANCH  12  51
TORSDOF 5
ENDMDL
MODEL 2
REMARK VINA RESULT:    -9.798      2.187      7.535
REMARK INTER + INTRA:         -12.756
REMARK INTER:                 -12.701
REMARK INTRA:                  -0.055
REMARK UNBOUND:                -0.666
REMARK  Name = 
REMARK  5 active torsions:
REMARK  status: ('A' for Active; 'I' for Inactive)
REMARK    1  A    between atoms: C_1  and  N_2
REMARK    2  A    between atoms: C_4  and  C_5
REMARK    3  A    between atoms: C_6  and  C_7
REMARK    4  A    between atoms: C_18  and  C_19
REMARK    5  A    between atoms: C_19  and  N_20
REMARK                            x       y       z     vdW  Elec       q    Type
REMARK                         _______ _______ _______ _____ _____    ______ ____
ROOT
ATOM      1  C   UNL     1      -8.260  -5.345  19.283  0.00  0.00    +0.000 A 
ATOM      2  C   UNL     1      -8.555  -6.708  19.141  0.00  0.00    +0.000 A 
ATOM      3  N   UNL     1      -9.635  -6.746  18.292  0.00  0.00    +0.000 N 
ATOM      4  C   UNL     1     -10.094  -5.494  17.954  0.00  0.00    +0.000 A 
ATOM      5  C   UNL     1     -11.194  -5.119  17.158  0.00  0.00    +0.000 A 
ATOM      6  C   UNL     1     -11.440  -3.764  16.959  0.00  0.00    +0.000 A 
ATOM      7  C   UNL     1     -10.600  -2.816  17.522  0.00  0.00    +0.000 A 
ATOM      8  C   UNL     1      -9.496  -3.202  18.310  0.00  0.00    +0.000 A 
ATOM      9  C   UNL     1      -9.239  -4.577  18.549  0.00  0.00    +0.000 A 
ATOM     10  C   UNL     1     -10.240  -7.929  17.747  0.00  0.00    +0.000 C 
ATOM     11  C   UNL     1      -9.657  -9.243  18.191  0.00  0.00    +0.000 C 
ATOM     12  C   UNL     1      -8.838  -9.274  19.487  0.00  0.00    +0.000 C 
ATOM     13  C   UNL     1      -7.927  -8.008  19.653  0.00  0.00    +0.000 C 
ATOM     14  H   UNL     1     -11.847  -5.861  16.713  0.00  0.00    +0.000 HD
ATOM     15  H   UNL     1     -12.293  -3.457  16.360  0.00  0.00    +0.000 HD
ATOM     16  H   UNL     1     -10.802  -1.760  17.356  0.00  0.00    +0.000 HD
ATOM     17  H   UNL     1      -8.856  -2.432  18.733  0.00  0.00    +0.000 HD
ATOM     18  H   UNL     1     -10.143  -7.857  16.655  0.00  0.00    +0.000 HD
ATOM     19  H   UNL     1     -11.308  -7.885  17.990  0.00  0.00    +0.000 HD
ATOM     20  H   UNL     1     -10.500  -9.937  18.292  0.00  0.00    +0.000 HD
ATOM     21  H   UNL     1      -9.035  -9.618  17.370  0.00  0.00    +0.000 HD
ATOM     22  H   UNL     1      -9.533  -9.266  20.338  0.00  0.00    +0.000 HD
ATOM     23  H   UNL     1      -6.961  -8.159  19.158  0.00  0.00    +0.000 HD
ATOM     24  H   UNL     1      -7.713  -7.885  20.726  0.00  0.00    +0.000 HD
ENDROOT
BRANCH   1  26
ATOM     25  C   UNL     1      -7.149  -3.916  21.038  0.00  0.00    +0.000 C 
ATOM     26  C   UNL     1      -7.162  -4.776  19.997  0.00  0.00    +0.000 C 
ATOM     27  C   UNL     1      -5.761  -5.155  19.711  0.00  0.00    +0.000 C 
ATOM     28  O   UNL     1      -5.357  -5.858  18.805  0.00  0.00    +0.000 OA
ATOM     29  N   UNL     1      -4.988  -4.539  20.629  0.00  0.00    +0.000 N 
ATOM     30  C   UNL     1      -5.713  -3.681  21.377  0.00  0.00    +0.000 C 
ATOM     31  O   UNL     1      -5.261  -2.856  22.128  0.00  0.00    +0.000 OA
ATOM     32  H   UNL     1      -3.985  -4.542  20.612  0.00  0.00    +0.000 HD
BRANCH  25  35
ATOM     33  N   UNL     1     -10.088  -1.985  21.844  0.00  0.00    +0.000 N 
ATOM     34  C   UNL     1      -9.191  -2.525  20.970  0.00  0.00    +0.000 A 
ATOM     35  C   UNL     1      -8.253  -3.248  21.677  0.00  0.00    +0.000 A 
ATOM     36  C   UNL     1      -8.612  -3.132  23.070  0.00  0.00    +0.000 A 
ATOM     37  C   UNL     1      -8.098  -3.622  24.294  0.00  0.00    +0.000 A 
ATOM     38  C   UNL     1      -8.697  -3.257  25.512  0.00  0.00    +0.000 A 
ATOM     39  C   UNL     1      -9.809  -2.426  25.535  0.00  0.00    +0.000 A 
ATOM     40  C   UNL     1     -10.359  -1.947  24.348  0.00  0.00    +0.000 A 
ATOM     41  C   UNL     1      -9.751  -2.312  23.135  0.00  0.00    +0.000 A 
ATOM     42  H   UNL     1      -9.297  -2.341  19.911  0.00  0.00    +0.000 HD
ATOM     43  H   UNL     1      -7.229  -4.270  24.319  0.00  0.00    +0.000 HD
ATOM     44  H   UNL     1      -8.278  -3.622  26.447  0.00  0.00    +0.000 HD
ATOM     45  H   UNL     1     -10.257  -2.145  26.486  0.00  0.00    +0.000 HD
ATOM     46  H   UNL     1     -11.232  -1.301  24.369  0.00  0.00    +0.000 HD
BRANCH  33  47
ATOM     47  C   UNL     1     -11.216  -1.178  21.444  0.00  0.00    +0.000 C 
ATOM     48  H   UNL     1     -11.454  -0.464  22.238  0.00  0.00    +0.000 HD
ATOM     49  H   UNL     1     -12.069  -1.836  21.271  0.00  0.00    +0.000 HD
ATOM     50  H   UNL     1     -10.945  -0.636  20.534  0.00  0.00    +0.000 HD
ENDBRANCH  33  47
ENDBRANCH  25  35
ENDBRANCH   1  26
BRANCH  12  51
ATOM     51  C   UNL     1      -8.109 -10.664  19.512  0.00  0.00    +0.000 C 
ATOM     52  H   UNL     1      -8.013 -11.062  20.524  0.00  0.00    +0.000 HD
ATOM     53  H   UNL     1      -7.096 -10.569  19.095  0.00  0.00    +0.000 HD
BRANCH  51  54
ATOM     54  N   UNL     1      -8.811 -11.662  18.682  0.00  0.00    +0.000 NA
ATOM     55  H   UNL     1      -8.145 -12.297  18.244  0.00  0.00    +0.000 HD
ATOM     56  H   UNL     1      -9.324 -11.213  17.923  0.00  0.00    +0.000 HD
ENDBRANCH  51  54
ENDBRANCH  12  51
TORSDOF 5
ENDMDL
MODEL 3
REMARK VINA RESULT:    -9.292      2.832      6.949
REMARK INTER + INTRA:         -12.131
REMARK INTER:                 -10.574
REMARK INTRA:                  -1.557
REMARK UNBOUND:                -0.666
REMARK  Name = 
REMARK  5 active torsions:
REMARK  status: ('A' for Active; 'I' for Inactive)
REMARK    1  A    between atoms: C_1  and  N_2
REMARK    2  A    between atoms: C_4  and  C_5
REMARK    3  A    between atoms: C_6  and  C_7
REMARK    4  A    between atoms: C_18  and  C_19
REMARK    5  A    between atoms: C_19  and  N_20
REMARK                            x       y       z     vdW  Elec       q    Type
REMARK                         _______ _______ _______ _____ _____    ______ ____
ROOT
ATOM      1  C   UNL     1     -10.099  -2.720  19.350  0.00  0.00    +0.000 A 
ATOM      2  C   UNL     1      -8.937  -3.292  19.884  0.00  0.00    +0.000 A 
ATOM      3  N   UNL     1      -8.803  -4.491  19.228  0.00  0.00    +0.000 N 
ATOM      4  C   UNL     1      -9.848  -4.753  18.373  0.00  0.00    +0.000 A 
ATOM      5  C   UNL     1     -10.099  -5.883  17.570  0.00  0.00    +0.000 A 
ATOM      6  C   UNL     1     -11.240  -5.895  16.775  0.00  0.00    +0.000 A 
ATOM      7  C   UNL     1     -12.093  -4.802  16.769  0.00  0.00    +0.000 A 
ATOM      8  C   UNL     1     -11.829  -3.672  17.570  0.00  0.00    +0.000 A 
ATOM      9  C   UNL     1     -10.685  -3.647  18.408  0.00  0.00    +0.000 A 
ATOM     10  C   UNL     1      -7.696  -5.399  19.344  0.00  0.00    +0.000 C 
ATOM     11  C   UNL     1      -6.612  -5.011  20.313  0.00  0.00    +0.000 C 
ATOM     12  C   UNL     1      -6.950  -3.998  21.413  0.00  0.00    +0.000 C 
ATOM     13  C   UNL     1      -7.884  -2.846  20.904  0.00  0.00    +0.000 C 
ATOM     14  H   UNL     1      -9.428  -6.735  17.571  0.00  0.00    +0.000 HD
ATOM     15  H   UNL     1     -11.457  -6.764  16.161  0.00  0.00    +0.000 HD
ATOM     16  H   UNL     1     -12.981  -4.823  16.140  0.00  0.00    +0.000 HD
ATOM     17  H   UNL     1     -12.518  -2.831  17.537  0.00  0.00    +0.000 HD
ATOM     18  H   UNL     1      -7.253  -5.485  18.342  0.00  0.00    +0.000 HD
ATOM     19  H   UNL     1      -8.110  -6.379  19.609  0.00  0.00    +0.000 HD
ATOM     20  H   UNL     1      -6.272  -5.941  20.784  0.00  0.00    +0.000 HD
ATOM     21  H   UNL     1      -5.770  -4.628  19.725  0.00  0.00    +0.000 HD
ATOM     22  H   UNL     1      -7.507  -4.517  22.206  0.00  0.00    +0.000 HD
ATOM     23  H   UNL     1      -7.292  -2.029  20.474  0.00  0.00    +0.000 HD
ATOM     24  H   UNL     1      -8.408  -2.426  21.776  0.00  0.00    +0.000 HD
ENDROOT
BRANCH   1  26
ATOM     25  C   UNL     1     -10.962  -0.860  20.818  0.00  0.00    +0.000 C 
ATOM     26  C   UNL     1     -10.627  -1.424  19.637  0.00  0.00    +0.000 C 
ATOM     27  C   UNL     1     -10.818  -0.405  18.582  0.00  0.00    +0.000 C 
ATOM     28  O   UNL     1     -10.686  -0.551  17.382  0.00  0.00    +0.000 OA
ATOM     29  N   UNL     1     -11.211   0.731  19.194  0.00  0.00    +0.000 N 
ATOM     30  C   UNL     1     -11.447   0.519  20.506  0.00  0.00    +0.000 C 
ATOM     31  O   UNL     1     -11.995   1.290  21.250  0.00  0.00    +0.000 OA
ATOM     32  H   UNL     1     -11.506   1.558  18.708  0.00  0.00    +0.000 HD
BRANCH  25  35
ATOM     33  N   UNL     1     -11.677  -2.713  23.828  0.00  0.00    +0.000 N 
ATOM     34  C   UNL     1     -11.908  -2.372  22.528  0.00  0.00    +0.000 A 
ATOM     35  C   UNL     1     -10.967  -1.443  22.133  0.00  0.00    +0.000 A 
ATOM     36  C   UNL     1     -10.116  -1.212  23.275  0.00  0.00    +0.000 A 
ATOM     37  C   UNL     1      -8.981  -0.412  23.549  0.00  0.00    +0.000 A 
ATOM     38  C   UNL     1      -8.414  -0.400  24.835  0.00  0.00    +0.000 A 
ATOM     39  C   UNL     1      -8.945  -1.182  25.852  0.00  0.00    +0.000 A 
ATOM     40  C   UNL     1     -10.045  -2.005  25.611  0.00  0.00    +0.000 A 
ATOM     41  C   UNL     1     -10.609  -2.006  24.324  0.00  0.00    +0.000 A 
ATOM     42  H   UNL     1     -12.733  -2.820  21.995  0.00  0.00    +0.000 HD
ATOM     43  H   UNL     1      -8.539   0.217  22.784  0.00  0.00    +0.000 HD
ATOM     44  H   UNL     1      -7.556   0.237  25.038  0.00  0.00    +0.000 HD
ATOM     45  H   UNL     1      -8.501  -1.157  26.845  0.00  0.00    +0.000 HD
ATOM     46  H   UNL     1     -10.454  -2.619  26.407  0.00  0.00    +0.000 HD
BRANCH  33  47
ATOM     47  C   UNL     1     -12.466  -3.675  24.560  0.00  0.00    +0.000 C 
ATOM     48  H   UNL     1     -11.846  -4.148  25.327  0.00  0.00    +0.000 HD
ATOM     49  H   UNL     1     -12.828  -4.431  23.860  0.00  0.00    +0.000 HD
ATOM     50  H   UNL     1     -13.298  -3.147  25.035  0.00  0.00    +0.000 HD
ENDBRANCH  33  47
ENDBRANCH  25  35
ENDBRANCH   1  26
BRANCH  12  51
ATOM     51  C   UNL     1      -5.579  -3.557  22.039  0.00  0.00    +0.000 C 
ATOM     52  H   UNL     1      -5.289  -4.186  22.884  0.00  0.00    +0.000 HD
ATOM     53  H   UNL     1      -5.643  -2.522  22.401  0.00  0.00    +0.000 HD
BRANCH  51  54
ATOM     54  N   UNL     1      -4.491  -3.586  21.042  0.00  0.00    +0.000 NA
ATOM     55  H   UNL     1      -4.844  -3.339  20.119  0.00  0.00    +0.000 HD
ATOM     56  H   UNL     1      -4.095  -4.522  20.958  0.00  0.00    +0.000 HD
ENDBRANCH  51  54
ENDBRANCH  12  51
TORSDOF 5
ENDMDL
MODEL 4
REMARK VINA RESULT:    -9.223      2.254      6.808
REMARK INTER + INTRA:         -12.046
REMARK INTER:                 -11.587
REMARK INTRA:                  -0.458
REMARK UNBOUND:                -0.666
REMARK  Name = 
REMARK  5 active torsions:
REMARK  status: ('A' for Active; 'I' for Inactive)
REMARK    1  A    between atoms: C_1  and  N_2
REMARK    2  A    between atoms: C_4  and  C_5
REMARK    3  A    between atoms: C_6  and  C_7
REMARK    4  A    between atoms: C_18  and  C_19
REMARK    5  A    between atoms: C_19  and  N_20
REMARK                            x       y       z     vdW  Elec       q    Type
REMARK                         _______ _______ _______ _____ _____    ______ ____
ROOT
ATOM      1  C   UNL     1      -8.156  -5.404  19.348  0.00  0.00    +0.000 A 
ATOM      2  C   UNL     1      -9.144  -4.763  18.589  0.00  0.00    +0.000 A 
ATOM      3  N   UNL     1     -10.009  -5.765  18.221  0.00  0.00    +0.000 N 
ATOM      4  C   UNL     1      -9.588  -7.011  18.627  0.00  0.00    +0.000 A 
ATOM      5  C   UNL     1     -10.164  -8.277  18.404  0.00  0.00    +0.000 A 
ATOM      6  C   UNL     1      -9.537  -9.397  18.941  0.00  0.00    +0.000 A 
ATOM      7  C   UNL     1      -8.382  -9.252  19.693  0.00  0.00    +0.000 A 
ATOM      8  C   UNL     1      -7.818  -7.979  19.918  0.00  0.00    +0.000 A 
ATOM      9  C   UNL     1      -8.425  -6.824  19.360  0.00  0.00    +0.000 A 
ATOM     10  C   UNL     1     -11.253  -5.595  17.525  0.00  0.00    +0.000 C 
ATOM     11  C   UNL     1     -11.609  -4.188  17.126  0.00  0.00    +0.000 C 
ATOM     12  C   UNL     1     -10.482  -3.150  17.043  0.00  0.00    +0.000 C 
ATOM     13  C   UNL     1      -9.430  -3.310  18.195  0.00  0.00    +0.000 C 
ATOM     14  H   UNL     1     -11.072  -8.389  17.821  0.00  0.00    +0.000 HD
ATOM     15  H   UNL     1      -9.960 -10.382  18.767  0.00  0.00    +0.000 HD
ATOM     16  H   UNL     1      -7.903 -10.136  20.110  0.00  0.00    +0.000 HD
ATOM     17  H   UNL     1      -6.913  -7.902  20.516  0.00  0.00    +0.000 HD
ATOM     18  H   UNL     1     -12.040  -5.977  18.189  0.00  0.00    +0.000 HD
ATOM     19  H   UNL     1     -11.219  -6.243  16.641  0.00  0.00    +0.000 HD
ATOM     20  H   UNL     1     -12.094  -4.258  16.146  0.00  0.00    +0.000 HD
ATOM     21  H   UNL     1     -12.368  -3.831  17.831  0.00  0.00    +0.000 HD
ATOM     22  H   UNL     1      -9.935  -3.305  16.103  0.00  0.00    +0.000 HD
ATOM     23  H   UNL     1      -9.742  -2.752  19.085  0.00  0.00    +0.000 HD
ATOM     24  H   UNL     1      -8.487  -2.857  17.855  0.00  0.00    +0.000 HD
ENDROOT
BRANCH   1  26
ATOM     25  C   UNL     1      -7.075  -3.900  21.059  0.00  0.00    +0.000 C 
ATOM     26  C   UNL     1      -7.070  -4.786  20.039  0.00  0.00    +0.000 C 
ATOM     27  C   UNL     1      -5.660  -5.132  19.752  0.00  0.00    +0.000 C 
ATOM     28  O   UNL     1      -5.243  -5.846  18.861  0.00  0.00    +0.000 OA
ATOM     29  N   UNL     1      -4.899  -4.471  20.648  0.00  0.00    +0.000 N 
ATOM     30  C   UNL     1      -5.643  -3.615  21.380  0.00  0.00    +0.000 C 
ATOM     31  O   UNL     1      -5.209  -2.759  22.107  0.00  0.00    +0.000 OA
ATOM     32  H   UNL     1      -3.897  -4.446  20.623  0.00  0.00    +0.000 HD
BRANCH  25  35
ATOM     33  N   UNL     1     -10.051  -2.019  21.840  0.00  0.00    +0.000 N 
ATOM     34  C   UNL     1      -9.142  -2.549  20.973  0.00  0.00    +0.000 A 
ATOM     35  C   UNL     1      -8.192  -3.248  21.689  0.00  0.00    +0.000 A 
ATOM     36  C   UNL     1      -8.557  -3.126  23.080  0.00  0.00    +0.000 A 
ATOM     37  C   UNL     1      -8.037  -3.595  24.309  0.00  0.00    +0.000 A 
ATOM     38  C   UNL     1      -8.645  -3.231  25.523  0.00  0.00    +0.000 A 
ATOM     39  C   UNL     1      -9.773  -2.421  25.536  0.00  0.00    +0.000 A 
ATOM     40  C   UNL     1     -10.329  -1.964  24.343  0.00  0.00    +0.000 A 
ATOM     41  C   UNL     1      -9.711  -2.327  23.135  0.00  0.00    +0.000 A 
ATOM     42  H   UNL     1      -9.250  -2.376  19.912  0.00  0.00    +0.000 HD
ATOM     43  H   UNL     1      -7.155  -4.226  24.342  0.00  0.00    +0.000 HD
ATOM     44  H   UNL     1      -8.222  -3.580  26.462  0.00  0.00    +0.000 HD
ATOM     45  H   UNL     1     -10.229  -2.140  26.484  0.00  0.00    +0.000 HD
ATOM     46  H   UNL     1     -11.214  -1.335  24.357  0.00  0.00    +0.000 HD
BRANCH  33  47
ATOM     47  C   UNL     1     -11.194  -1.237  21.430  0.00  0.00    +0.000 C 
ATOM     48  H   UNL     1     -11.388  -0.459  22.173  0.00  0.00    +0.000 HD
ATOM     49  H   UNL     1     -12.058  -1.900  21.355  0.00  0.00    +0.000 HD
ATOM     50  H   UNL     1     -10.966  -0.775  20.466  0.00  0.00    +0.000 HD
ENDBRANCH  33  47
ENDBRANCH  25  35
ENDBRANCH   1  26
BRANCH  12  51
ATOM     51  C   UNL     1     -11.184  -1.750  16.932  0.00  0.00    +0.000 C 
ATOM     52  H   UNL     1     -10.610  -1.047  16.326  0.00  0.00    +0.000 HD
ATOM     53  H   UNL     1     -11.306  -1.306  17.930  0.00  0.00    +0.000 HD
BRANCH  51  54
ATOM     54  N   UNL     1     -12.539  -1.864  16.357  0.00  0.00    +0.000 NA
ATOM     55  H   UNL     1     -12.808  -0.994  15.900  0.00  0.00    +0.000 HD
ATOM     56  H   UNL     1     -13.233  -2.034  17.085  0.00  0.00    +0.000 HD
ENDBRANCH  51  54
ENDBRANCH  12  51
TORSDOF 5
ENDMDL
MODEL 5
REMARK VINA RESULT:    -9.094      1.147      2.015
REMARK INTER + INTRA:         -11.886
REMARK INTER:                 -12.024
REMARK INTRA:                   0.138
REMARK UNBOUND:                -0.666
REMARK  Name = 
REMARK  5 active torsions:
REMARK  status: ('A' for Active; 'I' for Inactive)
REMARK    1  A    between atoms: C_1  and  N_2
REMARK    2  A    between atoms: C_4  and  C_5
REMARK    3  A    between atoms: C_6  and  C_7
REMARK    4  A    between atoms: C_18  and  C_19
REMARK    5  A    between atoms: C_19  and  N_20
REMARK                            x       y       z     vdW  Elec       q    Type
REMARK                         _______ _______ _______ _____ _____    ______ ____
ROOT
ATOM      1  C   UNL     1      -8.617  -4.307  19.573  0.00  0.00    +0.000 A 
ATOM      2  C   UNL     1      -8.559  -3.702  20.836  0.00  0.00    +0.000 A 
ATOM      3  N   UNL     1      -7.276  -3.925  21.272  0.00  0.00    +0.000 N 
ATOM      4  C   UNL     1      -6.543  -4.702  20.406  0.00  0.00    +0.000 A 
ATOM      5  C   UNL     1      -5.225  -5.186  20.518  0.00  0.00    +0.000 A 
ATOM      6  C   UNL     1      -4.707  -5.954  19.481  0.00  0.00    +0.000 A 
ATOM      7  C   UNL     1      -5.477  -6.214  18.358  0.00  0.00    +0.000 A 
ATOM      8  C   UNL     1      -6.793  -5.718  18.251  0.00  0.00    +0.000 A 
ATOM      9  C   UNL     1      -7.352  -4.953  19.307  0.00  0.00    +0.000 A 
ATOM     10  C   UNL     1      -6.687  -3.397  22.471  0.00  0.00    +0.000 C 
ATOM     11  C   UNL     1      -7.585  -2.562  23.345  0.00  0.00    +0.000 C 
ATOM     12  C   UNL     1      -9.102  -2.717  23.184  0.00  0.00    +0.000 C 
ATOM     13  C   UNL     1      -9.535  -2.883  21.686  0.00  0.00    +0.000 C 
ATOM     14  H   UNL     1      -4.621  -4.977  21.394  0.00  0.00    +0.000 HD
ATOM     15  H   UNL     1      -3.697  -6.347  19.558  0.00  0.00    +0.000 HD
ATOM     16  H   UNL     1      -5.059  -6.814  17.552  0.00  0.00    +0.000 HD
ATOM     17  H   UNL     1      -7.367  -5.939  17.354  0.00  0.00    +0.000 HD
ATOM     18  H   UNL     1      -5.835  -2.779  22.158  0.00  0.00    +0.000 HD
ATOM     19  H   UNL     1      -6.291  -4.248  23.036  0.00  0.00    +0.000 HD
ATOM     20  H   UNL     1      -7.316  -2.800  24.381  0.00  0.00    +0.000 HD
ATOM     21  H   UNL     1      -7.316  -1.513  23.181  0.00  0.00    +0.000 HD
ATOM     22  H   UNL     1      -9.415  -3.636  23.699  0.00  0.00    +0.000 HD
ATOM     23  H   UNL     1      -9.686  -1.904  21.216  0.00  0.00    +0.000 HD
ATOM     24  H   UNL     1     -10.511  -3.391  21.671  0.00  0.00    +0.000 HD
ENDROOT
BRANCH   1  26
ATOM     25  C   UNL     1     -10.233  -5.261  17.888  0.00  0.00    +0.000 C 
ATOM     26  C   UNL     1      -9.714  -4.281  18.659  0.00  0.00    +0.000 C 
ATOM     27  C   UNL     1     -10.558  -3.078  18.483  0.00  0.00    +0.000 C 
ATOM     28  O   UNL     1     -10.376  -1.974  18.958  0.00  0.00    +0.000 OA
ATOM     29  N   UNL     1     -11.565  -3.418  17.652  0.00  0.00    +0.000 N 
ATOM     30  C   UNL     1     -11.381  -4.656  17.148  0.00  0.00    +0.000 C 
ATOM     31  O   UNL     1     -12.005  -5.139  16.237  0.00  0.00    +0.000 OA
ATOM     32  H   UNL     1     -12.232  -2.766  17.283  0.00  0.00    +0.000 HD
BRANCH  25  35
ATOM     33  N   UNL     1      -9.235  -8.476  16.591  0.00  0.00    +0.000 N 
ATOM     34  C   UNL     1      -9.676  -7.193  16.451  0.00  0.00    +0.000 A 
ATOM     35  C   UNL     1      -9.765  -6.609  17.697  0.00  0.00    +0.000 A 
ATOM     36  C   UNL     1      -9.350  -7.611  18.649  0.00  0.00    +0.000 A 
ATOM     37  C   UNL     1      -9.197  -7.674  20.054  0.00  0.00    +0.000 A 
ATOM     38  C   UNL     1      -8.801  -8.872  20.673  0.00  0.00    +0.000 A 
ATOM     39  C   UNL     1      -8.537 -10.007  19.918  0.00  0.00    +0.000 A 
ATOM     40  C   UNL     1      -8.648  -9.974  18.529  0.00  0.00    +0.000 A 
ATOM     41  C   UNL     1      -9.051  -8.774  17.919  0.00  0.00    +0.000 A 
ATOM     42  H   UNL     1      -9.896  -6.806  15.466  0.00  0.00    +0.000 HD
ATOM     43  H   UNL     1      -9.398  -6.811  20.680  0.00  0.00    +0.000 HD
ATOM     44  H   UNL     1      -8.710  -8.913  21.756  0.00  0.00    +0.000 HD
ATOM     45  H   UNL     1      -8.238 -10.930  20.411  0.00  0.00    +0.000 HD
ATOM     46  H   UNL     1      -8.436 -10.862  17.941  0.00  0.00    +0.000 HD
BRANCH  33  47
ATOM     47  C   UNL     1      -9.013  -9.376  15.485  0.00  0.00    +0.000 C 
ATOM     48  H   UNL     1      -7.965  -9.324  15.177  0.00  0.00    +0.000 HD
ATOM     49  H   UNL     1      -9.656  -9.072  14.656  0.00  0.00    +0.000 HD
ATOM     50  H   UNL     1      -9.248 -10.391  15.815  0.00  0.00    +0.000 HD
ENDBRANCH  33  47
ENDBRANCH  25  35
ENDBRANCH   1  26
BRANCH  12  51
ATOM     51  C   UNL     1      -9.749  -1.519  23.967  0.00  0.00    +0.000 C 
ATOM     52  H   UNL     1     -10.832  -1.626  24.064  0.00  0.00    +0.000 HD
ATOM     53  H   UNL     1      -9.555  -0.574  23.442  0.00  0.00    +0.000 HD
BRANCH  51  54
ATOM     54  N   UNL     1      -9.172  -1.375  25.317  0.00  0.00    +0.000 NA
ATOM     55  H   UNL     1      -9.364  -2.203  25.880  0.00  0.00    +0.000 HD
ATOM     56  H   UNL     1      -9.590  -0.587  25.812  0.00  0.00    +0.000 HD
ENDBRANCH  51  54
ENDBRANCH  12  51
TORSDOF 5
ENDMDL
MODEL 6
REMARK VINA RESULT:    -9.049      2.354      4.927
REMARK INTER + INTRA:         -11.832
REMARK INTER:                 -11.306
REMARK INTRA:                  -0.526
REMARK UNBOUND:                -0.666
REMARK  Name = 
REMARK  5 active torsions:
REMARK  status: ('A' for Active; 'I' for Inactive)
REMARK    1  A    between atoms: C_1  and  N_2
REMARK    2  A    between atoms: C_4  and  C_5
REMARK    3  A    between atoms: C_6  and  C_7
REMARK    4  A    between atoms: C_18  and  C_19
REMARK    5  A    between atoms: C_19  and  N_20
REMARK                            x       y       z     vdW  Elec       q    Type
REMARK                         _______ _______ _______ _____ _____    ______ ____
ROOT
ATOM      1  C   UNL     1      -8.168  -3.242  21.380  0.00  0.00    +0.000 A 
ATOM      2  C   UNL     1      -9.071  -2.554  20.559  0.00  0.00    +0.000 A 
ATOM      3  N   UNL     1      -9.975  -1.991  21.427  0.00  0.00    +0.000 N 
ATOM      4  C   UNL     1      -9.751  -2.346  22.737  0.00  0.00    +0.000 A 
ATOM      5  C   UNL     1     -10.478  -2.020  23.899  0.00  0.00    +0.000 A 
ATOM      6  C   UNL     1     -10.028  -2.504  25.123  0.00  0.00    +0.000 A 
ATOM      7  C   UNL     1      -8.876  -3.274  25.184  0.00  0.00    +0.000 A 
ATOM      8  C   UNL     1      -8.151  -3.587  24.016  0.00  0.00    +0.000 A 
ATOM      9  C   UNL     1      -8.604  -3.126  22.753  0.00  0.00    +0.000 A 
ATOM     10  C   UNL     1     -11.035  -1.088  21.075  0.00  0.00    +0.000 C 
ATOM     11  C   UNL     1     -11.187  -0.774  19.611  0.00  0.00    +0.000 C 
ATOM     12  C   UNL     1     -10.575  -1.744  18.593  0.00  0.00    +0.000 C 
ATOM     13  C   UNL     1      -9.182  -2.299  19.052  0.00  0.00    +0.000 C 
ATOM     14  H   UNL     1     -11.375  -1.412  23.851  0.00  0.00    +0.000 HD
ATOM     15  H   UNL     1     -10.584  -2.274  26.027  0.00  0.00    +0.000 HD
ATOM     16  H   UNL     1      -8.534  -3.644  26.149  0.00  0.00    +0.000 HD
ATOM     17  H   UNL     1      -7.251  -4.190  24.102  0.00  0.00    +0.000 HD
ATOM     18  H   UNL     1     -10.840  -0.150  21.613  0.00  0.00    +0.000 HD
ATOM     19  H   UNL     1     -11.964  -1.512  21.472  0.00  0.00    +0.000 HD
ATOM     20  H   UNL     1     -12.265  -0.700  19.422  0.00  0.00    +0.000 HD
ATOM     21  H   UNL     1     -10.768   0.224  19.446  0.00  0.00    +0.000 HD
ATOM     22  H   UNL     1     -11.238  -2.616  18.501  0.00  0.00    +0.000 HD
ATOM     23  H   UNL     1      -8.376  -1.624  18.743  0.00  0.00    +0.000 HD
ATOM     24  H   UNL     1      -9.010  -3.252  18.531  0.00  0.00    +0.000 HD
ENDROOT
BRANCH   1  26
ATOM     25  C   UNL     1      -6.821  -4.941  20.093  0.00  0.00    +0.000 C 
ATOM     26  C   UNL     1      -6.984  -3.925  20.968  0.00  0.00    +0.000 C 
ATOM     27  C   UNL     1      -5.640  -3.514  21.432  0.00  0.00    +0.000 C 
ATOM     28  O   UNL     1      -5.375  -2.677  22.273  0.00  0.00    +0.000 OA
ATOM     29  N   UNL     1      -4.743  -4.274  20.772  0.00  0.00    +0.000 N 
ATOM     30  C   UNL     1      -5.357  -5.236  20.052  0.00  0.00    +0.000 C 
ATOM     31  O   UNL     1      -4.810  -6.174  19.531  0.00  0.00    +0.000 OA
ATOM     32  H   UNL     1      -3.758  -4.274  20.964  0.00  0.00    +0.000 HD
BRANCH  25  35
ATOM     33  N   UNL     1      -9.549  -6.064  18.018  0.00  0.00    +0.000 N 
ATOM     34  C   UNL     1      -8.709  -5.108  18.506  0.00  0.00    +0.000 A 
ATOM     35  C   UNL     1      -7.820  -5.696  19.383  0.00  0.00    +0.000 A 
ATOM     36  C   UNL     1      -8.153  -7.099  19.422  0.00  0.00    +0.000 A 
ATOM     37  C   UNL     1      -7.650  -8.243  20.087  0.00  0.00    +0.000 A 
ATOM     38  C   UNL     1      -8.271  -9.492  19.920  0.00  0.00    +0.000 A 
ATOM     39  C   UNL     1      -9.375  -9.630  19.090  0.00  0.00    +0.000 A 
ATOM     40  C   UNL     1      -9.880  -8.532  18.396  0.00  0.00    +0.000 A 
ATOM     41  C   UNL     1      -9.257  -7.285  18.574  0.00  0.00    +0.000 A 
ATOM     42  H   UNL     1      -8.821  -4.082  18.188  0.00  0.00    +0.000 HD
ATOM     43  H   UNL     1      -6.792  -8.176  20.748  0.00  0.00    +0.000 HD
ATOM     44  H   UNL     1      -7.888 -10.359  20.455  0.00  0.00    +0.000 HD
ATOM     45  H   UNL     1      -9.851 -10.602  18.976  0.00  0.00    +0.000 HD
ATOM     46  H   UNL     1     -10.741  -8.645  17.744  0.00  0.00    +0.000 HD
BRANCH  33  47
ATOM     47  C   UNL     1     -10.597  -5.801  17.060  0.00  0.00    +0.000 C 
ATOM     48  H   UNL     1     -11.455  -5.354  17.572  0.00  0.00    +0.000 HD
ATOM     49  H   UNL     1     -10.894  -6.746  16.601  0.00  0.00    +0.000 HD
ATOM     50  H   UNL     1     -10.213  -5.102  16.313  0.00  0.00    +0.000 HD
ENDBRANCH  33  47
ENDBRANCH  25  35
ENDBRANCH   1  26
BRANCH  12  51
ATOM     51  C   UNL     1     -10.608  -1.004  17.209  0.00  0.00    +0.000 C 
ATOM     52  H   UNL     1     -10.312   0.044  17.294  0.00  0.00    +0.000 HD
ATOM     53  H   UNL     1     -11.623  -1.030  16.788  0.00  0.00    +0.000 HD
BRANCH  51  54
ATOM     54  N   UNL     1      -9.728  -1.658  16.221  0.00  0.00    +0.000 NA
ATOM     55  H   UNL     1     -10.234  -2.385  15.716  0.00  0.00    +0.000 HD
ATOM     56  H   UNL     1      -8.941  -2.119  16.679  0.00  0.00    +0.000 HD
ENDBRANCH  51  54
ENDBRANCH  12  51
TORSDOF 5
ENDMDL
MODEL 7
REMARK VINA RESULT:    -8.937      2.653      6.477
REMARK INTER + INTRA:         -11.692
REMARK INTER:                 -10.365
REMARK INTRA:                  -1.327
REMARK UNBOUND:                -0.666
REMARK  Name = 
REMARK  5 active torsions:
REMARK  status: ('A' for Active; 'I' for Inactive)
REMARK    1  A    between atoms: C_1  and  N_2
REMARK    2  A    between atoms: C_4  and  C_5
REMARK    3  A    between atoms: C_6  and  C_7
REMARK    4  A    between atoms: C_18  and  C_19
REMARK    5  A    between atoms: C_19  and  N_20
REMARK                            x       y       z     vdW  Elec       q    Type
REMARK                         _______ _______ _______ _____ _____    ______ ____
ROOT
ATOM      1  C   UNL     1      -8.115  -3.801  20.423  0.00  0.00    +0.000 A 
ATOM      2  C   UNL     1      -8.582  -4.651  19.411  0.00  0.00    +0.000 A 
ATOM      3  N   UNL     1      -7.507  -5.447  19.098  0.00  0.00    +0.000 N 
ATOM      4  C   UNL     1      -6.367  -5.102  19.787  0.00  0.00    +0.000 A 
ATOM      5  C   UNL     1      -5.066  -5.637  19.709  0.00  0.00    +0.000 A 
ATOM      6  C   UNL     1      -4.079  -5.109  20.535  0.00  0.00    +0.000 A 
ATOM      7  C   UNL     1      -4.388  -4.090  21.423  0.00  0.00    +0.000 A 
ATOM      8  C   UNL     1      -5.695  -3.567  21.499  0.00  0.00    +0.000 A 
ATOM      9  C   UNL     1      -6.713  -4.072  20.650  0.00  0.00    +0.000 A 
ATOM     10  C   UNL     1      -7.515  -6.562  18.193  0.00  0.00    +0.000 C 
ATOM     11  C   UNL     1      -8.818  -6.844  17.493  0.00  0.00    +0.000 C 
ATOM     12  C   UNL     1      -9.853  -5.716  17.403  0.00  0.00    +0.000 C 
ATOM     13  C   UNL     1      -9.931  -4.865  18.718  0.00  0.00    +0.000 C 
ATOM     14  H   UNL     1      -4.827  -6.438  19.019  0.00  0.00    +0.000 HD
ATOM     15  H   UNL     1      -3.067  -5.500  20.477  0.00  0.00    +0.000 HD
ATOM     16  H   UNL     1      -3.607  -3.688  22.065  0.00  0.00    +0.000 HD
ATOM     17  H   UNL     1      -5.903  -2.771  22.210  0.00  0.00    +0.000 HD
ATOM     18  H   UNL     1      -7.238  -7.447  18.781  0.00  0.00    +0.000 HD
ATOM     19  H   UNL     1      -6.720  -6.386  17.460  0.00  0.00    +0.000 HD
ATOM     20  H   UNL     1      -8.559  -7.164  16.477  0.00  0.00    +0.000 HD
ATOM     21  H   UNL     1      -9.275  -7.707  17.990  0.00  0.00    +0.000 HD
ATOM     22  H   UNL     1      -9.546  -5.024  16.607  0.00  0.00    +0.000 HD
ATOM     23  H   UNL     1     -10.632  -5.316  19.430  0.00  0.00    +0.000 HD
ATOM     24  H   UNL     1     -10.342  -3.878  18.457  0.00  0.00    +0.000 HD
ENDROOT
BRANCH   1  26
ATOM     25  C   UNL     1      -9.579  -1.770  20.722  0.00  0.00    +0.000 C 
ATOM     26  C   UNL     1      -8.876  -2.840  21.154  0.00  0.00    +0.000 C 
ATOM     27  C   UNL     1      -9.081  -2.950  22.616  0.00  0.00    +0.000 C 
ATOM     28  O   UNL     1      -8.560  -3.744  23.375  0.00  0.00    +0.000 OA
ATOM     29  N   UNL     1      -9.934  -1.968  22.972  0.00  0.00    +0.000 N 
ATOM     30  C   UNL     1     -10.181  -1.139  21.936  0.00  0.00    +0.000 C 
ATOM     31  O   UNL     1     -10.738  -0.074  22.011  0.00  0.00    +0.000 OA
ATOM     32  H   UNL     1     -10.171  -1.748  23.922  0.00  0.00    +0.000 HD
BRANCH  25  35
ATOM     33  N   UNL     1      -9.241   0.104  17.659  0.00  0.00    +0.000 N 
ATOM     34  C   UNL     1      -8.883  -0.209  18.937  0.00  0.00    +0.000 A 
ATOM     35  C   UNL     1      -9.688  -1.233  19.391  0.00  0.00    +0.000 A 
ATOM     36  C   UNL     1     -10.590  -1.554  18.311  0.00  0.00    +0.000 A 
ATOM     37  C   UNL     1     -11.635  -2.486  18.106  0.00  0.00    +0.000 A 
ATOM     38  C   UNL     1     -12.358  -2.488  16.900  0.00  0.00    +0.000 A 
ATOM     39  C   UNL     1     -12.051  -1.590  15.888  0.00  0.00    +0.000 A 
ATOM     40  C   UNL     1     -11.009  -0.677  16.044  0.00  0.00    +0.000 A 
ATOM     41  C   UNL     1     -10.296  -0.677  17.254  0.00  0.00    +0.000 A 
ATOM     42  H   UNL     1      -8.082   0.334  19.418  0.00  0.00    +0.000 HD
ATOM     43  H   UNL     1     -11.909  -3.201  18.874  0.00  0.00    +0.000 HD
ATOM     44  H   UNL     1     -13.174  -3.195  16.764  0.00  0.00    +0.000 HD
ATOM     45  H   UNL     1     -12.624  -1.597  14.963  0.00  0.00    +0.000 HD
ATOM     46  H   UNL     1     -10.768   0.021  15.247  0.00  0.00    +0.000 HD
BRANCH  33  47
ATOM     47  C   UNL     1      -8.594   1.125  16.869  0.00  0.00    +0.000 C 
ATOM     48  H   UNL     1      -9.347   1.812  16.474  0.00  0.00    +0.000 HD
ATOM     49  H   UNL     1      -8.066   0.643  16.044  0.00  0.00    +0.000 HD
ATOM     50  H   UNL     1      -7.902   1.672  17.515  0.00  0.00    +0.000 HD
ENDBRANCH  33  47
ENDBRANCH  25  35
ENDBRANCH   1  26
BRANCH  12  51
ATOM     51  C   UNL     1     -11.191  -6.387  16.929  0.00  0.00    +0.000 C 
ATOM     52  H   UNL     1     -11.996  -6.265  17.657  0.00  0.00    +0.000 HD
ATOM     53  H   UNL     1     -11.042  -7.465  16.776  0.00  0.00    +0.000 HD
BRANCH  51  54
ATOM     54  N   UNL     1     -11.645  -5.841  15.635  0.00  0.00    +0.000 NA
ATOM     55  H   UNL     1     -10.849  -5.625  15.037  0.00  0.00    +0.000 HD
ATOM     56  H   UNL     1     -12.154  -4.966  15.766  0.00  0.00    +0.000 HD
ENDBRANCH  51  54
ENDBRANCH  12  51
TORSDOF 5
ENDMDL
MODEL 8
REMARK VINA RESULT:    -8.775      2.933      6.552
REMARK INTER + INTRA:         -11.493
REMARK INTER:                  -9.656
REMARK INTRA:                  -1.837
REMARK UNBOUND:                -0.666
REMARK  Name = 
REMARK  5 active torsions:
REMARK  status: ('A' for Active; 'I' for Inactive)
REMARK    1  A    between atoms: C_1  and  N_2
REMARK    2  A    between atoms: C_4  and  C_5
REMARK    3  A    between atoms: C_6  and  C_7
REMARK    4  A    between atoms: C_18  and  C_19
REMARK    5  A    between atoms: C_19  and  N_20
REMARK                            x       y       z     vdW  Elec       q    Type
REMARK                         _______ _______ _______ _____ _____    ______ ____
ROOT
ATOM      1  C   UNL     1      -9.390  -2.739  19.877  0.00  0.00    +0.000 A 
ATOM      2  C   UNL     1      -9.408  -3.924  19.129  0.00  0.00    +0.000 A 
ATOM      3  N   UNL     1      -8.378  -4.676  19.638  0.00  0.00    +0.000 N 
ATOM      4  C   UNL     1      -7.656  -4.011  20.603  0.00  0.00    +0.000 A 
ATOM      5  C   UNL     1      -6.512  -4.419  21.318  0.00  0.00    +0.000 A 
ATOM      6  C   UNL     1      -5.974  -3.550  22.261  0.00  0.00    +0.000 A 
ATOM      7  C   UNL     1      -6.572  -2.321  22.495  0.00  0.00    +0.000 A 
ATOM      8  C   UNL     1      -7.721  -1.927  21.781  0.00  0.00    +0.000 A 
ATOM      9  C   UNL     1      -8.275  -2.785  20.795  0.00  0.00    +0.000 A 
ATOM     10  C   UNL     1      -8.061  -6.030  19.278  0.00  0.00    +0.000 C 
ATOM     11  C   UNL     1      -8.916  -6.654  18.208  0.00  0.00    +0.000 C 
ATOM     12  C   UNL     1      -9.700  -5.727  17.272  0.00  0.00    +0.000 C 
ATOM     13  C   UNL     1     -10.303  -4.487  18.020  0.00  0.00    +0.000 C 
ATOM     14  H   UNL     1      -6.049  -5.382  21.138  0.00  0.00    +0.000 HD
ATOM     15  H   UNL     1      -5.083  -3.842  22.811  0.00  0.00    +0.000 HD
ATOM     16  H   UNL     1      -6.142  -1.653  23.239  0.00  0.00    +0.000 HD
ATOM     17  H   UNL     1      -8.166  -0.958  21.993  0.00  0.00    +0.000 HD
ATOM     18  H   UNL     1      -8.156  -6.630  20.194  0.00  0.00    +0.000 HD
ATOM     19  H   UNL     1      -7.006  -6.044  18.979  0.00  0.00    +0.000 HD
ATOM     20  H   UNL     1      -8.247  -7.279  17.604  0.00  0.00    +0.000 HD
ATOM     21  H   UNL     1      -9.618  -7.332  18.707  0.00  0.00    +0.000 HD
ATOM     22  H   UNL     1      -9.008  -5.326  16.519  0.00  0.00    +0.000 HD
ATOM     23  H   UNL     1     -11.286  -4.729  18.440  0.00  0.00    +0.000 HD
ATOM     24  H   UNL     1     -10.467  -3.692  17.277  0.00  0.00    +0.000 HD
ENDROOT
BRANCH   1  26
ATOM     25  C   UNL     1     -10.637  -0.853  18.759  0.00  0.00    +0.000 C 
ATOM     26  C   UNL     1     -10.321  -1.660  19.796  0.00  0.00    +0.000 C 
ATOM     27  C   UNL     1     -11.206  -1.303  20.927  0.00  0.00    +0.000 C 
ATOM     28  O   UNL     1     -11.182  -1.758  22.054  0.00  0.00    +0.000 OA
ATOM     29  N   UNL     1     -12.037  -0.334  20.490  0.00  0.00    +0.000 N 
ATOM     30  C   UNL     1     -11.687   0.085  19.256  0.00  0.00    +0.000 C 
ATOM     31  O   UNL     1     -12.118   1.065  18.704  0.00  0.00    +0.000 OA
ATOM     32  H   UNL     1     -12.679   0.163  21.079  0.00  0.00    +0.000 HD
BRANCH  25  35
ATOM     33  N   UNL     1      -8.571  -0.239  15.866  0.00  0.00    +0.000 N 
ATOM     34  C   UNL     1      -8.850  -0.160  17.199  0.00  0.00    +0.000 A 
ATOM     35  C   UNL     1     -10.050  -0.793  17.446  0.00  0.00    +0.000 A 
ATOM     36  C   UNL     1     -10.523  -1.284  16.174  0.00  0.00    +0.000 A 
ATOM     37  C   UNL     1     -11.649  -2.012  15.723  0.00  0.00    +0.000 A 
ATOM     38  C   UNL     1     -11.816  -2.286  14.355  0.00  0.00    +0.000 A 
ATOM     39  C   UNL     1     -10.875  -1.864  13.426  0.00  0.00    +0.000 A 
ATOM     40  C   UNL     1      -9.738  -1.170  13.837  0.00  0.00    +0.000 A 
ATOM     41  C   UNL     1      -9.582  -0.894  15.206  0.00  0.00    +0.000 A 
ATOM     42  H   UNL     1      -8.165   0.351  17.860  0.00  0.00    +0.000 HD
ATOM     43  H   UNL     1     -12.410  -2.356  16.416  0.00  0.00    +0.000 HD
ATOM     44  H   UNL     1     -12.699  -2.827  14.019  0.00  0.00    +0.000 HD
ATOM     45  H   UNL     1     -11.021  -2.077  12.369  0.00  0.00    +0.000 HD
ATOM     46  H   UNL     1      -9.001  -0.845  13.109  0.00  0.00    +0.000 HD
BRANCH  33  47
ATOM     47  C   UNL     1      -7.381   0.308  15.259  0.00  0.00    +0.000 C 
ATOM     48  H   UNL     1      -7.258   1.349  15.570  0.00  0.00    +0.000 HD
ATOM     49  H   UNL     1      -7.491   0.257  14.174  0.00  0.00    +0.000 HD
ATOM     50  H   UNL     1      -6.523  -0.279  15.597  0.00  0.00    +0.000 HD
ENDBRANCH  33  47
ENDBRANCH  25  35
ENDBRANCH   1  26
BRANCH  12  51
ATOM     51  C   UNL     1     -10.721  -6.641  16.506  0.00  0.00    +0.000 C 
ATOM     52  H   UNL     1     -11.294  -7.279  17.182  0.00  0.00    +0.000 HD
ATOM     53  H   UNL     1     -10.190  -7.296  15.802  0.00  0.00    +0.000 HD
BRANCH  51  54
ATOM     54  N   UNL     1     -11.669  -5.845  15.703  0.00  0.00    +0.000 NA
ATOM     55  H   UNL     1     -12.436  -5.507  16.282  0.00  0.00    +0.000 HD
ATOM     56  H   UNL     1     -12.092  -6.411  14.966  0.00  0.00    +0.000 HD
ENDBRANCH  51  54
ENDBRANCH  12  51
TORSDOF 5
ENDMDL
MODEL 9
REMARK VINA RESULT:    -8.753      3.151      6.679
REMARK INTER + INTRA:         -11.466
REMARK INTER:                  -9.545
REMARK INTRA:                  -1.920
REMARK UNBOUND:                -0.666
REMARK  Name = 
REMARK  5 active torsions:
REMARK  status: ('A' for Active; 'I' for Inactive)
REMARK    1  A    between atoms: C_1  and  N_2
REMARK    2  A    between atoms: C_4  and  C_5
REMARK    3  A    between atoms: C_6  and  C_7
REMARK    4  A    between atoms: C_18  and  C_19
REMARK    5  A    between atoms: C_19  and  N_20
REMARK                            x       y       z     vdW  Elec       q    Type
REMARK                         _______ _______ _______ _____ _____    ______ ____
ROOT
ATOM      1  C   UNL     1      -9.961  -3.156  19.057  0.00  0.00    +0.000 A 
ATOM      2  C   UNL     1      -8.789  -3.624  19.668  0.00  0.00    +0.000 A 
ATOM      3  N   UNL     1      -8.555  -4.846  19.087  0.00  0.00    +0.000 N 
ATOM      4  C   UNL     1      -9.546  -5.220  18.209  0.00  0.00    +0.000 A 
ATOM      5  C   UNL     1      -9.693  -6.406  17.464  0.00  0.00    +0.000 A 
ATOM      6  C   UNL     1     -10.797  -6.534  16.628  0.00  0.00    +0.000 A 
ATOM      7  C   UNL     1     -11.715  -5.499  16.526  0.00  0.00    +0.000 A 
ATOM      8  C   UNL     1     -11.554  -4.313  17.270  0.00  0.00    +0.000 A 
ATOM      9  C   UNL     1     -10.449  -4.169  18.149  0.00  0.00    +0.000 A 
ATOM     10  C   UNL     1      -7.400  -5.674  19.297  0.00  0.00    +0.000 C 
ATOM     11  C   UNL     1      -6.383  -5.165  20.283  0.00  0.00    +0.000 C 
ATOM     12  C   UNL     1      -6.828  -4.117  21.309  0.00  0.00    +0.000 C 
ATOM     13  C   UNL     1      -7.809  -3.056  20.699  0.00  0.00    +0.000 C 
ATOM     14  H   UNL     1      -8.972  -7.213  17.539  0.00  0.00    +0.000 HD
ATOM     15  H   UNL     1     -10.934  -7.448  16.057  0.00  0.00    +0.000 HD
ATOM     16  H   UNL     1     -12.573  -5.611  15.866  0.00  0.00    +0.000 HD
ATOM     17  H   UNL     1     -12.291  -3.520  17.163  0.00  0.00    +0.000 HD
ATOM     18  H   UNL     1      -6.912  -5.786  18.320  0.00  0.00    +0.000 HD
ATOM     19  H   UNL     1      -7.765  -6.662  19.602  0.00  0.00    +0.000 HD
ATOM     20  H   UNL     1      -6.007  -6.044  20.819  0.00  0.00    +0.000 HD
ATOM     21  H   UNL     1      -5.543  -4.762  19.706  0.00  0.00    +0.000 HD
ATOM     22  H   UNL     1      -7.385  -4.626  22.109  0.00  0.00    +0.000 HD
ATOM     23  H   UNL     1      -7.251  -2.228  20.246  0.00  0.00    +0.000 HD
ATOM     24  H   UNL     1      -8.394  -2.623  21.525  0.00  0.00    +0.000 HD
ENDROOT
BRANCH   1  26
ATOM     25  C   UNL     1     -10.755  -0.859  18.386  0.00  0.00    +0.000 C 
ATOM     26  C   UNL     1     -10.578  -1.883  19.249  0.00  0.00    +0.000 C 
ATOM     27  C   UNL     1     -11.241  -1.518  20.521  0.00  0.00    +0.000 C 
ATOM     28  O   UNL     1     -11.244  -2.151  21.559  0.00  0.00    +0.000 OA
ATOM     29  N   UNL     1     -11.821  -0.314  20.335  0.00  0.00    +0.000 N 
ATOM     30  C   UNL     1     -11.477   0.211  19.140  0.00  0.00    +0.000 C 
ATOM     31  O   UNL     1     -11.678   1.346  18.793  0.00  0.00    +0.000 OA
ATOM     32  H   UNL     1     -12.258   0.217  21.065  0.00  0.00    +0.000 HD
BRANCH  25  35
ATOM     33  N   UNL     1      -8.862  -0.246  15.378  0.00  0.00    +0.000 N 
ATOM     34  C   UNL     1      -9.002  -0.314  16.733  0.00  0.00    +0.000 A 
ATOM     35  C   UNL     1     -10.285  -0.721  17.033  0.00  0.00    +0.000 A 
ATOM     36  C   UNL     1     -10.961  -0.908  15.772  0.00  0.00    +0.000 A 
ATOM     37  C   UNL     1     -12.253  -1.315  15.364  0.00  0.00    +0.000 A 
ATOM     38  C   UNL     1     -12.592  -1.341  14.000  0.00  0.00    +0.000 A 
ATOM     39  C   UNL     1     -11.665  -0.983  13.032  0.00  0.00    +0.000 A 
ATOM     40  C   UNL     1     -10.373  -0.604  13.395  0.00  0.00    +0.000 A 
ATOM     41  C   UNL     1     -10.044  -0.575  14.760  0.00  0.00    +0.000 A 
ATOM     42  H   UNL     1      -8.168  -0.059  17.371  0.00  0.00    +0.000 HD
ATOM     43  H   UNL     1     -13.008  -1.598  16.090  0.00  0.00    +0.000 HD
ATOM     44  H   UNL     1     -13.596  -1.634  13.702  0.00  0.00    +0.000 HD
ATOM     45  H   UNL     1     -11.944  -0.999  11.980  0.00  0.00    +0.000 HD
ATOM     46  H   UNL     1      -9.649  -0.329  12.634  0.00  0.00    +0.000 HD
BRANCH  33  47
ATOM     47  C   UNL     1      -7.639   0.133  14.713  0.00  0.00    +0.000 C 
ATOM     48  H   UNL     1      -7.594  -0.346  13.730  0.00  0.00    +0.000 HD
ATOM     49  H   UNL     1      -6.795  -0.198  15.323  0.00  0.00    +0.000 HD
ATOM     50  H   UNL     1      -7.636   1.219  14.591  0.00  0.00    +0.000 HD
ENDBRANCH  33  47
ENDBRANCH  25  35
ENDBRANCH   1  26
BRANCH  12  51
ATOM     51  C   UNL     1      -5.514  -3.556  21.960  0.00  0.00    +0.000 C 
ATOM     52  H   UNL     1      -5.247  -4.089  22.876  0.00  0.00    +0.000 HD
ATOM     53  H   UNL     1      -5.641  -2.496  22.218  0.00  0.00    +0.000 HD
BRANCH  51  54
ATOM     54  N   UNL     1      -4.371  -3.627  21.029  0.00  0.00    +0.000 NA
ATOM     55  H   UNL     1      -4.690  -3.843  20.086  0.00  0.00    +0.000 HD
ATOM     56  H   UNL     1      -3.728  -4.373  21.294  0.00  0.00    +0.000 HD
ENDBRANCH  51  54
ENDBRANCH  12  51
TORSDOF 5
ENDMDL
