REMARK  Name = 
REMARK  7 active torsions:
REMARK  status: ('A' for Active; 'I' for Inactive)
REMARK    1  A    between atoms: N_2  and  C_4
REMARK    2  A    between atoms: C_7  and  S_8
REMARK    3  A    between atoms: S_8  and  N_11
REMARK    4  A    between atoms: C_14  and  O_15
REMARK    5  A    between atoms: C_16  and  O_17
REMARK    6  A    between atoms: C_23  and  O_24
REMARK    7  A    between atoms: C_25  and  O_26
REMARK                            x       y       z     vdW  Elec       q    Type
REMARK                         _______ _______ _______ _____ _____    ______ ____
ROOT
ATOM      1  N   UNL     1       0.288  -0.826   0.217  0.00  0.00    +0.000 N 
ATOM      2  C   UNL     1      -0.280  -2.066   0.479  0.00  0.00    +0.000 A 
ATOM      3  C   UNL     1      -0.462  -2.871   1.616  0.00  0.00    +0.000 A 
ATOM      4  C   UNL     1      -1.497  -3.796   1.531  0.00  0.00    +0.000 A 
ATOM      5  C   UNL     1      -2.290  -3.895   0.394  0.00  0.00    +0.000 A 
ATOM      6  C   UNL     1      -1.873  -3.338  -0.806  0.00  0.00    +0.000 A 
ATOM      7  C   UNL     1      -0.763  -2.485  -0.758  0.00  0.00    +0.000 A 
ATOM      8  C   UNL     1       0.179  -1.958  -1.674  0.00  0.00    +0.000 A 
ATOM      9  C   UNL     1       0.723  -2.365  -2.911  0.00  0.00    +0.000 A 
ATOM     10  C   UNL     1       1.487  -1.461  -3.652  0.00  0.00    +0.000 A 
ATOM     11  C   UNL     1       1.502  -0.135  -3.258  0.00  0.00    +0.000 A 
ATOM     12  C   UNL     1       0.994   0.264  -2.017  0.00  0.00    +0.000 A 
ATOM     13  C   UNL     1       0.533  -0.716  -1.141  0.00  0.00    +0.000 A 
ATOM     14  H   UNL     1       0.108  -2.733   2.527  0.00  0.00    +0.000 HD
ATOM     15  H   UNL     1      -2.426  -3.502  -1.725  0.00  0.00    +0.000 HD
ATOM     16  H   UNL     1       0.604  -3.392  -3.249  0.00  0.00    +0.000 HD
ATOM     17  H   UNL     1       1.979  -1.795  -4.560  0.00  0.00    +0.000 HD
ENDROOT
BRANCH   1  18
ATOM     18  S   UNL     1       1.005   0.131   1.439  0.00  0.00    +0.000 S 
ATOM     19  O   UNL     1       2.434   0.068   1.181  0.00  0.00    +0.000 OA
ATOM     20  O   UNL     1       0.460  -0.357   2.697  0.00  0.00    +0.000 OA
BRANCH  18  24
ATOM     21  C   UNL     1      -0.061   4.562   1.532  0.00  0.00    +0.000 A 
ATOM     22  C   UNL     1       1.011   4.117   0.751  0.00  0.00    +0.000 A 
ATOM     23  C   UNL     1       1.292   2.754   0.684  0.00  0.00    +0.000 A 
ATOM     24  C   UNL     1       0.464   1.821   1.324  0.00  0.00    +0.000 A 
ATOM     25  C   UNL     1      -0.610   2.270   2.106  0.00  0.00    +0.000 A 
ATOM     26  C   UNL     1      -0.873   3.645   2.219  0.00  0.00    +0.000 A 
ATOM     27  H   UNL     1       1.653   4.817   0.221  0.00  0.00    +0.000 HD
ATOM     28  H   UNL     1       2.165   2.420   0.126  0.00  0.00    +0.000 HD
ATOM     29  H   UNL     1      -1.213   1.574   2.688  0.00  0.00    +0.000 HD
ATOM     30  H   UNL     1      -1.685   3.983   2.864  0.00  0.00    +0.000 HD
BRANCH  21  32
ATOM     31  O   UNL     1       0.414   6.774   1.021  0.00  0.00    +0.000 OA
ATOM     32  N   UNL     1      -0.319   6.011   1.664  0.00  0.00    +0.000 N 
ATOM     33  O   UNL     1      -1.226   6.359   2.410  0.00  0.00    +0.000 OA
ENDBRANCH  21  32
ENDBRANCH  18  24
ENDBRANCH   1  18
BRANCH   4  34
ATOM     34  O   UNL     1      -1.793  -4.618   2.582  0.00  0.00    +0.000 OA
ATOM     35  H   UNL     1      -0.943  -4.841   3.007  0.00  0.00    +0.000 HD
ENDBRANCH   4  34
BRANCH   5  36
ATOM     36  O   UNL     1      -3.475  -4.566   0.450  0.00  0.00    +0.000 OA
ATOM     37  H   UNL     1      -3.610  -4.737   1.405  0.00  0.00    +0.000 HD
ENDBRANCH   5  36
BRANCH  11  38
ATOM     38  O   UNL     1       1.984   0.846  -4.084  0.00  0.00    +0.000 OA
ATOM     39  H   UNL     1       2.354   0.420  -4.877  0.00  0.00    +0.000 HD
ENDBRANCH  11  38
BRANCH  12  40
ATOM     40  O   UNL     1       0.814   1.596  -1.776  0.00  0.00    +0.000 OA
ATOM     41  H   UNL     1       0.954   2.022  -2.648  0.00  0.00    +0.000 HD
ENDBRANCH  12  40
TORSDOF 7
