
 OpenBabel01112422113D

 31 33  0  0  0  0  0  0  0  0999 V2000
    1.1868   -0.1649    0.1840 N   0  0  0  0  0  0  0  0  0  0  0  0
    2.5686   -0.0780   -0.0123 C   0  0  0  0  0  0  0  0  0  0  0  0
    3.3630   -1.2460    0.0053 C   0  0  0  0  0  0  0  0  0  0  0  0
    4.7665   -1.1867   -0.0345 C   0  0  0  0  0  0  0  0  0  0  0  0
    5.3538    0.0638   -0.0505 C   0  0  0  0  0  0  0  0  0  0  0  0
    4.5729    1.2148   -0.0232 C   0  0  0  0  0  0  0  0  0  0  0  0
    3.1902    1.1718    0.0148 C   0  0  0  0  0  0  0  0  0  0  0  0
    5.4183    2.4083   -0.0130 C   0  0  0  0  0  0  0  0  0  0  0  0
    5.0307    3.5574    0.0047 O   0  0  0  0  0  0  0  0  0  0  0  0
    6.8152    1.9094   -0.0318 C   0  0  0  0  0  0  0  0  0  0  0  0
    7.8376    2.7746   -0.0129 C   0  0  0  0  0  0  0  0  0  0  0  0
    9.2552    2.4286   -0.0236 C   0  0  0  0  0  0  0  0  0  0  0  0
    9.9346    2.2961   -1.2389 C   0  0  0  0  0  0  0  0  0  0  0  0
   11.2981    1.9979   -1.2435 C   0  0  0  0  0  0  0  0  0  0  0  0
   12.1189    1.8491   -2.7550 Cl  0  0  0  0  0  0  0  0  0  0  0  0
   11.9946    1.8350   -0.0424 C   0  0  0  0  0  0  0  0  0  0  0  0
   13.3332    1.5354   -0.0451 O   0  0  0  0  0  0  0  0  0  0  0  0
   11.3185    1.9834    1.1705 C   0  0  0  0  0  0  0  0  0  0  0  0
   12.1359    1.8208    2.6823 Cl  0  0  0  0  0  0  0  0  0  0  0  0
    9.9523    2.2800    1.1809 C   0  0  0  0  0  0  0  0  0  0  0  0
    6.7860    0.4189   -0.0628 C   0  0  0  0  0  0  0  0  0  0  0  0
    7.7186   -0.3535   -0.0937 O   0  0  0  0  0  0  0  0  0  0  0  0
    0.7610   -1.0280   -0.1391 H   0  0  0  0  0  0  0  0  0  0  0  0
    0.6646    0.6557   -0.1111 H   0  0  0  0  0  0  0  0  0  0  0  0
    2.8802   -2.2210    0.0582 H   0  0  0  0  0  0  0  0  0  0  0  0
    5.3645   -2.0932   -0.0294 H   0  0  0  0  0  0  0  0  0  0  0  0
    2.6181    2.0926    0.0716 H   0  0  0  0  0  0  0  0  0  0  0  0
    7.6336    3.8452    0.0146 H   0  0  0  0  0  0  0  0  0  0  0  0
    9.4068    2.4318   -2.1799 H   0  0  0  0  0  0  0  0  0  0  0  0
   13.6098    1.4205   -0.9731 H   0  0  0  0  0  0  0  0  0  0  0  0
    9.4364    2.4015    2.1309 H   0  0  0  0  0  0  0  0  0  0  0  0
  1  2  1  0  0  0  0
  1 23  1  0  0  0  0
  1 24  1  0  0  0  0
  2  3  1  0  0  0  0
  2  7  2  0  0  0  0
  3  4  2  0  0  0  0
  3 25  1  0  0  0  0
  4  5  1  0  0  0  0
  4 26  1  0  0  0  0
  5  6  2  0  0  0  0
  5 21  1  0  0  0  0
  6  7  1  0  0  0  0
  6  8  1  0  0  0  0
  7 27  1  0  0  0  0
  8  9  2  0  0  0  0
  8 10  1  0  0  0  0
 10 11  2  0  0  0  0
 10 21  1  0  0  0  0
 11 12  1  0  0  0  0
 11 28  1  0  0  0  0
 12 13  1  0  0  0  0
 12 20  2  0  0  0  0
 13 14  2  0  0  0  0
 13 29  1  0  0  0  0
 14 15  1  0  0  0  0
 14 16  1  0  0  0  0
 16 17  1  0  0  0  0
 16 18  2  0  0  0  0
 17 30  1  0  0  0  0
 18 19  1  0  0  0  0
 18 20  1  0  0  0  0
 20 31  1  0  0  0  0
 21 22  2  0  0  0  0
M  END
$$$$
