
 OpenBabel01112422513D

 72 76  0  0  0  0  0  0  0  0999 V2000
    7.0571    3.5098    8.1196 C   0  0  0  0  0  0  0  0  0  0  0  0
    7.8786    2.5254    7.2849 C   0  0  0  0  0  0  0  0  0  0  0  0
    7.6463    2.6687    5.7988 C   0  0  0  0  0  0  0  0  0  0  0  0
    8.4473    3.4095    4.9491 C   0  0  0  0  0  0  0  0  0  0  0  0
    8.1038    3.5435    3.5743 C   0  0  0  0  0  0  0  0  0  0  0  0
    6.9409    2.9630    3.0154 C   0  0  0  0  0  0  0  0  0  0  0  0
    6.1152    2.1964    3.8059 C   0  0  0  0  0  0  0  0  0  0  0  0
    6.5408    2.0903    5.1983 C   0  0  0  0  0  0  0  0  0  0  0  0
    5.5767    1.2775    5.8790 C   0  0  0  0  0  0  0  0  0  0  0  0
    5.0397    0.9275    7.1043 N   0  0  0  0  0  0  0  0  0  0  0  0
    3.6268    0.6946    6.6365 C   0  0  0  0  0  0  0  0  0  0  0  0
    3.3239    0.1363    5.2970 C   0  0  0  0  0  0  0  0  0  0  0  0
    2.3522   -0.8595    5.3355 C   0  0  0  0  0  0  0  0  0  0  0  0
    1.6513   -1.1210    6.5434 C   0  0  0  0  0  0  0  0  0  0  0  0
    1.7664   -0.2912    7.6798 C   0  0  0  0  0  0  0  0  0  0  0  0
    2.7174    0.7108    7.7001 C   0  0  0  0  0  0  0  0  0  0  0  0
    2.7990    1.8312    8.7349 C   0  0  0  0  0  0  0  0  0  0  0  0
    2.5770    3.2204    8.0580 C   0  0  0  0  0  0  0  0  0  0  0  0
    2.8411    4.4940    8.8436 C   0  0  0  0  0  0  0  0  0  0  0  0
    3.0552    5.6927    8.1295 C   0  0  0  0  0  0  0  0  0  0  0  0
    3.2712    6.9074    8.7893 C   0  0  0  0  0  0  0  0  0  0  0  0
    3.2716    6.9473   10.1788 C   0  0  0  0  0  0  0  0  0  0  0  0
    3.0506    5.7753   10.9018 C   0  0  0  0  0  0  0  0  0  0  0  0
    2.8336    4.5576   10.2410 C   0  0  0  0  0  0  0  0  0  0  0  0
    4.1562    0.4318    3.9110 C   0  0  0  0  0  0  0  0  0  0  0  0
    4.6279    1.6697    3.4432 C   0  0  0  0  0  0  0  0  0  0  0  0
    3.6262    2.8376    3.3683 C   0  0  0  0  0  0  0  0  0  0  0  0
    3.5590    3.5344    2.0961 O   0  0  0  0  0  0  0  0  0  0  0  0
    2.4792    4.4174    1.9862 C   0  0  0  0  0  0  0  0  0  0  0  0
    1.3275    4.3062    2.7910 C   0  0  0  0  0  0  0  0  0  0  0  0
    0.2494    5.1849    2.6638 C   0  0  0  0  0  0  0  0  0  0  0  0
    0.2869    6.1955    1.7234 C   0  0  0  0  0  0  0  0  0  0  0  0
    1.4059    6.3195    0.9043 C   0  0  0  0  0  0  0  0  0  0  0  0
    2.5148    5.4519    1.0087 C   0  0  0  0  0  0  0  0  0  0  0  0
    3.6375    5.6104    0.1522 N   0  0  0  0  0  0  0  0  0  0  0  0
    3.8297    6.6294   -0.7790 C   0  0  0  0  0  0  0  0  0  0  0  0
    5.1164    6.5217   -1.5574 C   0  0  0  0  0  0  0  0  0  0  0  0
    3.0906    7.5865   -0.9947 O   0  0  0  0  0  0  0  0  0  0  0  0
    7.3466    3.4489    9.1743 H   0  0  0  0  0  0  0  0  0  0  0  0
    5.9827    3.3067    8.0775 H   0  0  0  0  0  0  0  0  0  0  0  0
    7.1917    4.5377    7.7774 H   0  0  0  0  0  0  0  0  0  0  0  0
    7.6401    1.5005    7.6052 H   0  0  0  0  0  0  0  0  0  0  0  0
    8.9409    2.6518    7.5152 H   0  0  0  0  0  0  0  0  0  0  0  0
    9.3342    3.9016    5.3412 H   0  0  0  0  0  0  0  0  0  0  0  0
    8.7644    4.1449    2.9540 H   0  0  0  0  0  0  0  0  0  0  0  0
    6.7090    3.1494    1.9654 H   0  0  0  0  0  0  0  0  0  0  0  0
    5.7884    0.3110    5.4235 H   0  0  0  0  0  0  0  0  0  0  0  0
    4.8116    2.0320    5.6374 H   0  0  0  0  0  0  0  0  0  0  0  0
    5.0929    1.6093    7.8391 H   0  0  0  0  0  0  0  0  0  0  0  0
    2.1658   -1.4968    4.4752 H   0  0  0  0  0  0  0  0  0  0  0  0
    0.9812   -1.9783    6.5981 H   0  0  0  0  0  0  0  0  0  0  0  0
    1.1464   -0.4698    8.5542 H   0  0  0  0  0  0  0  0  0  0  0  0
    3.7769    1.8204    9.2343 H   0  0  0  0  0  0  0  0  0  0  0  0
    2.0605    1.6779    9.5247 H   0  0  0  0  0  0  0  0  0  0  0  0
    1.5376    3.2665    7.7073 H   0  0  0  0  0  0  0  0  0  0  0  0
    3.2046    3.2849    7.1580 H   0  0  0  0  0  0  0  0  0  0  0  0
    3.0492    5.6967    7.0392 H   0  0  0  0  0  0  0  0  0  0  0  0
    3.4311    7.8199    8.2166 H   0  0  0  0  0  0  0  0  0  0  0  0
    3.4239    7.8910   10.6988 H   0  0  0  0  0  0  0  0  0  0  0  0
    3.0307    5.8104   11.9886 H   0  0  0  0  0  0  0  0  0  0  0  0
    2.6462    3.6708   10.8388 H   0  0  0  0  0  0  0  0  0  0  0  0
    4.8170   -0.4332    3.7866 H   0  0  0  0  0  0  0  0  0  0  0  0
    3.8438    3.5784    4.1454 H   0  0  0  0  0  0  0  0  0  0  0  0
    2.6623    2.3674    3.5721 H   0  0  0  0  0  0  0  0  0  0  0  0
    1.1964    3.5237    3.5344 H   0  0  0  0  0  0  0  0  0  0  0  0
   -0.6235    5.0632    3.2823 H   0  0  0  0  0  0  0  0  0  0  0  0
   -0.5458    6.8842    1.6182 H   0  0  0  0  0  0  0  0  0  0  0  0
    1.3678    7.1255    0.1765 H   0  0  0  0  0  0  0  0  0  0  0  0
    4.3656    4.9148    0.2681 H   0  0  0  0  0  0  0  0  0  0  0  0
    5.3106    5.4914   -1.8639 H   0  0  0  0  0  0  0  0  0  0  0  0
    5.9397    6.9085   -0.9522 H   0  0  0  0  0  0  0  0  0  0  0  0
    5.0328    7.1331   -2.4629 H   0  0  0  0  0  0  0  0  0  0  0  0
  1  2  1  0  0  0  0
  1 39  1  0  0  0  0
  1 40  1  0  0  0  0
  1 41  1  0  0  0  0
  2  3  1  0  0  0  0
  2 42  1  0  0  0  0
  2 43  1  0  0  0  0
  3  4  1  0  0  0  0
  3  8  2  0  0  0  0
  4  5  2  0  0  0  0
  4 44  1  0  0  0  0
  5  6  1  0  0  0  0
  5 45  1  0  0  0  0
  6  7  2  0  0  0  0
  6 46  1  0  0  0  0
  7  8  1  0  0  0  0
  7 26  1  0  0  0  0
  8  9  1  0  0  0  0
  9 10  1  0  0  0  0
  9 47  1  0  0  0  0
  9 48  1  0  0  0  0
 10 11  1  0  0  0  0
 10 49  1  0  0  0  0
 11 12  1  0  0  0  0
 11 16  2  0  0  0  0
 12 13  2  0  0  0  0
 12 25  1  0  0  0  0
 13 14  1  0  0  0  0
 13 50  1  0  0  0  0
 14 15  2  0  0  0  0
 14 51  1  0  0  0  0
 15 16  1  0  0  0  0
 15 52  1  0  0  0  0
 16 17  1  0  0  0  0
 17 18  1  0  0  0  0
 17 53  1  0  0  0  0
 17 54  1  0  0  0  0
 18 19  1  0  0  0  0
 18 55  1  0  0  0  0
 18 56  1  0  0  0  0
 19 20  1  0  0  0  0
 19 24  2  0  0  0  0
 20 21  2  0  0  0  0
 20 57  1  0  0  0  0
 21 22  1  0  0  0  0
 21 58  1  0  0  0  0
 22 23  2  0  0  0  0
 22 59  1  0  0  0  0
 23 24  1  0  0  0  0
 23 60  1  0  0  0  0
 24 61  1  0  0  0  0
 25 26  2  0  0  0  0
 25 62  1  0  0  0  0
 26 27  1  0  0  0  0
 27 28  1  0  0  0  0
 27 63  1  0  0  0  0
 27 64  1  0  0  0  0
 28 29  1  0  0  0  0
 29 30  1  0  0  0  0
 29 34  2  0  0  0  0
 30 31  2  0  0  0  0
 30 65  1  0  0  0  0
 31 32  1  0  0  0  0
 31 66  1  0  0  0  0
 32 33  2  0  0  0  0
 32 67  1  0  0  0  0
 33 34  1  0  0  0  0
 33 68  1  0  0  0  0
 34 35  1  0  0  0  0
 35 36  1  0  0  0  0
 35 69  1  0  0  0  0
 36 37  1  0  0  0  0
 36 38  2  0  0  0  0
 37 70  1  0  0  0  0
 37 71  1  0  0  0  0
 37 72  1  0  0  0  0
M  END
$$$$
