MODEL 1
REMARK VINA RESULT:   -10.538      0.000      0.000
REMARK INTER + INTRA:         -11.840
REMARK INTER:                 -11.462
REMARK INTRA:                  -0.378
REMARK UNBOUND:                -0.378
REMARK  Name = 
REMARK  2 active torsions:
REMARK  status: ('A' for Active; 'I' for Inactive)
REMARK    1  A    between atoms: C_6  and  C_7
REMARK    2  A    between atoms: C_15  and  O_16
REMARK                            x       y       z     vdW  Elec       q    Type
REMARK                         _______ _______ _______ _____ _____    ______ ____
ROOT
ATOM      1  C   UNL     1      -9.166  -9.070  18.026  0.00  0.00    +0.000 A 
ATOM      2  C   UNL     1      -8.796  -9.570  19.263  0.00  0.00    +0.000 A 
ATOM      3  N   UNL     1      -8.531 -10.903  19.133  0.00  0.00    +0.000 N 
ATOM      4  C   UNL     1      -8.705 -11.300  17.827  0.00  0.00    +0.000 A 
ATOM      5  C   UNL     1      -8.551 -12.570  17.252  0.00  0.00    +0.000 A 
ATOM      6  C   UNL     1      -8.779 -12.689  15.879  0.00  0.00    +0.000 A 
ATOM      7 BR   UNL     1      -8.600 -14.384  15.055  0.00  0.00    +0.000 Br
ATOM      8  C   UNL     1      -9.127 -11.592  15.102  0.00  0.00    +0.000 A 
ATOM      9  C   UNL     1      -9.263 -10.333  15.695  0.00  0.00    +0.000 A 
ATOM     10  C   UNL     1      -9.078 -10.167  17.092  0.00  0.00    +0.000 A 
ATOM     11  H   UNL     1      -8.710  -9.079  20.224  0.00  0.00    +0.000 HD
ATOM     12  H   UNL     1      -8.244 -11.514  19.887  0.00  0.00    +0.000 HD
ATOM     13  H   UNL     1      -8.265 -13.427  17.853  0.00  0.00    +0.000 HD
ATOM     14  H   UNL     1      -9.290 -11.717  14.036  0.00  0.00    +0.000 HD
ENDROOT
BRANCH   1  20
ATOM     15  N   UNL     1     -11.776  -5.866  15.740  0.00  0.00    +0.000 N 
ATOM     16  C   UNL     1     -10.846  -6.153  16.718  0.00  0.00    +0.000 A 
ATOM     17  N   UNL     1     -10.414  -5.127  17.455  0.00  0.00    +0.000 NA
ATOM     18  C   UNL     1      -9.478  -5.409  18.374  0.00  0.00    +0.000 A 
ATOM     19  C   UNL     1      -8.982  -6.669  18.579  0.00  0.00    +0.000 A 
ATOM     20  C   UNL     1      -9.553  -7.675  17.832  0.00  0.00    +0.000 A 
ATOM     21  N   UNL     1     -10.478  -7.427  16.878  0.00  0.00    +0.000 NA
ATOM     22  H   UNL     1     -12.266  -5.020  15.988  0.00  0.00    +0.000 HD
ATOM     23  H   UNL     1     -12.330  -6.689  15.548  0.00  0.00    +0.000 HD
ATOM     24  H   UNL     1      -9.127  -4.568  18.961  0.00  0.00    +0.000 HD
ATOM     25  H   UNL     1      -8.197  -6.846  19.300  0.00  0.00    +0.000 HD
ENDBRANCH   1  20
BRANCH   9  26
ATOM     26  O   UNL     1      -9.567  -9.258  14.892  0.00  0.00    +0.000 OA
ATOM     27  H   UNL     1     -10.487  -9.333  14.594  0.00  0.00    +0.000 HD
ENDBRANCH   9  26
TORSDOF 2
ENDMDL
MODEL 2
REMARK VINA RESULT:    -9.400      3.249      6.392
REMARK INTER + INTRA:         -10.602
REMARK INTER:                 -10.603
REMARK INTRA:                   0.002
REMARK UNBOUND:                -0.378
REMARK  Name = 
REMARK  2 active torsions:
REMARK  status: ('A' for Active; 'I' for Inactive)
REMARK    1  A    between atoms: C_6  and  C_7
REMARK    2  A    between atoms: C_15  and  O_16
REMARK                            x       y       z     vdW  Elec       q    Type
REMARK                         _______ _______ _______ _____ _____    ______ ____
ROOT
ATOM      1  C   UNL     1      -8.866 -10.826  15.670  0.00  0.00    +0.000 A 
ATOM      2  C   UNL     1      -8.853 -10.300  14.389  0.00  0.00    +0.000 A 
ATOM      3  N   UNL     1      -8.984  -8.943  14.474  0.00  0.00    +0.000 N 
ATOM      4  C   UNL     1      -9.070  -8.553  15.791  0.00  0.00    +0.000 A 
ATOM      5  C   UNL     1      -9.218  -7.269  16.334  0.00  0.00    +0.000 A 
ATOM      6  C   UNL     1      -9.261  -7.157  17.725  0.00  0.00    +0.000 A 
ATOM      7 BR   UNL     1      -9.476  -5.447  18.510  0.00  0.00    +0.000 Br
ATOM      8  C   UNL     1      -9.143  -8.269  18.549  0.00  0.00    +0.000 A 
ATOM      9  C   UNL     1      -8.984  -9.539  17.985  0.00  0.00    +0.000 A 
ATOM     10  C   UNL     1      -8.971  -9.709  16.577  0.00  0.00    +0.000 A 
ATOM     11  H   UNL     1      -8.770 -10.789  13.427  0.00  0.00    +0.000 HD
ATOM     12  H   UNL     1      -9.010  -8.311  13.684  0.00  0.00    +0.000 HD
ATOM     13  H   UNL     1      -9.295  -6.395  15.695  0.00  0.00    +0.000 HD
ATOM     14  H   UNL     1      -9.173  -8.147  19.627  0.00  0.00    +0.000 HD
ENDROOT
BRANCH   1  20
ATOM     15  N   UNL     1      -8.699 -14.396  18.758  0.00  0.00    +0.000 N 
ATOM     16  C   UNL     1      -8.724 -13.967  17.446  0.00  0.00    +0.000 A 
ATOM     17  N   UNL     1      -8.729 -14.915  16.506  0.00  0.00    +0.000 NA
ATOM     18  C   UNL     1      -8.708 -14.488  15.233  0.00  0.00    +0.000 A 
ATOM     19  C   UNL     1      -8.697 -13.163  14.885  0.00  0.00    +0.000 A 
ATOM     20  C   UNL     1      -8.783 -12.263  15.923  0.00  0.00    +0.000 A 
ATOM     21  N   UNL     1      -8.778 -12.652  17.217  0.00  0.00    +0.000 NA
ATOM     22  H   UNL     1      -9.079 -15.329  18.807  0.00  0.00    +0.000 HD
ATOM     23  H   UNL     1      -9.113 -13.691  19.352  0.00  0.00    +0.000 HD
ATOM     24  H   UNL     1      -8.703 -15.265  14.477  0.00  0.00    +0.000 HD
ATOM     25  H   UNL     1      -8.637 -12.862  13.850  0.00  0.00    +0.000 HD
ENDBRANCH   1  20
BRANCH   9  26
ATOM     26  O   UNL     1      -8.827 -10.615  18.827  0.00  0.00    +0.000 OA
ATOM     27  H   UNL     1      -9.559 -11.237  18.690  0.00  0.00    +0.000 HD
ENDBRANCH   9  26
TORSDOF 2
ENDMDL
MODEL 3
REMARK VINA RESULT:    -9.310      1.906      2.557
REMARK INTER + INTRA:         -10.504
REMARK INTER:                 -10.215
REMARK INTRA:                  -0.289
REMARK UNBOUND:                -0.378
REMARK  Name = 
REMARK  2 active torsions:
REMARK  status: ('A' for Active; 'I' for Inactive)
REMARK    1  A    between atoms: C_6  and  C_7
REMARK    2  A    between atoms: C_15  and  O_16
REMARK                            x       y       z     vdW  Elec       q    Type
REMARK                         _______ _______ _______ _____ _____    ______ ____
ROOT
ATOM      1  C   UNL     1      -9.037  -8.397  16.197  0.00  0.00    +0.000 A 
ATOM      2  C   UNL     1      -9.119  -8.105  14.846  0.00  0.00    +0.000 A 
ATOM      3  N   UNL     1      -9.052  -9.273  14.142  0.00  0.00    +0.000 N 
ATOM      4  C   UNL     1      -8.941 -10.343  15.001  0.00  0.00    +0.000 A 
ATOM      5  C   UNL     1      -8.839 -11.711  14.714  0.00  0.00    +0.000 A 
ATOM      6  C   UNL     1      -8.754 -12.593  15.794  0.00  0.00    +0.000 A 
ATOM      7 BR   UNL     1      -8.598 -14.450  15.462  0.00  0.00    +0.000 Br
ATOM      8  C   UNL     1      -8.790 -12.141  17.107  0.00  0.00    +0.000 A 
ATOM      9  C   UNL     1      -8.905 -10.772  17.370  0.00  0.00    +0.000 A 
ATOM     10  C   UNL     1      -8.957  -9.833  16.307  0.00  0.00    +0.000 A 
ATOM     11  H   UNL     1      -9.210  -7.155  14.335  0.00  0.00    +0.000 HD
ATOM     12  H   UNL     1      -9.083  -9.346  13.133  0.00  0.00    +0.000 HD
ATOM     13  H   UNL     1      -8.825 -12.071  13.690  0.00  0.00    +0.000 HD
ATOM     14  H   UNL     1      -8.730 -12.853  17.924  0.00  0.00    +0.000 HD
ENDROOT
BRANCH   1  20
ATOM     15  N   UNL     1     -11.429  -5.195  18.714  0.00  0.00    +0.000 N 
ATOM     16  C   UNL     1     -10.235  -5.829  18.436  0.00  0.00    +0.000 A 
ATOM     17  N   UNL     1      -9.182  -5.475  19.176  0.00  0.00    +0.000 NA
ATOM     18  C   UNL     1      -8.016  -6.065  18.869  0.00  0.00    +0.000 A 
ATOM     19  C   UNL     1      -7.883  -6.991  17.869  0.00  0.00    +0.000 A 
ATOM     20  C   UNL     1      -9.042  -7.355  17.222  0.00  0.00    +0.000 A 
ATOM     21  N   UNL     1     -10.229  -6.765  17.483  0.00  0.00    +0.000 NA
ATOM     22  H   UNL     1     -11.413  -4.863  19.666  0.00  0.00    +0.000 HD
ATOM     23  H   UNL     1     -12.199  -5.789  18.438  0.00  0.00    +0.000 HD
ATOM     24  H   UNL     1      -7.165  -5.765  19.470  0.00  0.00    +0.000 HD
ATOM     25  H   UNL     1      -6.918  -7.410  17.626  0.00  0.00    +0.000 HD
ENDBRANCH   1  20
BRANCH   9  26
ATOM     26  O   UNL     1      -8.982 -10.358  18.679  0.00  0.00    +0.000 OA
ATOM     27  H   UNL     1      -8.092 -10.365  19.068  0.00  0.00    +0.000 HD
ENDBRANCH   9  26
TORSDOF 2
ENDMDL
MODEL 4
REMARK VINA RESULT:    -8.989      1.697      2.319
REMARK INTER + INTRA:         -10.155
REMARK INTER:                  -9.766
REMARK INTRA:                  -0.389
REMARK UNBOUND:                -0.378
REMARK  Name = 
REMARK  2 active torsions:
REMARK  status: ('A' for Active; 'I' for Inactive)
REMARK    1  A    between atoms: C_6  and  C_7
REMARK    2  A    between atoms: C_15  and  O_16
REMARK                            x       y       z     vdW  Elec       q    Type
REMARK                         _______ _______ _______ _____ _____    ______ ____
ROOT
ATOM      1  C   UNL     1      -9.461  -7.428  17.664  0.00  0.00    +0.000 A 
ATOM      2  C   UNL     1      -8.980  -7.149  18.932  0.00  0.00    +0.000 A 
ATOM      3  N   UNL     1      -8.607  -8.322  19.525  0.00  0.00    +0.000 N 
ATOM      4  C   UNL     1      -8.818  -9.378  18.668  0.00  0.00    +0.000 A 
ATOM      5  C   UNL     1      -8.584 -10.747  18.865  0.00  0.00    +0.000 A 
ATOM      6  C   UNL     1      -8.877 -11.610  17.807  0.00  0.00    +0.000 A 
ATOM      7 BR   UNL     1      -8.595 -13.470  18.025  0.00  0.00    +0.000 Br
ATOM      8  C   UNL     1      -9.361 -11.137  16.594  0.00  0.00    +0.000 A 
ATOM      9  C   UNL     1      -9.575  -9.766  16.417  0.00  0.00    +0.000 A 
ATOM     10  C   UNL     1      -9.328  -8.852  17.474  0.00  0.00    +0.000 A 
ATOM     11  H   UNL     1      -8.885  -6.208  19.458  0.00  0.00    +0.000 HD
ATOM     12  H   UNL     1      -8.227  -8.406  20.459  0.00  0.00    +0.000 HD
ATOM     13  H   UNL     1      -8.191 -11.120  19.805  0.00  0.00    +0.000 HD
ATOM     14  H   UNL     1      -9.572 -11.834  15.789  0.00  0.00    +0.000 HD
ENDROOT
BRANCH   1  20
ATOM     15  N   UNL     1      -8.974  -4.811  13.763  0.00  0.00    +0.000 N 
ATOM     16  C   UNL     1      -9.720  -5.151  14.873  0.00  0.00    +0.000 A 
ATOM     17  N   UNL     1     -10.895  -4.535  15.018  0.00  0.00    +0.000 NA
ATOM     18  C   UNL     1     -11.593  -4.840  16.123  0.00  0.00    +0.000 A 
ATOM     19  C   UNL     1     -11.159  -5.738  17.061  0.00  0.00    +0.000 A 
ATOM     20  C   UNL     1      -9.978  -6.387  16.780  0.00  0.00    +0.000 A 
ATOM     21  N   UNL     1      -9.234  -6.089  15.692  0.00  0.00    +0.000 NA
ATOM     22  H   UNL     1      -9.589  -4.456  13.048  0.00  0.00    +0.000 HD
ATOM     23  H   UNL     1      -8.365  -5.580  13.517  0.00  0.00    +0.000 HD
ATOM     24  H   UNL     1     -12.541  -4.327  16.236  0.00  0.00    +0.000 HD
ATOM     25  H   UNL     1     -11.731  -5.923  17.959  0.00  0.00    +0.000 HD
ENDBRANCH   1  20
BRANCH   9  26
ATOM     26  O   UNL     1     -10.016  -9.323  15.192  0.00  0.00    +0.000 OA
ATOM     27  H   UNL     1      -9.423  -8.624  14.874  0.00  0.00    +0.000 HD
ENDBRANCH   9  26
TORSDOF 2
ENDMDL
MODEL 5
REMARK VINA RESULT:    -8.681      3.286      5.877
REMARK INTER + INTRA:          -9.820
REMARK INTER:                  -9.888
REMARK INTRA:                   0.068
REMARK UNBOUND:                -0.378
REMARK  Name = 
REMARK  2 active torsions:
REMARK  status: ('A' for Active; 'I' for Inactive)
REMARK    1  A    between atoms: C_6  and  C_7
REMARK    2  A    between atoms: C_15  and  O_16
REMARK                            x       y       z     vdW  Elec       q    Type
REMARK                         _______ _______ _______ _____ _____    ______ ____
ROOT
ATOM      1  C   UNL     1      -8.959 -10.145  18.058  0.00  0.00    +0.000 A 
ATOM      2  C   UNL     1      -8.481  -9.979  19.346  0.00  0.00    +0.000 A 
ATOM      3  N   UNL     1      -8.748  -8.701  19.749  0.00  0.00    +0.000 N 
ATOM      4  C   UNL     1      -9.409  -8.015  18.755  0.00  0.00    +0.000 A 
ATOM      5  C   UNL     1      -9.865  -6.690  18.737  0.00  0.00    +0.000 A 
ATOM      6  C   UNL     1     -10.528  -6.251  17.590  0.00  0.00    +0.000 A 
ATOM      7 BR   UNL     1     -11.150  -4.464  17.507  0.00  0.00    +0.000 Br
ATOM      8  C   UNL     1     -10.751  -7.095  16.510  0.00  0.00    +0.000 A 
ATOM      9  C   UNL     1     -10.298  -8.418  16.555  0.00  0.00    +0.000 A 
ATOM     10  C   UNL     1      -9.586  -8.901  17.684  0.00  0.00    +0.000 A 
ATOM     11  H   UNL     1      -7.965 -10.669  20.001  0.00  0.00    +0.000 HD
ATOM     12  H   UNL     1      -8.500  -8.312  20.650  0.00  0.00    +0.000 HD
ATOM     13  H   UNL     1      -9.706  -6.030  19.585  0.00  0.00    +0.000 HD
ATOM     14  H   UNL     1     -11.277  -6.725  15.636  0.00  0.00    +0.000 HD
ENDROOT
BRANCH   1  20
ATOM     15  N   UNL     1      -8.909 -14.868  18.049  0.00  0.00    +0.000 N 
ATOM     16  C   UNL     1      -8.800 -13.683  17.350  0.00  0.00    +0.000 A 
ATOM     17  N   UNL     1      -8.610 -13.780  16.032  0.00  0.00    +0.000 NA
ATOM     18  C   UNL     1      -8.462 -12.623  15.368  0.00  0.00    +0.000 A 
ATOM     19  C   UNL     1      -8.510 -11.396  15.975  0.00  0.00    +0.000 A 
ATOM     20  C   UNL     1      -8.797 -11.397  17.321  0.00  0.00    +0.000 A 
ATOM     21  N   UNL     1      -8.927 -12.540  18.030  0.00  0.00    +0.000 NA
ATOM     22  H   UNL     1      -9.217 -15.594  17.421  0.00  0.00    +0.000 HD
ATOM     23  H   UNL     1      -9.449 -14.716  18.890  0.00  0.00    +0.000 HD
ATOM     24  H   UNL     1      -8.299 -12.712  14.300  0.00  0.00    +0.000 HD
ATOM     25  H   UNL     1      -8.342 -10.491  15.411  0.00  0.00    +0.000 HD
ENDBRANCH   1  20
BRANCH   9  26
ATOM     26  O   UNL     1     -10.571  -9.242  15.489  0.00  0.00    +0.000 OA
ATOM     27  H   UNL     1      -9.742  -9.628  15.164  0.00  0.00    +0.000 HD
ENDBRANCH   9  26
TORSDOF 2
ENDMDL
MODEL 6
REMARK VINA RESULT:    -8.603      2.304      3.422
REMARK INTER + INTRA:          -9.735
REMARK INTER:                  -9.343
REMARK INTRA:                  -0.393
REMARK UNBOUND:                -0.378
REMARK  Name = 
REMARK  2 active torsions:
REMARK  status: ('A' for Active; 'I' for Inactive)
REMARK    1  A    between atoms: C_6  and  C_7
REMARK    2  A    between atoms: C_15  and  O_16
REMARK                            x       y       z     vdW  Elec       q    Type
REMARK                         _______ _______ _______ _____ _____    ______ ____
ROOT
ATOM      1  C   UNL     1      -9.567  -7.450  17.454  0.00  0.00    +0.000 A 
ATOM      2  C   UNL     1     -10.114  -7.537  16.185  0.00  0.00    +0.000 A 
ATOM      3  N   UNL     1     -10.117  -8.847  15.799  0.00  0.00    +0.000 N 
ATOM      4  C   UNL     1      -9.594  -9.639  16.796  0.00  0.00    +0.000 A 
ATOM      5  C   UNL     1      -9.403 -11.028  16.824  0.00  0.00    +0.000 A 
ATOM      6  C   UNL     1      -8.859 -11.581  17.986  0.00  0.00    +0.000 A 
ATOM      7 BR   UNL     1      -8.566 -13.450  18.071  0.00  0.00    +0.000 Br
ATOM      8  C   UNL     1      -8.536 -10.795  19.084  0.00  0.00    +0.000 A 
ATOM      9  C   UNL     1      -8.747  -9.413  19.037  0.00  0.00    +0.000 A 
ATOM     10  C   UNL     1      -9.262  -8.798  17.867  0.00  0.00    +0.000 A 
ATOM     11  H   UNL     1     -10.491  -6.765  15.526  0.00  0.00    +0.000 HD
ATOM     12  H   UNL     1     -10.458  -9.190  14.911  0.00  0.00    +0.000 HD
ATOM     13  H   UNL     1      -9.668 -11.649  15.974  0.00  0.00    +0.000 HD
ATOM     14  H   UNL     1      -8.122 -11.258  19.975  0.00  0.00    +0.000 HD
ENDROOT
BRANCH   1  20
ATOM     15  N   UNL     1      -7.038  -4.745  20.385  0.00  0.00    +0.000 N 
ATOM     16  C   UNL     1      -8.126  -4.885  19.547  0.00  0.00    +0.000 A 
ATOM     17  N   UNL     1      -8.900  -3.809  19.386  0.00  0.00    +0.000 NA
ATOM     18  C   UNL     1      -9.980  -3.968  18.604  0.00  0.00    +0.000 A 
ATOM     19  C   UNL     1     -10.291  -5.148  17.983  0.00  0.00    +0.000 A 
ATOM     20  C   UNL     1      -9.386  -6.173  18.140  0.00  0.00    +0.000 A 
ATOM     21  N   UNL     1      -8.302  -6.061  18.939  0.00  0.00    +0.000 NA
ATOM     22  H   UNL     1      -6.779  -3.771  20.430  0.00  0.00    +0.000 HD
ATOM     23  H   UNL     1      -6.322  -5.408  20.122  0.00  0.00    +0.000 HD
ATOM     24  H   UNL     1     -10.607  -3.091  18.486  0.00  0.00    +0.000 HD
ATOM     25  H   UNL     1     -11.193  -5.246  17.397  0.00  0.00    +0.000 HD
ENDBRANCH   1  20
BRANCH   9  26
ATOM     26  O   UNL     1      -8.456  -8.667  20.156  0.00  0.00    +0.000 OA
ATOM     27  H   UNL     1      -9.187  -8.744  20.789  0.00  0.00    +0.000 HD
ENDBRANCH   9  26
TORSDOF 2
ENDMDL
MODEL 7
REMARK VINA RESULT:    -8.561      3.300      5.633
REMARK INTER + INTRA:          -9.690
REMARK INTER:                  -9.348
REMARK INTRA:                  -0.342
REMARK UNBOUND:                -0.378
REMARK  Name = 
REMARK  2 active torsions:
REMARK  status: ('A' for Active; 'I' for Inactive)
REMARK    1  A    between atoms: C_6  and  C_7
REMARK    2  A    between atoms: C_15  and  O_16
REMARK                            x       y       z     vdW  Elec       q    Type
REMARK                         _______ _______ _______ _____ _____    ______ ____
ROOT
ATOM      1  C   UNL     1      -9.043  -9.368  18.436  0.00  0.00    +0.000 A 
ATOM      2  C   UNL     1      -8.588  -8.987  19.687  0.00  0.00    +0.000 A 
ATOM      3  N   UNL     1      -8.931  -7.682  19.898  0.00  0.00    +0.000 N 
ATOM      4  C   UNL     1      -9.620  -7.188  18.813  0.00  0.00    +0.000 A 
ATOM      5  C   UNL     1     -10.151  -5.908  18.601  0.00  0.00    +0.000 A 
ATOM      6  C   UNL     1     -10.827  -5.681  17.400  0.00  0.00    +0.000 A 
ATOM      7 BR   UNL     1     -11.549  -3.965  17.056  0.00  0.00    +0.000 Br
ATOM      8  C   UNL     1     -10.991  -6.686  16.456  0.00  0.00    +0.000 A 
ATOM      9  C   UNL     1     -10.464  -7.959  16.695  0.00  0.00    +0.000 A 
ATOM     10  C   UNL     1      -9.736  -8.230  17.883  0.00  0.00    +0.000 A 
ATOM     11  H   UNL     1      -8.039  -9.543  20.436  0.00  0.00    +0.000 HD
ATOM     12  H   UNL     1      -8.714  -7.152  20.732  0.00  0.00    +0.000 HD
ATOM     13  H   UNL     1     -10.039  -5.123  19.342  0.00  0.00    +0.000 HD
ATOM     14  H   UNL     1     -11.529  -6.478  15.536  0.00  0.00    +0.000 HD
ENDROOT
BRANCH   1  20
ATOM     15  N   UNL     1      -8.446 -12.165  14.678  0.00  0.00    +0.000 N 
ATOM     16  C   UNL     1      -8.497 -12.023  16.050  0.00  0.00    +0.000 A 
ATOM     17  N   UNL     1      -8.262 -13.118  16.775  0.00  0.00    +0.000 NA
ATOM     18  C   UNL     1      -8.358 -12.979  18.107  0.00  0.00    +0.000 A 
ATOM     19  C   UNL     1      -8.664 -11.793  18.719  0.00  0.00    +0.000 A 
ATOM     20  C   UNL     1      -8.802 -10.702  17.891  0.00  0.00    +0.000 A 
ATOM     21  N   UNL     1      -8.740 -10.806  16.545  0.00  0.00    +0.000 NA
ATOM     22  H   UNL     1      -7.865 -12.958  14.450  0.00  0.00    +0.000 HD
ATOM     23  H   UNL     1      -8.213 -11.277  14.254  0.00  0.00    +0.000 HD
ATOM     24  H   UNL     1      -8.174 -13.876  18.687  0.00  0.00    +0.000 HD
ATOM     25  H   UNL     1      -8.773 -11.734  19.791  0.00  0.00    +0.000 HD
ENDBRANCH   1  20
BRANCH   9  26
ATOM     26  O   UNL     1     -10.678  -8.945  15.760  0.00  0.00    +0.000 OA
ATOM     27  H   UNL     1     -11.453  -9.468  16.020  0.00  0.00    +0.000 HD
ENDBRANCH   9  26
TORSDOF 2
ENDMDL
MODEL 8
REMARK VINA RESULT:    -8.528      3.199      6.213
REMARK INTER + INTRA:          -9.654
REMARK INTER:                  -9.460
REMARK INTRA:                  -0.194
REMARK UNBOUND:                -0.378
REMARK  Name = 
REMARK  2 active torsions:
REMARK  status: ('A' for Active; 'I' for Inactive)
REMARK    1  A    between atoms: C_6  and  C_7
REMARK    2  A    between atoms: C_15  and  O_16
REMARK                            x       y       z     vdW  Elec       q    Type
REMARK                         _______ _______ _______ _____ _____    ______ ____
ROOT
ATOM      1  C   UNL     1      -9.003  -9.537  16.075  0.00  0.00    +0.000 A 
ATOM      2  C   UNL     1      -9.230  -9.029  14.807  0.00  0.00    +0.000 A 
ATOM      3  N   UNL     1      -9.428  -7.682  14.905  0.00  0.00    +0.000 N 
ATOM      4  C   UNL     1      -9.323  -7.278  16.217  0.00  0.00    +0.000 A 
ATOM      5  C   UNL     1      -9.459  -5.997  16.770  0.00  0.00    +0.000 A 
ATOM      6  C   UNL     1      -9.283  -5.867  18.149  0.00  0.00    +0.000 A 
ATOM      7 BR   UNL     1      -9.472  -4.161  18.950  0.00  0.00    +0.000 Br
ATOM      8  C   UNL     1      -8.965  -6.958  18.948  0.00  0.00    +0.000 A 
ATOM      9  C   UNL     1      -8.822  -8.224  18.372  0.00  0.00    +0.000 A 
ATOM     10  C   UNL     1      -9.027  -8.414  16.981  0.00  0.00    +0.000 A 
ATOM     11  H   UNL     1      -9.274  -9.527  13.846  0.00  0.00    +0.000 HD
ATOM     12  H   UNL     1      -9.621  -7.064  14.127  0.00  0.00    +0.000 HD
ATOM     13  H   UNL     1      -9.693  -5.138  16.148  0.00  0.00    +0.000 HD
ATOM     14  H   UNL     1      -8.827  -6.821  20.016  0.00  0.00    +0.000 HD
ENDROOT
BRANCH   1  20
ATOM     15  N   UNL     1      -8.982 -13.176  19.084  0.00  0.00    +0.000 N 
ATOM     16  C   UNL     1      -8.811 -12.704  17.799  0.00  0.00    +0.000 A 
ATOM     17  N   UNL     1      -8.521 -13.609  16.862  0.00  0.00    +0.000 NA
ATOM     18  C   UNL     1      -8.313 -13.134  15.623  0.00  0.00    +0.000 A 
ATOM     19  C   UNL     1      -8.400 -11.805  15.303  0.00  0.00    +0.000 A 
ATOM     20  C   UNL     1      -8.791 -10.962  16.318  0.00  0.00    +0.000 A 
ATOM     21  N   UNL     1      -8.984 -11.397  17.583  0.00  0.00    +0.000 NA
ATOM     22  H   UNL     1      -9.246 -14.149  19.046  0.00  0.00    +0.000 HD
ATOM     23  H   UNL     1      -9.585 -12.548  19.598  0.00  0.00    +0.000 HD
ATOM     24  H   UNL     1      -8.069 -13.876  14.871  0.00  0.00    +0.000 HD
ATOM     25  H   UNL     1      -8.183 -11.460  14.303  0.00  0.00    +0.000 HD
ENDBRANCH   1  20
BRANCH   9  26
ATOM     26  O   UNL     1      -8.465  -9.277  19.182  0.00  0.00    +0.000 OA
ATOM     27  H   UNL     1      -8.745 -10.108  18.767  0.00  0.00    +0.000 HD
ENDBRANCH   9  26
TORSDOF 2
ENDMDL
