
 OpenBabel01112422383D

 41 44  0  0  0  0  0  0  0  0999 V2000
    2.3539   -0.7013   -0.5369 O   0  0  0  0  0  0  0  0  0  0  0  0
    2.6273    0.4154   -0.1037 C   0  0  0  0  0  0  0  0  0  0  0  0
    1.7226    1.5095   -0.5179 C   0  0  0  0  0  0  0  0  0  0  0  0
    1.1460    2.3576    0.4428 C   0  0  0  0  0  0  0  0  0  0  0  0
    0.8819    3.6779    0.0869 C   0  0  0  0  0  0  0  0  0  0  0  0
    1.1470    4.1130   -1.2267 C   0  0  0  0  0  0  0  0  0  0  0  0
    1.3007    5.5895   -1.5319 C   0  0  0  0  0  0  0  0  0  0  0  0
    1.2751    6.3779   -0.4207 F   0  0  0  0  0  0  0  0  0  0  0  0
    2.5019    5.8580   -2.1220 F   0  0  0  0  0  0  0  0  0  0  0  0
    0.3491    6.0626   -2.3737 F   0  0  0  0  0  0  0  0  0  0  0  0
    1.4763    3.1799   -2.2232 C   0  0  0  0  0  0  0  0  0  0  0  0
    1.7563    1.8642   -1.8731 C   0  0  0  0  0  0  0  0  0  0  0  0
    3.8201    0.6443    0.5986 N   0  0  0  0  0  0  0  0  0  0  0  0
    4.2538    1.8928    1.0911 C   0  0  0  0  0  0  0  0  0  0  0  0
    3.9333    3.2379    0.8901 C   0  0  0  0  0  0  0  0  0  0  0  0
    3.7626    3.9488    2.0749 C   0  0  0  0  0  0  0  0  0  0  0  0
    3.1930    5.1914    2.0712 O   0  0  0  0  0  0  0  0  0  0  0  0
    4.0503    3.3685    3.3092 C   0  0  0  0  0  0  0  0  0  0  0  0
    3.5651    3.9424    4.4493 O   0  0  0  0  0  0  0  0  0  0  0  0
    4.8154    2.2072    3.3893 C   0  0  0  0  0  0  0  0  0  0  0  0
    5.0090    1.5154    2.1839 C   0  0  0  0  0  0  0  0  0  0  0  0
    5.7861    0.5098    1.5900 C   0  0  0  0  0  0  0  0  0  0  0  0
    7.1373    0.1859    1.3802 C   0  0  0  0  0  0  0  0  0  0  0  0
    8.4499    1.5494    1.4547 Br  0  0  0  0  0  0  0  0  0  0  0  0
    7.4587   -1.0593    0.8325 C   0  0  0  0  0  0  0  0  0  0  0  0
    6.4436   -1.9847    0.6358 C   0  0  0  0  0  0  0  0  0  0  0  0
    6.7226   -3.2863    0.3103 O   0  0  0  0  0  0  0  0  0  0  0  0
    5.0952   -1.6097    0.6899 C   0  0  0  0  0  0  0  0  0  0  0  0
    4.1193   -2.5518    0.5292 O   0  0  0  0  0  0  0  0  0  0  0  0
    4.8226   -0.2655    0.9300 C   0  0  0  0  0  0  0  0  0  0  0  0
    1.1223    2.0631    1.4950 H   0  0  0  0  0  0  0  0  0  0  0  0
    0.6467    4.3919    0.8754 H   0  0  0  0  0  0  0  0  0  0  0  0
    1.6513    3.5060   -3.2459 H   0  0  0  0  0  0  0  0  0  0  0  0
    2.1399    1.1686   -2.6040 H   0  0  0  0  0  0  0  0  0  0  0  0
    3.6285    3.6217   -0.0727 H   0  0  0  0  0  0  0  0  0  0  0  0
    3.3796    5.6003    1.2063 H   0  0  0  0  0  0  0  0  0  0  0  0
    2.9887    4.6686    4.1351 H   0  0  0  0  0  0  0  0  0  0  0  0
    5.1105    1.7854    4.3431 H   0  0  0  0  0  0  0  0  0  0  0  0
    8.4863   -1.2885    0.5692 H   0  0  0  0  0  0  0  0  0  0  0  0
    7.6891   -3.3903    0.2645 H   0  0  0  0  0  0  0  0  0  0  0  0
    4.5908   -3.4073    0.5026 H   0  0  0  0  0  0  0  0  0  0  0  0
  1  2  2  0  0  0  0
  2  3  1  0  0  0  0
  2 13  1  0  0  0  0
  3  4  1  0  0  0  0
  3 12  2  0  0  0  0
  4  5  2  0  0  0  0
  4 31  1  0  0  0  0
  5  6  1  0  0  0  0
  5 32  1  0  0  0  0
  6  7  1  0  0  0  0
  6 11  2  0  0  0  0
  7  8  1  0  0  0  0
  7  9  1  0  0  0  0
  7 10  1  0  0  0  0
 11 12  1  0  0  0  0
 11 33  1  0  0  0  0
 12 34  1  0  0  0  0
 13 14  1  0  0  0  0
 13 30  1  0  0  0  0
 14 15  1  0  0  0  0
 14 21  2  0  0  0  0
 15 16  2  0  0  0  0
 15 35  1  0  0  0  0
 16 17  1  0  0  0  0
 16 18  1  0  0  0  0
 17 36  1  0  0  0  0
 18 19  1  0  0  0  0
 18 20  2  0  0  0  0
 19 37  1  0  0  0  0
 20 21  1  0  0  0  0
 20 38  1  0  0  0  0
 21 22  1  0  0  0  0
 22 23  1  0  0  0  0
 22 30  2  0  0  0  0
 23 24  1  0  0  0  0
 23 25  2  0  0  0  0
 25 26  1  0  0  0  0
 25 39  1  0  0  0  0
 26 27  1  0  0  0  0
 26 28  2  0  0  0  0
 27 40  1  0  0  0  0
 28 29  1  0  0  0  0
 28 30  1  0  0  0  0
 29 41  1  0  0  0  0
M  END
$$$$
