MODEL 1
REMARK VINA RESULT:    -8.031      0.000      0.000
REMARK INTER + INTRA:         -10.221
REMARK INTER:                  -9.909
REMARK INTRA:                  -0.312
REMARK UNBOUND:                -0.312
REMARK  Name = 
REMARK  6 active torsions:
REMARK  status: ('A' for Active; 'I' for Inactive)
REMARK    1  A    between atoms: C_1  and  N_2
REMARK    2  A    between atoms: N_2  and  C_3
REMARK    3  A    between atoms: C_7  and  C_8
REMARK    4  A    between atoms: C_9  and  O_10
REMARK    5  A    between atoms: O_10  and  C_11
REMARK    6  A    between atoms: C_32  and  O_33
REMARK                            x       y       z     vdW  Elec       q    Type
REMARK                         _______ _______ _______ _____ _____    ______ ____
ROOT
ATOM      1  C   UNL     1      -8.934  -2.006  20.722  0.00  0.00    +0.000 C 
ATOM      2  C   UNL     1      -8.658  -3.358  20.025  0.00  0.00    +0.000 C 
ATOM      3  C   UNL     1      -9.273  -3.454  18.632  0.00  0.00    +0.000 C 
ATOM      4  O   UNL     1      -9.155  -2.164  18.034  0.00  0.00    +0.000 OA
ATOM      5  C   UNL     1     -10.018  -1.171  18.642  0.00  0.00    +0.000 C 
ATOM      6  C   UNL     1     -10.257  -1.408  20.182  0.00  0.00    +0.000 C 
ATOM      7  N   UNL     1     -11.242  -1.169  17.867  0.00  0.00    +0.000 N 
ATOM      8  C   UNL     1     -12.038  -0.128  17.376  0.00  0.00    +0.000 A 
ATOM      9  C   UNL     1     -12.197   1.182  17.850  0.00  0.00    +0.000 A 
ATOM     10  C   UNL     1     -13.294   1.919  17.401  0.00  0.00    +0.000 A 
ATOM     11  C   UNL     1     -14.140   1.416  16.421  0.00  0.00    +0.000 A 
ATOM     12  C   UNL     1     -13.849   0.214  15.766  0.00  0.00    +0.000 A 
ATOM     13  C   UNL     1     -12.787  -0.597  16.226  0.00  0.00    +0.000 A 
ATOM     14  C   UNL     1     -12.409  -1.944  15.941  0.00  0.00    +0.000 A 
ATOM     15  C   UNL     1     -11.921  -2.421  14.680  0.00  0.00    +0.000 A 
ATOM     16  C   UNL     1     -11.263  -3.672  14.757  0.00  0.00    +0.000 A 
ATOM     17  C   UNL     1     -11.150  -4.180  16.064  0.00  0.00    +0.000 A 
ATOM     18  C   UNL     1     -10.409  -5.299  16.477  0.00  0.00    +0.000 A 
ATOM     19  C   UNL     1      -9.547  -6.264  15.960  0.00  0.00    +0.000 A 
ATOM     20  C   UNL     1      -9.404  -7.444  16.687  0.00  0.00    +0.000 A 
ATOM     21  C   UNL     1     -10.179  -7.673  17.829  0.00  0.00    +0.000 A 
ATOM     22  C   UNL     1     -10.825  -6.620  18.488  0.00  0.00    +0.000 A 
ATOM     23  C   UNL     1     -10.683  -5.371  17.883  0.00  0.00    +0.000 A 
ATOM     24  N   UNL     1     -10.620  -4.021  18.370  0.00  0.00    +0.000 N 
ATOM     25  C   UNL     1     -11.279  -3.507  17.272  0.00  0.00    +0.000 A 
ATOM     26  C   UNL     1     -11.698  -2.204  17.119  0.00  0.00    +0.000 A 
ATOM     27  C   UNL     1     -10.355  -3.897  13.654  0.00  0.00    +0.000 C 
ATOM     28  N   UNL     1     -10.418  -2.617  13.005  0.00  0.00    +0.000 N 
ATOM     29  C   UNL     1     -11.382  -1.740  13.544  0.00  0.00    +0.000 C 
ATOM     30  O   UNL     1     -11.479  -0.589  13.139  0.00  0.00    +0.000 OA
ATOM     31  H   UNL     1      -8.113  -1.326  20.459  0.00  0.00    +0.000 HD
ATOM     32  H   UNL     1      -7.567  -3.370  19.868  0.00  0.00    +0.000 HD
ATOM     33  H   UNL     1      -8.885  -4.239  20.628  0.00  0.00    +0.000 HD
ATOM     34  H   UNL     1      -8.596  -4.102  18.057  0.00  0.00    +0.000 HD
ATOM     35  H   UNL     1     -10.497  -0.456  20.665  0.00  0.00    +0.000 HD
ATOM     36  H   UNL     1     -11.560   1.597  18.622  0.00  0.00    +0.000 HD
ATOM     37  H   UNL     1     -13.508   2.883  17.858  0.00  0.00    +0.000 HD
ATOM     38  H   UNL     1     -15.058   1.950  16.182  0.00  0.00    +0.000 HD
ATOM     39  H   UNL     1     -14.534  -0.170  15.015  0.00  0.00    +0.000 HD
ATOM     40  H   UNL     1      -9.013  -6.112  15.032  0.00  0.00    +0.000 HD
ATOM     41  H   UNL     1      -8.733  -8.213  16.316  0.00  0.00    +0.000 HD
ATOM     42  H   UNL     1     -10.224  -8.678  18.243  0.00  0.00    +0.000 HD
ATOM     43  H   UNL     1     -11.373  -6.768  19.413  0.00  0.00    +0.000 HD
ATOM     44  H   UNL     1      -9.330  -4.111  13.972  0.00  0.00    +0.000 HD
ATOM     45  H   UNL     1      -9.539  -2.131  12.875  0.00  0.00    +0.000 HD
ENDROOT
BRANCH   5  46
ATOM     46  C   UNL     1      -9.162   0.092  18.397  0.00  0.00    +0.000 C 
ATOM     47  H   UNL     1      -8.096  -0.084  18.536  0.00  0.00    +0.000 HD
ATOM     48  H   UNL     1      -9.307   0.473  17.378  0.00  0.00    +0.000 HD
ATOM     49  H   UNL     1      -9.476   0.916  19.051  0.00  0.00    +0.000 HD
ENDBRANCH   5  46
BRANCH   1  50
ATOM     50  N   UNL     1      -8.816  -2.230  22.175  0.00  0.00    +0.000 NA
ATOM     51  H   UNL     1      -8.309  -1.447  22.584  0.00  0.00    +0.000 HD
BRANCH  50  52
ATOM     52  C   UNL     1      -8.123  -3.470  22.516  0.00  0.00    +0.000 C 
ATOM     53  H   UNL     1      -8.840  -4.293  22.592  0.00  0.00    +0.000 HD
ATOM     54  H   UNL     1      -7.405  -3.708  21.726  0.00  0.00    +0.000 HD
ATOM     55  H   UNL     1      -7.564  -3.404  23.456  0.00  0.00    +0.000 HD
ENDBRANCH  50  52
ENDBRANCH   1  50
BRANCH  27  56
ATOM     56  O   UNL     1     -10.823  -4.844  12.739  0.00  0.00    +0.000 OA
ATOM     57  H   UNL     1     -10.015  -5.145  12.292  0.00  0.00    +0.000 HD
ENDBRANCH  27  56
BRANCH   6  58
ATOM     58  O   UNL     1     -11.272  -2.365  20.564  0.00  0.00    +0.000 OA
BRANCH  58  59
ATOM     59  C   UNL     1     -12.251  -1.911  21.489  0.00  0.00    +0.000 C 
ATOM     60  H   UNL     1     -12.449  -0.855  21.288  0.00  0.00    +0.000 HD
ATOM     61  H   UNL     1     -13.188  -2.467  21.424  0.00  0.00    +0.000 HD
ATOM     62  H   UNL     1     -11.850  -1.955  22.504  0.00  0.00    +0.000 HD
ENDBRANCH  58  59
ENDBRANCH   6  58
TORSDOF 6
ENDMDL
MODEL 2
REMARK VINA RESULT:    -7.851      4.579      8.445
REMARK INTER + INTRA:          -9.998
REMARK INTER:                  -9.616
REMARK INTRA:                  -0.382
REMARK UNBOUND:                -0.312
REMARK  Name = 
REMARK  6 active torsions:
REMARK  status: ('A' for Active; 'I' for Inactive)
REMARK    1  A    between atoms: C_1  and  N_2
REMARK    2  A    between atoms: N_2  and  C_3
REMARK    3  A    between atoms: C_7  and  C_8
REMARK    4  A    between atoms: C_9  and  O_10
REMARK    5  A    between atoms: O_10  and  C_11
REMARK    6  A    between atoms: C_32  and  O_33
REMARK                            x       y       z     vdW  Elec       q    Type
REMARK                         _______ _______ _______ _____ _____    ______ ____
ROOT
ATOM      1  C   UNL     1     -13.601   3.567  21.186  0.00  0.00    +0.000 C 
ATOM      2  C   UNL     1     -13.567   2.155  20.559  0.00  0.00    +0.000 C 
ATOM      3  C   UNL     1     -12.557   1.224  21.224  0.00  0.00    +0.000 C 
ATOM      4  O   UNL     1     -12.573   1.521  22.620  0.00  0.00    +0.000 OA
ATOM      5  C   UNL     1     -11.999   2.813  22.936  0.00  0.00    +0.000 C 
ATOM      6  C   UNL     1     -12.219   3.889  21.807  0.00  0.00    +0.000 C 
ATOM      7  N   UNL     1     -10.602   2.573  23.234  0.00  0.00    +0.000 N 
ATOM      8  C   UNL     1      -9.765   3.053  24.247  0.00  0.00    +0.000 A 
ATOM      9  C   UNL     1      -9.841   4.240  24.990  0.00  0.00    +0.000 A 
ATOM     10  C   UNL     1      -8.710   4.652  25.696  0.00  0.00    +0.000 A 
ATOM     11  C   UNL     1      -7.577   3.850  25.763  0.00  0.00    +0.000 A 
ATOM     12  C   UNL     1      -7.580   2.555  25.232  0.00  0.00    +0.000 A 
ATOM     13  C   UNL     1      -8.676   2.116  24.455  0.00  0.00    +0.000 A 
ATOM     14  C   UNL     1      -8.863   0.988  23.602  0.00  0.00    +0.000 A 
ATOM     15  C   UNL     1      -8.918  -0.379  24.031  0.00  0.00    +0.000 A 
ATOM     16  C   UNL     1      -9.486  -1.256  23.077  0.00  0.00    +0.000 A 
ATOM     17  C   UNL     1      -9.953  -0.616  21.916  0.00  0.00    +0.000 A 
ATOM     18  C   UNL     1     -10.709  -1.185  20.878  0.00  0.00    +0.000 A 
ATOM     19  C   UNL     1     -11.311  -2.392  20.530  0.00  0.00    +0.000 A 
ATOM     20  C   UNL     1     -11.590  -2.597  19.180  0.00  0.00    +0.000 A 
ATOM     21  C   UNL     1     -11.180  -1.665  18.221  0.00  0.00    +0.000 A 
ATOM     22  C   UNL     1     -10.831  -0.358  18.584  0.00  0.00    +0.000 A 
ATOM     23  C   UNL     1     -10.866  -0.099  19.954  0.00  0.00    +0.000 A 
ATOM     24  N   UNL     1     -11.160   1.060  20.749  0.00  0.00    +0.000 N 
ATOM     25  C   UNL     1     -10.236   0.730  21.720  0.00  0.00    +0.000 A 
ATOM     26  C   UNL     1      -9.876   1.517  22.793  0.00  0.00    +0.000 A 
ATOM     27  C   UNL     1     -10.005  -2.470  23.669  0.00  0.00    +0.000 C 
ATOM     28  N   UNL     1      -9.832  -2.168  25.063  0.00  0.00    +0.000 N 
ATOM     29  C   UNL     1      -9.133  -0.969  25.316  0.00  0.00    +0.000 C 
ATOM     30  O   UNL     1      -8.994  -0.553  26.458  0.00  0.00    +0.000 OA
ATOM     31  H   UNL     1     -14.348   3.552  21.992  0.00  0.00    +0.000 HD
ATOM     32  H   UNL     1     -14.557   1.727  20.786  0.00  0.00    +0.000 HD
ATOM     33  H   UNL     1     -13.475   2.139  19.471  0.00  0.00    +0.000 HD
ATOM     34  H   UNL     1     -12.986   0.216  21.137  0.00  0.00    +0.000 HD
ATOM     35  H   UNL     1     -12.197   4.891  22.247  0.00  0.00    +0.000 HD
ATOM     36  H   UNL     1     -10.705   4.892  24.948  0.00  0.00    +0.000 HD
ATOM     37  H   UNL     1      -8.706   5.634  26.165  0.00  0.00    +0.000 HD
ATOM     38  H   UNL     1      -6.667   4.247  26.208  0.00  0.00    +0.000 HD
ATOM     39  H   UNL     1      -6.677   1.951  25.280  0.00  0.00    +0.000 HD
ATOM     40  H   UNL     1     -11.551  -3.143  21.270  0.00  0.00    +0.000 HD
ATOM     41  H   UNL     1     -12.067  -3.524  18.876  0.00  0.00    +0.000 HD
ATOM     42  H   UNL     1     -11.196  -1.947  17.171  0.00  0.00    +0.000 HD
ATOM     43  H   UNL     1     -10.578   0.397  17.848  0.00  0.00    +0.000 HD
ATOM     44  H   UNL     1     -11.061  -2.645  23.447  0.00  0.00    +0.000 HD
ATOM     45  H   UNL     1     -10.662  -2.216  25.643  0.00  0.00    +0.000 HD
ENDROOT
BRANCH   5  46
ATOM     46  C   UNL     1     -12.822   3.152  24.199  0.00  0.00    +0.000 C 
ATOM     47  H   UNL     1     -13.728   3.716  23.978  0.00  0.00    +0.000 HD
ATOM     48  H   UNL     1     -13.119   2.239  24.731  0.00  0.00    +0.000 HD
ATOM     49  H   UNL     1     -12.220   3.715  24.925  0.00  0.00    +0.000 HD
ENDBRANCH   5  46
BRANCH   1  50
ATOM     50  N   UNL     1     -14.135   4.488  20.165  0.00  0.00    +0.000 NA
ATOM     51  H   UNL     1     -15.030   4.849  20.490  0.00  0.00    +0.000 HD
BRANCH  50  52
ATOM     52  C   UNL     1     -14.327   3.858  18.861  0.00  0.00    +0.000 C 
ATOM     53  H   UNL     1     -15.384   3.894  18.577  0.00  0.00    +0.000 HD
ATOM     54  H   UNL     1     -13.749   4.405  18.111  0.00  0.00    +0.000 HD
ATOM     55  H   UNL     1     -13.992   2.816  18.835  0.00  0.00    +0.000 HD
ENDBRANCH  50  52
ENDBRANCH   1  50
BRANCH  27  56
ATOM     56  O   UNL     1      -9.223  -3.596  23.395  0.00  0.00    +0.000 OA
ATOM     57  H   UNL     1      -9.067  -3.981  24.272  0.00  0.00    +0.000 HD
ENDBRANCH  27  56
BRANCH   6  58
ATOM     58  O   UNL     1     -11.305   3.881  20.685  0.00  0.00    +0.000 OA
BRANCH  58  59
ATOM     59  C   UNL     1     -10.449   5.009  20.561  0.00  0.00    +0.000 C 
ATOM     60  H   UNL     1     -10.434   5.314  19.511  0.00  0.00    +0.000 HD
ATOM     61  H   UNL     1     -10.770   5.855  21.172  0.00  0.00    +0.000 HD
ATOM     62  H   UNL     1      -9.424   4.725  20.808  0.00  0.00    +0.000 HD
ENDBRANCH  58  59
ENDBRANCH   6  58
TORSDOF 6
ENDMDL
MODEL 3
REMARK VINA RESULT:    -7.136      4.280      8.104
REMARK INTER + INTRA:          -9.117
REMARK INTER:                  -8.839
REMARK INTRA:                  -0.278
REMARK UNBOUND:                -0.312
REMARK  Name = 
REMARK  6 active torsions:
REMARK  status: ('A' for Active; 'I' for Inactive)
REMARK    1  A    between atoms: C_1  and  N_2
REMARK    2  A    between atoms: N_2  and  C_3
REMARK    3  A    between atoms: C_7  and  C_8
REMARK    4  A    between atoms: C_9  and  O_10
REMARK    5  A    between atoms: O_10  and  C_11
REMARK    6  A    between atoms: C_32  and  O_33
REMARK                            x       y       z     vdW  Elec       q    Type
REMARK                         _______ _______ _______ _____ _____    ______ ____
ROOT
ATOM      1  C   UNL     1      -9.147  -2.741  24.725  0.00  0.00    +0.000 C 
ATOM      2  C   UNL     1      -9.063  -1.378  25.448  0.00  0.00    +0.000 C 
ATOM      3  C   UNL     1      -9.700  -0.237  24.659  0.00  0.00    +0.000 C 
ATOM      4  O   UNL     1     -10.853  -0.773  24.010  0.00  0.00    +0.000 OA
ATOM      5  C   UNL     1     -10.529  -1.695  22.940  0.00  0.00    +0.000 C 
ATOM      6  C   UNL     1      -9.206  -2.511  23.195  0.00  0.00    +0.000 C 
ATOM      7  N   UNL     1     -10.491  -0.907  21.724  0.00  0.00    +0.000 N 
ATOM      8  C   UNL     1     -10.999  -1.138  20.442  0.00  0.00    +0.000 A 
ATOM      9  C   UNL     1     -11.275  -2.348  19.788  0.00  0.00    +0.000 A 
ATOM     10  C   UNL     1     -11.450  -2.327  18.404  0.00  0.00    +0.000 A 
ATOM     11  C   UNL     1     -11.472  -1.127  17.704  0.00  0.00    +0.000 A 
ATOM     12  C   UNL     1     -11.446   0.099  18.378  0.00  0.00    +0.000 A 
ATOM     13  C   UNL     1     -11.206   0.131  19.771  0.00  0.00    +0.000 A 
ATOM     14  C   UNL     1     -10.884   1.191  20.670  0.00  0.00    +0.000 A 
ATOM     15  C   UNL     1     -11.757   2.270  21.029  0.00  0.00    +0.000 A 
ATOM     16  C   UNL     1     -11.365   2.959  22.202  0.00  0.00    +0.000 A 
ATOM     17  C   UNL     1     -10.232   2.414  22.834  0.00  0.00    +0.000 A 
ATOM     18  C   UNL     1      -9.710   2.765  24.089  0.00  0.00    +0.000 A 
ATOM     19  C   UNL     1      -9.983   3.607  25.166  0.00  0.00    +0.000 A 
ATOM     20  C   UNL     1      -8.923   3.919  26.013  0.00  0.00    +0.000 A 
ATOM     21  C   UNL     1      -7.627   3.482  25.719  0.00  0.00    +0.000 A 
ATOM     22  C   UNL     1      -7.403   2.436  24.816  0.00  0.00    +0.000 A 
ATOM     23  C   UNL     1      -8.550   1.929  24.206  0.00  0.00    +0.000 A 
ATOM     24  N   UNL     1      -8.943   0.634  23.726  0.00  0.00    +0.000 N 
ATOM     25  C   UNL     1      -9.670   1.154  22.674  0.00  0.00    +0.000 A 
ATOM     26  C   UNL     1     -10.259   0.427  21.662  0.00  0.00    +0.000 A 
ATOM     27  C   UNL     1     -12.459   3.661  22.834  0.00  0.00    +0.000 C 
ATOM     28  N   UNL     1     -13.555   3.207  22.024  0.00  0.00    +0.000 N 
ATOM     29  C   UNL     1     -13.173   2.436  20.907  0.00  0.00    +0.000 C 
ATOM     30  O   UNL     1     -14.014   1.916  20.185  0.00  0.00    +0.000 OA
ATOM     31  H   UNL     1     -10.081  -3.225  25.040  0.00  0.00    +0.000 HD
ATOM     32  H   UNL     1      -9.691  -1.501  26.346  0.00  0.00    +0.000 HD
ATOM     33  H   UNL     1      -8.068  -1.111  25.811  0.00  0.00    +0.000 HD
ATOM     34  H   UNL     1     -10.091   0.459  25.414  0.00  0.00    +0.000 HD
ATOM     35  H   UNL     1      -9.248  -3.457  22.645  0.00  0.00    +0.000 HD
ATOM     36  H   UNL     1     -11.252  -3.300  20.305  0.00  0.00    +0.000 HD
ATOM     37  H   UNL     1     -11.529  -3.269  17.865  0.00  0.00    +0.000 HD
ATOM     38  H   UNL     1     -11.480  -1.143  16.616  0.00  0.00    +0.000 HD
ATOM     39  H   UNL     1     -11.446   1.026  17.810  0.00  0.00    +0.000 HD
ATOM     40  H   UNL     1     -10.973   4.006  25.339  0.00  0.00    +0.000 HD
ATOM     41  H   UNL     1      -9.104   4.565  26.866  0.00  0.00    +0.000 HD
ATOM     42  H   UNL     1      -6.788   3.924  26.253  0.00  0.00    +0.000 HD
ATOM     43  H   UNL     1      -6.411   2.038  24.628  0.00  0.00    +0.000 HD
ATOM     44  H   UNL     1     -12.615   3.374  23.878  0.00  0.00    +0.000 HD
ATOM     45  H   UNL     1     -14.323   2.759  22.510  0.00  0.00    +0.000 HD
ENDROOT
BRANCH   5  46
ATOM     46  C   UNL     1     -11.773  -2.609  23.010  0.00  0.00    +0.000 C 
ATOM     47  H   UNL     1     -11.594  -3.602  22.598  0.00  0.00    +0.000 HD
ATOM     48  H   UNL     1     -12.110  -2.735  24.047  0.00  0.00    +0.000 HD
ATOM     49  H   UNL     1     -12.628  -2.156  22.491  0.00  0.00    +0.000 HD
ENDBRANCH   5  46
BRANCH   1  50
ATOM     50  N   UNL     1      -8.062  -3.587  25.259  0.00  0.00    +0.000 NA
ATOM     51  H   UNL     1      -8.250  -4.555  25.006  0.00  0.00    +0.000 HD
BRANCH  50  52
ATOM     52  C   UNL     1      -7.918  -3.498  26.710  0.00  0.00    +0.000 C 
ATOM     53  H   UNL     1      -8.599  -4.201  27.200  0.00  0.00    +0.000 HD
ATOM     54  H   UNL     1      -6.893  -3.761  26.985  0.00  0.00    +0.000 HD
ATOM     55  H   UNL     1      -8.114  -2.492  27.099  0.00  0.00    +0.000 HD
ENDBRANCH  50  52
ENDBRANCH   1  50
BRANCH  27  56
ATOM     56  O   UNL     1     -12.386   5.049  22.682  0.00  0.00    +0.000 OA
ATOM     57  H   UNL     1     -12.201   5.365  23.581  0.00  0.00    +0.000 HD
ENDBRANCH  27  56
BRANCH   6  58
ATOM     58  O   UNL     1      -7.950  -1.870  22.874  0.00  0.00    +0.000 OA
BRANCH  58  59
ATOM     59  C   UNL     1      -7.066  -2.600  22.034  0.00  0.00    +0.000 C 
ATOM     60  H   UNL     1      -7.649  -3.344  21.487  0.00  0.00    +0.000 HD
ATOM     61  H   UNL     1      -6.538  -1.965  21.318  0.00  0.00    +0.000 HD
ATOM     62  H   UNL     1      -6.355  -3.161  22.643  0.00  0.00    +0.000 HD
ENDBRANCH  58  59
ENDBRANCH   6  58
TORSDOF 6
ENDMDL
MODEL 4
REMARK VINA RESULT:    -7.096      1.927      5.604
REMARK INTER + INTRA:          -9.068
REMARK INTER:                  -8.744
REMARK INTRA:                  -0.324
REMARK UNBOUND:                -0.312
REMARK  Name = 
REMARK  6 active torsions:
REMARK  status: ('A' for Active; 'I' for Inactive)
REMARK    1  A    between atoms: C_1  and  N_2
REMARK    2  A    between atoms: N_2  and  C_3
REMARK    3  A    between atoms: C_7  and  C_8
REMARK    4  A    between atoms: C_9  and  O_10
REMARK    5  A    between atoms: O_10  and  C_11
REMARK    6  A    between atoms: C_32  and  O_33
REMARK                            x       y       z     vdW  Elec       q    Type
REMARK                         _______ _______ _______ _____ _____    ______ ____
ROOT
ATOM      1  C   UNL     1     -11.869   0.291  18.584  0.00  0.00    +0.000 C 
ATOM      2  C   UNL     1     -12.288  -0.412  17.274  0.00  0.00    +0.000 C 
ATOM      3  C   UNL     1     -11.744  -1.833  17.152  0.00  0.00    +0.000 C 
ATOM      4  O   UNL     1     -11.778  -2.405  18.459  0.00  0.00    +0.000 OA
ATOM      5  C   UNL     1     -10.809  -1.821  19.364  0.00  0.00    +0.000 C 
ATOM      6  C   UNL     1     -10.525  -0.298  19.080  0.00  0.00    +0.000 C 
ATOM      7  N   UNL     1      -9.623  -2.650  19.279  0.00  0.00    +0.000 N 
ATOM      8  C   UNL     1      -8.764  -3.160  20.258  0.00  0.00    +0.000 A 
ATOM      9  C   UNL     1      -8.475  -2.675  21.541  0.00  0.00    +0.000 A 
ATOM     10  C   UNL     1      -7.340  -3.160  22.192  0.00  0.00    +0.000 A 
ATOM     11  C   UNL     1      -6.581  -4.184  21.638  0.00  0.00    +0.000 A 
ATOM     12  C   UNL     1      -7.001  -4.844  20.478  0.00  0.00    +0.000 A 
ATOM     13  C   UNL     1      -8.108  -4.350  19.750  0.00  0.00    +0.000 A 
ATOM     14  C   UNL     1      -8.610  -4.637  18.445  0.00  0.00    +0.000 A 
ATOM     15  C   UNL     1      -9.190  -5.882  18.034  0.00  0.00    +0.000 A 
ATOM     16  C   UNL     1      -9.948  -5.795  16.842  0.00  0.00    +0.000 A 
ATOM     17  C   UNL     1     -10.048  -4.493  16.320  0.00  0.00    +0.000 A 
ATOM     18  C   UNL     1     -10.862  -4.064  15.259  0.00  0.00    +0.000 A 
ATOM     19  C   UNL     1     -11.823  -4.557  14.380  0.00  0.00    +0.000 A 
ATOM     20  C   UNL     1     -12.035  -3.841  13.204  0.00  0.00    +0.000 A 
ATOM     21  C   UNL     1     -11.233  -2.739  12.889  0.00  0.00    +0.000 A 
ATOM     22  C   UNL     1     -10.473  -2.093  13.871  0.00  0.00    +0.000 A 
ATOM     23  C   UNL     1     -10.535  -2.672  15.139  0.00  0.00    +0.000 A 
ATOM     24  N   UNL     1     -10.463  -2.163  16.480  0.00  0.00    +0.000 N 
ATOM     25  C   UNL     1      -9.810  -3.281  16.957  0.00  0.00    +0.000 A 
ATOM     26  C   UNL     1      -9.289  -3.433  18.224  0.00  0.00    +0.000 A 
ATOM     27  C   UNL     1     -10.919  -6.860  16.714  0.00  0.00    +0.000 C 
ATOM     28  N   UNL     1     -10.775  -7.491  17.996  0.00  0.00    +0.000 N 
ATOM     29  C   UNL     1      -9.718  -6.983  18.779  0.00  0.00    +0.000 C 
ATOM     30  O   UNL     1      -9.541  -7.375  19.925  0.00  0.00    +0.000 OA
ATOM     31  H   UNL     1     -12.640   0.076  19.337  0.00  0.00    +0.000 HD
ATOM     32  H   UNL     1     -13.382  -0.521  17.356  0.00  0.00    +0.000 HD
ATOM     33  H   UNL     1     -12.111   0.167  16.365  0.00  0.00    +0.000 HD
ATOM     34  H   UNL     1     -12.497  -2.387  16.575  0.00  0.00    +0.000 HD
ATOM     35  H   UNL     1     -10.184   0.189  19.999  0.00  0.00    +0.000 HD
ATOM     36  H   UNL     1      -9.040  -1.868  21.994  0.00  0.00    +0.000 HD
ATOM     37  H   UNL     1      -7.025  -2.698  23.126  0.00  0.00    +0.000 HD
ATOM     38  H   UNL     1      -5.633  -4.455  22.098  0.00  0.00    +0.000 HD
ATOM     39  H   UNL     1      -6.384  -5.630  20.051  0.00  0.00    +0.000 HD
ATOM     40  H   UNL     1     -12.382  -5.457  14.594  0.00  0.00    +0.000 HD
ATOM     41  H   UNL     1     -12.783  -4.194  12.501  0.00  0.00    +0.000 HD
ATOM     42  H   UNL     1     -11.255  -2.343  11.876  0.00  0.00    +0.000 HD
ATOM     43  H   UNL     1      -9.900  -1.196  13.661  0.00  0.00    +0.000 HD
ATOM     44  H   UNL     1     -11.943  -6.500  16.581  0.00  0.00    +0.000 HD
ATOM     45  H   UNL     1     -11.615  -7.575  18.557  0.00  0.00    +0.000 HD
ENDROOT
BRANCH   5  46
ATOM     46  C   UNL     1     -11.564  -2.009  20.699  0.00  0.00    +0.000 C 
ATOM     47  H   UNL     1     -12.057  -1.099  21.041  0.00  0.00    +0.000 HD
ATOM     48  H   UNL     1     -12.331  -2.790  20.610  0.00  0.00    +0.000 HD
ATOM     49  H   UNL     1     -10.891  -2.368  21.489  0.00  0.00    +0.000 HD
ENDBRANCH   5  46
BRANCH   1  50
ATOM     50  N   UNL     1     -11.943   1.745  18.344  0.00  0.00    +0.000 NA
ATOM     51  H   UNL     1     -11.215   2.003  17.681  0.00  0.00    +0.000 HD
BRANCH  50  52
ATOM     52  C   UNL     1     -11.779   2.542  19.558  0.00  0.00    +0.000 C 
ATOM     53  H   UNL     1     -10.941   3.236  19.442  0.00  0.00    +0.000 HD
ATOM     54  H   UNL     1     -12.688   3.124  19.730  0.00  0.00    +0.000 HD
ATOM     55  H   UNL     1     -11.607   1.931  20.451  0.00  0.00    +0.000 HD
ENDBRANCH  50  52
ENDBRANCH   1  50
BRANCH  27  56
ATOM     56  O   UNL     1     -10.572  -7.809  15.748  0.00  0.00    +0.000 OA
ATOM     57  H   UNL     1      -9.879  -7.365  15.234  0.00  0.00    +0.000 HD
ENDBRANCH  27  56
BRANCH   6  58
ATOM     58  O   UNL     1      -9.578   0.024  18.034  0.00  0.00    +0.000 OA
BRANCH  58  59
ATOM     59  C   UNL     1      -8.529   0.915  18.386  0.00  0.00    +0.000 C 
ATOM     60  H   UNL     1      -8.266   1.503  17.503  0.00  0.00    +0.000 HD
ATOM     61  H   UNL     1      -8.802   1.595  19.196  0.00  0.00    +0.000 HD
ATOM     62  H   UNL     1      -7.634   0.348  18.649  0.00  0.00    +0.000 HD
ENDBRANCH  58  59
ENDBRANCH   6  58
TORSDOF 6
ENDMDL
MODEL 5
REMARK VINA RESULT:    -6.837      2.238      5.307
REMARK INTER + INTRA:          -8.748
REMARK INTER:                  -8.364
REMARK INTRA:                  -0.384
REMARK UNBOUND:                -0.312
REMARK  Name = 
REMARK  6 active torsions:
REMARK  status: ('A' for Active; 'I' for Inactive)
REMARK    1  A    between atoms: C_1  and  N_2
REMARK    2  A    between atoms: N_2  and  C_3
REMARK    3  A    between atoms: C_7  and  C_8
REMARK    4  A    between atoms: C_9  and  O_10
REMARK    5  A    between atoms: O_10  and  C_11
REMARK    6  A    between atoms: C_32  and  O_33
REMARK                            x       y       z     vdW  Elec       q    Type
REMARK                         _______ _______ _______ _____ _____    ______ ____
ROOT
ATOM      1  C   UNL     1      -9.034   2.029  16.387  0.00  0.00    +0.000 C 
ATOM      2  C   UNL     1      -8.947   1.458  17.820  0.00  0.00    +0.000 C 
ATOM      3  C   UNL     1      -9.221  -0.041  17.889  0.00  0.00    +0.000 C 
ATOM      4  O   UNL     1      -8.651  -0.625  16.719  0.00  0.00    +0.000 OA
ATOM      5  C   UNL     1      -9.358  -0.276  15.503  0.00  0.00    +0.000 C 
ATOM      6  C   UNL     1     -10.002   1.162  15.544  0.00  0.00    +0.000 C 
ATOM      7  N   UNL     1     -10.326  -1.331  15.281  0.00  0.00    +0.000 N 
ATOM      8  C   UNL     1     -10.701  -2.030  14.129  0.00  0.00    +0.000 A 
ATOM      9  C   UNL     1     -10.636  -1.646  12.782  0.00  0.00    +0.000 A 
ATOM     10  C   UNL     1     -11.378  -2.371  11.850  0.00  0.00    +0.000 A 
ATOM     11  C   UNL     1     -12.069  -3.517  12.223  0.00  0.00    +0.000 A 
ATOM     12  C   UNL     1     -11.940  -4.048  13.511  0.00  0.00    +0.000 A 
ATOM     13  C   UNL     1     -11.251  -3.318  14.506  0.00  0.00    +0.000 A 
ATOM     14  C   UNL     1     -11.163  -3.465  15.923  0.00  0.00    +0.000 A 
ATOM     15  C   UNL     1     -10.527  -4.552  16.608  0.00  0.00    +0.000 A 
ATOM     16  C   UNL     1     -10.237  -4.282  17.967  0.00  0.00    +0.000 A 
ATOM     17  C   UNL     1     -10.563  -2.976  18.373  0.00  0.00    +0.000 A 
ATOM     18  C   UNL     1     -10.242  -2.363  19.595  0.00  0.00    +0.000 A 
ATOM     19  C   UNL     1      -9.550  -2.624  20.776  0.00  0.00    +0.000 A 
ATOM     20  C   UNL     1      -9.879  -1.854  21.889  0.00  0.00    +0.000 A 
ATOM     21  C   UNL     1     -10.932  -0.935  21.831  0.00  0.00    +0.000 A 
ATOM     22  C   UNL     1     -11.433  -0.484  20.603  0.00  0.00    +0.000 A 
ATOM     23  C   UNL     1     -10.847  -1.067  19.480  0.00  0.00    +0.000 A 
ATOM     24  N   UNL     1     -10.567  -0.615  18.145  0.00  0.00    +0.000 N 
ATOM     25  C   UNL     1     -10.801  -1.855  17.587  0.00  0.00    +0.000 A 
ATOM     26  C   UNL     1     -10.836  -2.141  16.240  0.00  0.00    +0.000 A 
ATOM     27  C   UNL     1      -9.181  -5.119  18.493  0.00  0.00    +0.000 C 
ATOM     28  N   UNL     1      -8.771  -5.796  17.294  0.00  0.00    +0.000 N 
ATOM     29  C   UNL     1      -9.585  -5.537  16.172  0.00  0.00    +0.000 C 
ATOM     30  O   UNL     1      -9.296  -5.983  15.070  0.00  0.00    +0.000 OA
ATOM     31  H   UNL     1      -8.032   1.961  15.942  0.00  0.00    +0.000 HD
ATOM     32  H   UNL     1      -7.887   1.577  18.101  0.00  0.00    +0.000 HD
ATOM     33  H   UNL     1      -9.520   2.008  18.569  0.00  0.00    +0.000 HD
ATOM     34  H   UNL     1      -8.612  -0.413  18.725  0.00  0.00    +0.000 HD
ATOM     35  H   UNL     1     -10.105   1.546  14.524  0.00  0.00    +0.000 HD
ATOM     36  H   UNL     1     -10.116  -0.750  12.463  0.00  0.00    +0.000 HD
ATOM     37  H   UNL     1     -11.448  -2.007  10.827  0.00  0.00    +0.000 HD
ATOM     38  H   UNL     1     -12.743  -3.991  11.511  0.00  0.00    +0.000 HD
ATOM     39  H   UNL     1     -12.504  -4.936  13.787  0.00  0.00    +0.000 HD
ATOM     40  H   UNL     1      -8.793  -3.394  20.833  0.00  0.00    +0.000 HD
ATOM     41  H   UNL     1      -9.352  -2.027  22.823  0.00  0.00    +0.000 HD
ATOM     42  H   UNL     1     -11.321  -0.520  22.758  0.00  0.00    +0.000 HD
ATOM     43  H   UNL     1     -12.201   0.278  20.539  0.00  0.00    +0.000 HD
ATOM     44  H   UNL     1      -8.345  -4.551  18.912  0.00  0.00    +0.000 HD
ATOM     45  H   UNL     1      -7.793  -5.716  17.040  0.00  0.00    +0.000 HD
ENDROOT
BRANCH   5  46
ATOM     46  C   UNL     1      -8.182  -0.333  14.502  0.00  0.00    +0.000 C 
ATOM     47  H   UNL     1      -7.336   0.282  14.804  0.00  0.00    +0.000 HD
ATOM     48  H   UNL     1      -7.820  -1.362  14.380  0.00  0.00    +0.000 HD
ATOM     49  H   UNL     1      -8.503  -0.029  13.497  0.00  0.00    +0.000 HD
ENDBRANCH   5  46
BRANCH   1  50
ATOM     50  N   UNL     1      -9.319   3.471  16.506  0.00  0.00    +0.000 NA
ATOM     51  H   UNL     1      -8.548   3.990  16.091  0.00  0.00    +0.000 HD
BRANCH  50  52
ATOM     52  C   UNL     1      -9.497   3.915  17.887  0.00  0.00    +0.000 C 
ATOM     53  H   UNL     1      -8.572   3.764  18.453  0.00  0.00    +0.000 HD
ATOM     54  H   UNL     1      -9.735   4.982  17.893  0.00  0.00    +0.000 HD
ATOM     55  H   UNL     1     -10.311   3.394  18.402  0.00  0.00    +0.000 HD
ENDBRANCH  50  52
ENDBRANCH   1  50
BRANCH  27  56
ATOM     56  O   UNL     1      -9.641  -6.097  19.379  0.00  0.00    +0.000 OA
ATOM     57  H   UNL     1     -10.245  -6.628  18.835  0.00  0.00    +0.000 HD
ENDBRANCH  27  56
BRANCH   6  58
ATOM     58  O   UNL     1     -11.284   1.304  16.200  0.00  0.00    +0.000 OA
BRANCH  58  59
ATOM     59  C   UNL     1     -12.388   1.621  15.364  0.00  0.00    +0.000 C 
ATOM     60  H   UNL     1     -12.619   0.745  14.753  0.00  0.00    +0.000 HD
ATOM     61  H   UNL     1     -13.280   1.907  15.927  0.00  0.00    +0.000 HD
ATOM     62  H   UNL     1     -12.109   2.412  14.665  0.00  0.00    +0.000 HD
ENDBRANCH  58  59
ENDBRANCH   6  58
TORSDOF 6
ENDMDL
MODEL 6
REMARK VINA RESULT:    -6.792      3.484      7.716
REMARK INTER + INTRA:          -8.692
REMARK INTER:                  -8.316
REMARK INTRA:                  -0.377
REMARK UNBOUND:                -0.312
REMARK  Name = 
REMARK  6 active torsions:
REMARK  status: ('A' for Active; 'I' for Inactive)
REMARK    1  A    between atoms: C_1  and  N_2
REMARK    2  A    between atoms: N_2  and  C_3
REMARK    3  A    between atoms: C_7  and  C_8
REMARK    4  A    between atoms: C_9  and  O_10
REMARK    5  A    between atoms: O_10  and  C_11
REMARK    6  A    between atoms: C_32  and  O_33
REMARK                            x       y       z     vdW  Elec       q    Type
REMARK                         _______ _______ _______ _____ _____    ______ ____
ROOT
ATOM      1  C   UNL     1     -11.073   4.014  18.260  0.00  0.00    +0.000 C 
ATOM      2  C   UNL     1     -10.700   4.224  19.745  0.00  0.00    +0.000 C 
ATOM      3  C   UNL     1     -10.415   2.920  20.485  0.00  0.00    +0.000 C 
ATOM      4  O   UNL     1      -9.746   2.057  19.566  0.00  0.00    +0.000 OA
ATOM      5  C   UNL     1     -10.605   1.581  18.499  0.00  0.00    +0.000 C 
ATOM      6  C   UNL     1     -11.717   2.616  18.082  0.00  0.00    +0.000 C 
ATOM      7  N   UNL     1     -11.143   0.313  18.948  0.00  0.00    +0.000 N 
ATOM      8  C   UNL     1     -11.312  -0.915  18.299  0.00  0.00    +0.000 A 
ATOM      9  C   UNL     1     -11.471  -1.196  16.934  0.00  0.00    +0.000 A 
ATOM     10  C   UNL     1     -11.961  -2.451  16.570  0.00  0.00    +0.000 A 
ATOM     11  C   UNL     1     -12.172  -3.440  17.522  0.00  0.00    +0.000 A 
ATOM     12  C   UNL     1     -11.782  -3.252  18.853  0.00  0.00    +0.000 A 
ATOM     13  C   UNL     1     -11.340  -1.980  19.283  0.00  0.00    +0.000 A 
ATOM     14  C   UNL     1     -11.119  -1.422  20.578  0.00  0.00    +0.000 A 
ATOM     15  C   UNL     1     -10.096  -1.831  21.495  0.00  0.00    +0.000 A 
ATOM     16  C   UNL     1      -9.839  -0.893  22.523  0.00  0.00    +0.000 A 
ATOM     17  C   UNL     1     -10.586   0.294  22.414  0.00  0.00    +0.000 A 
ATOM     18  C   UNL     1     -10.431   1.466  23.173  0.00  0.00    +0.000 A 
ATOM     19  C   UNL     1      -9.620   1.994  24.176  0.00  0.00    +0.000 A 
ATOM     20  C   UNL     1     -10.134   3.058  24.913  0.00  0.00    +0.000 A 
ATOM     21  C   UNL     1     -11.448   3.494  24.711  0.00  0.00    +0.000 A 
ATOM     22  C   UNL     1     -12.151   3.158  23.548  0.00  0.00    +0.000 A 
ATOM     23  C   UNL     1     -11.465   2.321  22.667  0.00  0.00    +0.000 A 
ATOM     24  N   UNL     1     -11.448   2.165  21.239  0.00  0.00    +0.000 N 
ATOM     25  C   UNL     1     -11.257   0.800  21.308  0.00  0.00    +0.000 A 
ATOM     26  C   UNL     1     -11.269  -0.072  20.242  0.00  0.00    +0.000 A 
ATOM     27  C   UNL     1      -8.523  -1.042  23.105  0.00  0.00    +0.000 C 
ATOM     28  N   UNL     1      -7.972  -2.044  22.235  0.00  0.00    +0.000 N 
ATOM     29  C   UNL     1      -8.893  -2.583  21.312  0.00  0.00    +0.000 C 
ATOM     30  O   UNL     1      -8.531  -3.381  20.458  0.00  0.00    +0.000 OA
ATOM     31  H   UNL     1     -10.143   4.044  17.678  0.00  0.00    +0.000 HD
ATOM     32  H   UNL     1      -9.738   4.762  19.715  0.00  0.00    +0.000 HD
ATOM     33  H   UNL     1     -11.386   4.863  20.305  0.00  0.00    +0.000 HD
ATOM     34  H   UNL     1      -9.663   3.172  21.245  0.00  0.00    +0.000 HD
ATOM     35  H   UNL     1     -12.013   2.437  17.044  0.00  0.00    +0.000 HD
ATOM     36  H   UNL     1     -11.327  -0.441  16.169  0.00  0.00    +0.000 HD
ATOM     37  H   UNL     1     -12.218  -2.638  15.529  0.00  0.00    +0.000 HD
ATOM     38  H   UNL     1     -12.674  -4.361  17.234  0.00  0.00    +0.000 HD
ATOM     39  H   UNL     1     -11.973  -4.032  19.586  0.00  0.00    +0.000 HD
ATOM     40  H   UNL     1      -8.635   1.597  24.380  0.00  0.00    +0.000 HD
ATOM     41  H   UNL     1      -9.525   3.498  25.697  0.00  0.00    +0.000 HD
ATOM     42  H   UNL     1     -11.902   4.157  25.444  0.00  0.00    +0.000 HD
ATOM     43  H   UNL     1     -13.144   3.543  23.342  0.00  0.00    +0.000 HD
ATOM     44  H   UNL     1      -7.922  -0.129  23.061  0.00  0.00    +0.000 HD
ATOM     45  H   UNL     1      -7.105  -1.810  21.765  0.00  0.00    +0.000 HD
ENDROOT
BRANCH   5  46
ATOM     46  C   UNL     1      -9.550   1.413  17.383  0.00  0.00    +0.000 C 
ATOM     47  H   UNL     1      -9.770   0.583  16.712  0.00  0.00    +0.000 HD
ATOM     48  H   UNL     1      -9.474   2.323  16.774  0.00  0.00    +0.000 HD
ATOM     49  H   UNL     1      -8.546   1.274  17.804  0.00  0.00    +0.000 HD
ENDBRANCH   5  46
BRANCH   1  50
ATOM     50  N   UNL     1     -11.848   5.195  17.832  0.00  0.00    +0.000 NA
ATOM     51  H   UNL     1     -11.315   5.693  17.122  0.00  0.00    +0.000 HD
BRANCH  50  52
ATOM     52  C   UNL     1     -12.153   6.115  18.925  0.00  0.00    +0.000 C 
ATOM     53  H   UNL     1     -13.016   5.753  19.493  0.00  0.00    +0.000 HD
ATOM     54  H   UNL     1     -11.293   6.168  19.599  0.00  0.00    +0.000 HD
ATOM     55  H   UNL     1     -12.362   7.134  18.581  0.00  0.00    +0.000 HD
ENDBRANCH  50  52
ENDBRANCH   1  50
BRANCH  27  56
ATOM     56  O   UNL     1      -8.548  -1.587  24.392  0.00  0.00    +0.000 OA
ATOM     57  H   UNL     1      -9.464  -1.443  24.680  0.00  0.00    +0.000 HD
ENDBRANCH  27  56
BRANCH   6  58
ATOM     58  O   UNL     1     -12.922   2.665  18.881  0.00  0.00    +0.000 OA
BRANCH  58  59
ATOM     59  C   UNL     1     -14.137   2.363  18.209  0.00  0.00    +0.000 C 
ATOM     60  H   UNL     1     -14.964   2.775  18.793  0.00  0.00    +0.000 HD
ATOM     61  H   UNL     1     -14.176   2.773  17.198  0.00  0.00    +0.000 HD
ATOM     62  H   UNL     1     -14.290   1.282  18.190  0.00  0.00    +0.000 HD
ENDBRANCH  58  59
ENDBRANCH   6  58
TORSDOF 6
ENDMDL
MODEL 7
REMARK VINA RESULT:    -6.694      2.454      6.374
REMARK INTER + INTRA:          -8.571
REMARK INTER:                  -8.355
REMARK INTRA:                  -0.216
REMARK UNBOUND:                -0.312
REMARK  Name = 
REMARK  6 active torsions:
REMARK  status: ('A' for Active; 'I' for Inactive)
REMARK    1  A    between atoms: C_1  and  N_2
REMARK    2  A    between atoms: N_2  and  C_3
REMARK    3  A    between atoms: C_7  and  C_8
REMARK    4  A    between atoms: C_9  and  O_10
REMARK    5  A    between atoms: O_10  and  C_11
REMARK    6  A    between atoms: C_32  and  O_33
REMARK                            x       y       z     vdW  Elec       q    Type
REMARK                         _______ _______ _______ _____ _____    ______ ____
ROOT
ATOM      1  C   UNL     1     -12.567   1.241  22.532  0.00  0.00    +0.000 C 
ATOM      2  C   UNL     1     -12.847   1.410  21.022  0.00  0.00    +0.000 C 
ATOM      3  C   UNL     1     -12.129   0.379  20.156  0.00  0.00    +0.000 C 
ATOM      4  O   UNL     1     -12.140  -0.852  20.878  0.00  0.00    +0.000 OA
ATOM      5  C   UNL     1     -11.285  -0.837  22.047  0.00  0.00    +0.000 C 
ATOM      6  C   UNL     1     -11.180   0.580  22.729  0.00  0.00    +0.000 C 
ATOM      7  N   UNL     1     -10.004  -1.362  21.619  0.00  0.00    +0.000 N 
ATOM      8  C   UNL     1      -9.126  -2.281  22.204  0.00  0.00    +0.000 A 
ATOM      9  C   UNL     1      -8.947  -2.621  23.552  0.00  0.00    +0.000 A 
ATOM     10  C   UNL     1      -7.786  -3.306  23.913  0.00  0.00    +0.000 A 
ATOM     11  C   UNL     1      -6.887  -3.747  22.950  0.00  0.00    +0.000 A 
ATOM     12  C   UNL     1      -7.179  -3.630  21.586  0.00  0.00    +0.000 A 
ATOM     13  C   UNL     1      -8.310  -2.891  21.171  0.00  0.00    +0.000 A 
ATOM     14  C   UNL     1      -8.724  -2.396  19.898  0.00  0.00    +0.000 A 
ATOM     15  C   UNL     1      -9.131  -3.203  18.785  0.00  0.00    +0.000 A 
ATOM     16  C   UNL     1      -9.849  -2.492  17.794  0.00  0.00    +0.000 A 
ATOM     17  C   UNL     1     -10.088  -1.144  18.116  0.00  0.00    +0.000 A 
ATOM     18  C   UNL     1     -10.908  -0.239  17.423  0.00  0.00    +0.000 A 
ATOM     19  C   UNL     1     -11.769  -0.195  16.328  0.00  0.00    +0.000 A 
ATOM     20  C   UNL     1     -12.022   1.056  15.769  0.00  0.00    +0.000 A 
ATOM     21  C   UNL     1     -11.351   2.191  16.236  0.00  0.00    +0.000 A 
ATOM     22  C   UNL     1     -10.713   2.194  17.482  0.00  0.00    +0.000 A 
ATOM     23  C   UNL     1     -10.751   0.979  18.165  0.00  0.00    +0.000 A 
ATOM     24  N   UNL     1     -10.792   0.607  19.552  0.00  0.00    +0.000 N 
ATOM     25  C   UNL     1     -10.025  -0.523  19.357  0.00  0.00    +0.000 A 
ATOM     26  C   UNL     1      -9.537  -1.348  20.347  0.00  0.00    +0.000 A 
ATOM     27  C   UNL     1     -10.676  -3.350  16.974  0.00  0.00    +0.000 C 
ATOM     28  N   UNL     1     -10.503  -4.601  17.660  0.00  0.00    +0.000 N 
ATOM     29  C   UNL     1      -9.547  -4.569  18.696  0.00  0.00    +0.000 C 
ATOM     30  O   UNL     1      -9.366  -5.543  19.414  0.00  0.00    +0.000 OA
ATOM     31  H   UNL     1     -13.333   0.566  22.936  0.00  0.00    +0.000 HD
ATOM     32  H   UNL     1     -13.922   1.189  20.913  0.00  0.00    +0.000 HD
ATOM     33  H   UNL     1     -12.709   2.424  20.640  0.00  0.00    +0.000 HD
ATOM     34  H   UNL     1     -12.786   0.213  19.291  0.00  0.00    +0.000 HD
ATOM     35  H   UNL     1     -10.936   0.459  23.789  0.00  0.00    +0.000 HD
ATOM     36  H   UNL     1      -9.624  -2.280  24.327  0.00  0.00    +0.000 HD
ATOM     37  H   UNL     1      -7.566  -3.457  24.968  0.00  0.00    +0.000 HD
ATOM     38  H   UNL     1      -5.930  -4.161  23.261  0.00  0.00    +0.000 HD
ATOM     39  H   UNL     1      -6.454  -3.965  20.849  0.00  0.00    +0.000 HD
ATOM     40  H   UNL     1     -12.221  -1.090  15.923  0.00  0.00    +0.000 HD
ATOM     41  H   UNL     1     -12.695   1.126  14.920  0.00  0.00    +0.000 HD
ATOM     42  H   UNL     1     -11.384   3.103  15.644  0.00  0.00    +0.000 HD
ATOM     43  H   UNL     1     -10.248   3.085  17.889  0.00  0.00    +0.000 HD
ATOM     44  H   UNL     1     -11.731  -3.062  16.970  0.00  0.00    +0.000 HD
ATOM     45  H   UNL     1     -11.347  -5.063  17.979  0.00  0.00    +0.000 HD
ENDROOT
BRANCH   5  46
ATOM     46  C   UNL     1     -12.061  -1.831  22.941  0.00  0.00    +0.000 C 
ATOM     47  H   UNL     1     -11.968  -1.610  24.003  0.00  0.00    +0.000 HD
ATOM     48  H   UNL     1     -13.130  -1.829  22.693  0.00  0.00    +0.000 HD
ATOM     49  H   UNL     1     -11.734  -2.864  22.761  0.00  0.00    +0.000 HD
ENDBRANCH   5  46
BRANCH   1  50
ATOM     50  N   UNL     1     -12.811   2.547  23.172  0.00  0.00    +0.000 NA
ATOM     51  H   UNL     1     -13.672   2.489  23.712  0.00  0.00    +0.000 HD
BRANCH  50  52
ATOM     52  C   UNL     1     -12.926   3.648  22.218  0.00  0.00    +0.000 C 
ATOM     53  H   UNL     1     -13.447   3.311  21.316  0.00  0.00    +0.000 HD
ATOM     54  H   UNL     1     -13.506   4.456  22.672  0.00  0.00    +0.000 HD
ATOM     55  H   UNL     1     -11.956   4.065  21.926  0.00  0.00    +0.000 HD
ENDBRANCH  50  52
ENDBRANCH   1  50
BRANCH  27  56
ATOM     56  O   UNL     1     -10.179  -3.522  15.679  0.00  0.00    +0.000 OA
ATOM     57  H   UNL     1     -10.765  -2.969  15.138  0.00  0.00    +0.000 HD
ENDBRANCH  27  56
BRANCH   6  58
ATOM     58  O   UNL     1     -10.242   1.527  22.166  0.00  0.00    +0.000 OA
BRANCH  58  59
ATOM     59  C   UNL     1      -9.490   2.296  23.094  0.00  0.00    +0.000 C 
ATOM     60  H   UNL     1     -10.103   3.142  23.416  0.00  0.00    +0.000 HD
ATOM     61  H   UNL     1      -9.186   1.723  23.973  0.00  0.00    +0.000 HD
ATOM     62  H   UNL     1      -8.617   2.727  22.598  0.00  0.00    +0.000 HD
ENDBRANCH  58  59
ENDBRANCH   6  58
TORSDOF 6
ENDMDL
MODEL 8
REMARK VINA RESULT:    -6.580      2.368      6.399
REMARK INTER + INTRA:          -8.430
REMARK INTER:                  -8.047
REMARK INTRA:                  -0.384
REMARK UNBOUND:                -0.312
REMARK  Name = 
REMARK  6 active torsions:
REMARK  status: ('A' for Active; 'I' for Inactive)
REMARK    1  A    between atoms: C_1  and  N_2
REMARK    2  A    between atoms: N_2  and  C_3
REMARK    3  A    between atoms: C_7  and  C_8
REMARK    4  A    between atoms: C_9  and  O_10
REMARK    5  A    between atoms: O_10  and  C_11
REMARK    6  A    between atoms: C_32  and  O_33
REMARK                            x       y       z     vdW  Elec       q    Type
REMARK                         _______ _______ _______ _____ _____    ______ ____
ROOT
ATOM      1  C   UNL     1      -9.933   2.354  16.813  0.00  0.00    +0.000 C 
ATOM      2  C   UNL     1      -9.667   2.387  18.334  0.00  0.00    +0.000 C 
ATOM      3  C   UNL     1      -9.537   0.999  18.954  0.00  0.00    +0.000 C 
ATOM      4  O   UNL     1      -8.859   0.180  18.002  0.00  0.00    +0.000 OA
ATOM      5  C   UNL     1      -9.660  -0.120  16.833  0.00  0.00    +0.000 C 
ATOM      6  C   UNL     1     -10.658   1.035  16.444  0.00  0.00    +0.000 C 
ATOM      7  N   UNL     1     -10.321  -1.380  17.107  0.00  0.00    +0.000 N 
ATOM      8  C   UNL     1     -10.523  -2.521  16.323  0.00  0.00    +0.000 A 
ATOM      9  C   UNL     1     -10.592  -2.654  14.929  0.00  0.00    +0.000 A 
ATOM     10  C   UNL     1     -11.138  -3.825  14.402  0.00  0.00    +0.000 A 
ATOM     11  C   UNL     1     -11.495  -4.883  15.229  0.00  0.00    +0.000 A 
ATOM     12  C   UNL     1     -11.202  -4.857  16.597  0.00  0.00    +0.000 A 
ATOM     13  C   UNL     1     -10.707  -3.671  17.188  0.00  0.00    +0.000 A 
ATOM     14  C   UNL     1     -10.552  -3.262  18.546  0.00  0.00    +0.000 A 
ATOM     15  C   UNL     1      -9.638  -3.838  19.489  0.00  0.00    +0.000 A 
ATOM     16  C   UNL     1      -9.399  -3.028  20.624  0.00  0.00    +0.000 A 
ATOM     17  C   UNL     1     -10.049  -1.781  20.584  0.00  0.00    +0.000 A 
ATOM     18  C   UNL     1      -9.873  -0.704  21.469  0.00  0.00    +0.000 A 
ATOM     19  C   UNL     1      -9.111  -0.342  22.578  0.00  0.00    +0.000 A 
ATOM     20  C   UNL     1      -9.606   0.682  23.382  0.00  0.00    +0.000 A 
ATOM     21  C   UNL     1     -10.865   1.237  23.130  0.00  0.00    +0.000 A 
ATOM     22  C   UNL     1     -11.493   1.073  21.890  0.00  0.00    +0.000 A 
ATOM     23  C   UNL     1     -10.800   0.275  20.980  0.00  0.00    +0.000 A 
ATOM     24  N   UNL     1     -10.678   0.258  19.549  0.00  0.00    +0.000 N 
ATOM     25  C   UNL     1     -10.590  -1.118  19.490  0.00  0.00    +0.000 A 
ATOM     26  C   UNL     1     -10.578  -1.878  18.341  0.00  0.00    +0.000 A 
ATOM     27  C   UNL     1      -8.149  -3.337  21.282  0.00  0.00    +0.000 C 
ATOM     28  N   UNL     1      -7.602  -4.289  20.356  0.00  0.00    +0.000 N 
ATOM     29  C   UNL     1      -8.481  -4.661  19.317  0.00  0.00    +0.000 C 
ATOM     30  O   UNL     1      -8.108  -5.398  18.414  0.00  0.00    +0.000 OA
ATOM     31  H   UNL     1      -8.959   2.367  16.306  0.00  0.00    +0.000 HD
ATOM     32  H   UNL     1      -8.671   2.848  18.431  0.00  0.00    +0.000 HD
ATOM     33  H   UNL     1     -10.349   3.021  18.905  0.00  0.00    +0.000 HD
ATOM     34  H   UNL     1      -8.833   1.116  19.789  0.00  0.00    +0.000 HD
ATOM     35  H   UNL     1     -10.881   0.982  15.374  0.00  0.00    +0.000 HD
ATOM     36  H   UNL     1     -10.332  -1.842  14.259  0.00  0.00    +0.000 HD
ATOM     37  H   UNL     1     -11.323  -3.889  13.331  0.00  0.00    +0.000 HD
ATOM     38  H   UNL     1     -12.036  -5.729  14.811  0.00  0.00    +0.000 HD
ATOM     39  H   UNL     1     -11.506  -5.687  17.230  0.00  0.00    +0.000 HD
ATOM     40  H   UNL     1      -8.177  -0.834  22.811  0.00  0.00    +0.000 HD
ATOM     41  H   UNL     1      -9.032   0.994  24.249  0.00  0.00    +0.000 HD
ATOM     42  H   UNL     1     -11.329   1.859  23.892  0.00  0.00    +0.000 HD
ATOM     43  H   UNL     1     -12.437   1.554  21.653  0.00  0.00    +0.000 HD
ATOM     44  H   UNL     1      -7.483  -2.474  21.377  0.00  0.00    +0.000 HD
ATOM     45  H   UNL     1      -6.686  -4.079  19.978  0.00  0.00    +0.000 HD
ENDROOT
BRANCH   5  46
ATOM     46  C   UNL     1      -8.532  -0.261  15.785  0.00  0.00    +0.000 C 
ATOM     47  H   UNL     1      -8.563  -1.211  15.253  0.00  0.00    +0.000 HD
ATOM     48  H   UNL     1      -8.588   0.541  15.038  0.00  0.00    +0.000 HD
ATOM     49  H   UNL     1      -7.544  -0.144  16.248  0.00  0.00    +0.000 HD
ENDBRANCH   5  46
BRANCH   1  50
ATOM     50  N   UNL     1     -10.585   3.628  16.453  0.00  0.00    +0.000 NA
ATOM     51  H   UNL     1      -9.974   4.137  15.818  0.00  0.00    +0.000 HD
BRANCH  50  52
ATOM     52  C   UNL     1     -10.877   4.475  17.607  0.00  0.00    +0.000 C 
ATOM     53  H   UNL     1     -10.004   4.531  18.264  0.00  0.00    +0.000 HD
ATOM     54  H   UNL     1     -11.114   5.484  17.260  0.00  0.00    +0.000 HD
ATOM     55  H   UNL     1     -11.733   4.121  18.192  0.00  0.00    +0.000 HD
ENDBRANCH  50  52
ENDBRANCH   1  50
BRANCH  27  56
ATOM     56  O   UNL     1      -8.316  -4.000  22.501  0.00  0.00    +0.000 OA
ATOM     57  H   UNL     1      -7.409  -4.088  22.836  0.00  0.00    +0.000 HD
ENDBRANCH  27  56
BRANCH   6  58
ATOM     58  O   UNL     1     -11.917   1.101  17.154  0.00  0.00    +0.000 OA
BRANCH  58  59
ATOM     59  C   UNL     1     -13.087   0.857  16.385  0.00  0.00    +0.000 C 
ATOM     60  H   UNL     1     -13.187   1.658  15.649  0.00  0.00    +0.000 HD
ATOM     61  H   UNL     1     -13.061  -0.103  15.864  0.00  0.00    +0.000 HD
ATOM     62  H   UNL     1     -13.970   0.922  17.024  0.00  0.00    +0.000 HD
ENDBRANCH  58  59
ENDBRANCH   6  58
TORSDOF 6
ENDMDL
MODEL 9
REMARK VINA RESULT:    -6.519      3.471      5.825
REMARK INTER + INTRA:          -8.355
REMARK INTER:                  -8.144
REMARK INTRA:                  -0.212
REMARK UNBOUND:                -0.312
REMARK  Name = 
REMARK  6 active torsions:
REMARK  status: ('A' for Active; 'I' for Inactive)
REMARK    1  A    between atoms: C_1  and  N_2
REMARK    2  A    between atoms: N_2  and  C_3
REMARK    3  A    between atoms: C_7  and  C_8
REMARK    4  A    between atoms: C_9  and  O_10
REMARK    5  A    between atoms: O_10  and  C_11
REMARK    6  A    between atoms: C_32  and  O_33
REMARK                            x       y       z     vdW  Elec       q    Type
REMARK                         _______ _______ _______ _____ _____    ______ ____
ROOT
ATOM      1  C   UNL     1      -8.321  -3.085  23.255  0.00  0.00    +0.000 C 
ATOM      2  C   UNL     1      -8.609  -3.359  21.762  0.00  0.00    +0.000 C 
ATOM      3  C   UNL     1      -9.110  -2.130  21.009  0.00  0.00    +0.000 C 
ATOM      4  O   UNL     1      -8.408  -1.004  21.535  0.00  0.00    +0.000 OA
ATOM      5  C   UNL     1      -8.797  -0.669  22.890  0.00  0.00    +0.000 C 
ATOM      6  C   UNL     1      -9.216  -1.921  23.748  0.00  0.00    +0.000 C 
ATOM      7  N   UNL     1      -9.845   0.325  22.777  0.00  0.00    +0.000 N 
ATOM      8  C   UNL     1     -10.079   1.521  23.462  0.00  0.00    +0.000 A 
ATOM      9  C   UNL     1      -9.688   1.910  24.752  0.00  0.00    +0.000 A 
ATOM     10  C   UNL     1     -10.327   3.005  25.335  0.00  0.00    +0.000 A 
ATOM     11  C   UNL     1     -11.241   3.766  24.616  0.00  0.00    +0.000 A 
ATOM     12  C   UNL     1     -11.453   3.536  23.252  0.00  0.00    +0.000 A 
ATOM     13  C   UNL     1     -10.878   2.403  22.632  0.00  0.00    +0.000 A 
ATOM     14  C   UNL     1     -11.100   1.778  21.368  0.00  0.00    +0.000 A 
ATOM     15  C   UNL     1     -10.783   2.349  20.092  0.00  0.00    +0.000 A 
ATOM     16  C   UNL     1     -10.735   1.406  19.038  0.00  0.00    +0.000 A 
ATOM     17  C   UNL     1     -10.940   0.076  19.450  0.00  0.00    +0.000 A 
ATOM     18  C   UNL     1     -10.785  -1.085  18.676  0.00  0.00    +0.000 A 
ATOM     19  C   UNL     1     -10.391  -1.475  17.397  0.00  0.00    +0.000 A 
ATOM     20  C   UNL     1     -10.819  -2.725  16.955  0.00  0.00    +0.000 A 
ATOM     21  C   UNL     1     -11.692  -3.493  17.733  0.00  0.00    +0.000 A 
ATOM     22  C   UNL     1     -11.863  -3.234  19.098  0.00  0.00    +0.000 A 
ATOM     23  C   UNL     1     -11.156  -2.133  19.581  0.00  0.00    +0.000 A 
ATOM     24  N   UNL     1     -10.549  -1.804  20.841  0.00  0.00    +0.000 N 
ATOM     25  C   UNL     1     -10.847  -0.462  20.727  0.00  0.00    +0.000 A 
ATOM     26  C   UNL     1     -10.652   0.494  21.700  0.00  0.00    +0.000 A 
ATOM     27  C   UNL     1      -9.942   1.856  17.916  0.00  0.00    +0.000 C 
ATOM     28  N   UNL     1      -9.404   3.073  18.457  0.00  0.00    +0.000 N 
ATOM     29  C   UNL     1      -9.928   3.433  19.716  0.00  0.00    +0.000 C 
ATOM     30  O   UNL     1      -9.492   4.400  20.324  0.00  0.00    +0.000 OA
ATOM     31  H   UNL     1      -7.271  -2.773  23.337  0.00  0.00    +0.000 HD
ATOM     32  H   UNL     1      -7.622  -3.588  21.327  0.00  0.00    +0.000 HD
ATOM     33  H   UNL     1      -9.234  -4.233  21.568  0.00  0.00    +0.000 HD
ATOM     34  H   UNL     1      -8.743  -2.245  19.980  0.00  0.00    +0.000 HD
ATOM     35  H   UNL     1      -9.054  -1.709  24.810  0.00  0.00    +0.000 HD
ATOM     36  H   UNL     1      -8.988   1.330  25.341  0.00  0.00    +0.000 HD
ATOM     37  H   UNL     1     -10.134   3.237  26.381  0.00  0.00    +0.000 HD
ATOM     38  H   UNL     1     -11.820   4.531  25.129  0.00  0.00    +0.000 HD
ATOM     39  H   UNL     1     -12.185   4.131  22.712  0.00  0.00    +0.000 HD
ATOM     40  H   UNL     1      -9.782  -0.839  16.770  0.00  0.00    +0.000 HD
ATOM     41  H   UNL     1     -10.523  -3.063  15.967  0.00  0.00    +0.000 HD
ATOM     42  H   UNL     1     -12.194  -4.344  17.277  0.00  0.00    +0.000 HD
ATOM     43  H   UNL     1     -12.482  -3.861  19.731  0.00  0.00    +0.000 HD
ATOM     44  H   UNL     1      -9.133   1.168  17.652  0.00  0.00    +0.000 HD
ATOM     45  H   UNL     1      -8.394   3.159  18.463  0.00  0.00    +0.000 HD
ENDROOT
BRANCH   5  46
ATOM     46  C   UNL     1      -7.465  -0.067  23.393  0.00  0.00    +0.000 C 
ATOM     47  H   UNL     1      -6.841  -0.792  23.914  0.00  0.00    +0.000 HD
ATOM     48  H   UNL     1      -6.879   0.340  22.559  0.00  0.00    +0.000 HD
ATOM     49  H   UNL     1      -7.643   0.791  24.055  0.00  0.00    +0.000 HD
ENDBRANCH   5  46
BRANCH   1  50
ATOM     50  N   UNL     1      -8.408  -4.377  23.962  0.00  0.00    +0.000 NA
ATOM     51  H   UNL     1      -9.389  -4.630  24.057  0.00  0.00    +0.000 HD
BRANCH  50  52
ATOM     52  C   UNL     1      -7.797  -4.353  25.289  0.00  0.00    +0.000 C 
ATOM     53  H   UNL     1      -6.994  -3.610  25.320  0.00  0.00    +0.000 HD
ATOM     54  H   UNL     1      -8.554  -4.076  26.027  0.00  0.00    +0.000 HD
ATOM     55  H   UNL     1      -7.387  -5.324  25.588  0.00  0.00    +0.000 HD
ENDBRANCH  50  52
ENDBRANCH   1  50
BRANCH  27  56
ATOM     56  O   UNL     1     -10.710   2.207  16.802  0.00  0.00    +0.000 OA
ATOM     57  H   UNL     1     -10.181   1.889  16.054  0.00  0.00    +0.000 HD
ENDBRANCH  27  56
BRANCH   6  58
ATOM     58  O   UNL     1     -10.569  -2.414  23.599  0.00  0.00    +0.000 OA
BRANCH  58  59
ATOM     59  C   UNL     1     -11.231  -2.808  24.793  0.00  0.00    +0.000 C 
ATOM     60  H   UNL     1     -12.297  -2.913  24.576  0.00  0.00    +0.000 HD
ATOM     61  H   UNL     1     -10.856  -3.751  25.196  0.00  0.00    +0.000 HD
ATOM     62  H   UNL     1     -11.152  -2.015  25.540  0.00  0.00    +0.000 HD
ENDBRANCH  58  59
ENDBRANCH   6  58
TORSDOF 6
ENDMDL
