REMARK  Name = 
REMARK  7 active torsions:
REMARK  status: ('A' for Active; 'I' for Inactive)
REMARK    1  A    between atoms: C_1  and  C_2
REMARK    2  A    between atoms: N_7  and  C_8
REMARK    3  A    between atoms: N_20  and  C_21
REMARK    4  A    between atoms: C_21  and  C_22
REMARK    5  A    between atoms: C_22  and  C_23
REMARK    6  A    between atoms: C_23  and  C_24
REMARK    7  A    between atoms: C_24  and  O_25
REMARK                            x       y       z     vdW  Elec       q    Type
REMARK                         _______ _______ _______ _____ _____    ______ ____
ROOT
ATOM      1  C   UNL     1       0.031   2.024  -0.538  0.00  0.00    +0.000 A 
ATOM      2  C   UNL     1       0.680   3.145  -1.059  0.00  0.00    +0.000 A 
ATOM      3  C   UNL     1       2.004   3.334  -0.718  0.00  0.00    +0.000 A 
ATOM      4  C   UNL     1       2.743   4.534  -0.710  0.00  0.00    +0.000 A 
ATOM      5  C   UNL     1       3.529   4.349   0.390  0.00  0.00    +0.000 A 
ATOM      6  N   UNL     1       3.883   3.007   0.291  0.00  0.00    +0.000 N 
ATOM      7  C   UNL     1       2.766   2.291  -0.157  0.00  0.00    +0.000 A 
ATOM      8  C   UNL     1       2.218   0.947  -0.179  0.00  0.00    +0.000 A 
ATOM      9  C   UNL     1       2.949  -0.257  -0.070  0.00  0.00    +0.000 A 
ATOM     10  C   UNL     1       2.379  -1.576   0.034  0.00  0.00    +0.000 A 
ATOM     11  C   UNL     1       0.980  -1.679  -0.011  0.00  0.00    +0.000 A 
ATOM     12  C   UNL     1       0.309  -2.916  -0.040  0.00  0.00    +0.000 A 
ATOM     13  C   UNL     1       0.588  -4.309  -0.037  0.00  0.00    +0.000 A 
ATOM     14  C   UNL     1      -0.433  -5.270  -0.101  0.00  0.00    +0.000 A 
ATOM     15  C   UNL     1      -1.750  -4.878  -0.179  0.00  0.00    +0.000 A 
ATOM     16  C   UNL     1      -2.063  -3.524  -0.209  0.00  0.00    +0.000 A 
ATOM     17  C   UNL     1      -1.044  -2.536  -0.134  0.00  0.00    +0.000 A 
ATOM     18  N   UNL     1      -1.101  -1.148  -0.133  0.00  0.00    +0.000 N 
ATOM     19  C   UNL     1       0.193  -0.558  -0.126  0.00  0.00    +0.000 A 
ATOM     20  C   UNL     1       0.757   0.811  -0.274  0.00  0.00    +0.000 A 
ATOM     21  C   UNL     1       3.449  -2.550   0.112  0.00  0.00    +0.000 C 
ATOM     22  O   UNL     1       3.526  -3.772   0.068  0.00  0.00    +0.000 OA
ATOM     23  N   UNL     1       4.562  -1.769   0.161  0.00  0.00    +0.000 N 
ATOM     24  C   UNL     1       4.362  -0.462  -0.191  0.00  0.00    +0.000 C 
ATOM     25  O   UNL     1       5.284   0.205  -0.644  0.00  0.00    +0.000 OA
ATOM     26  H   UNL     1       0.122   4.027  -1.371  0.00  0.00    +0.000 HD
ATOM     27  H   UNL     1       2.482   5.480  -1.159  0.00  0.00    +0.000 HD
ATOM     28  H   UNL     1       4.077   5.048   1.008  0.00  0.00    +0.000 HD
ATOM     29  H   UNL     1       1.596  -4.694  -0.005  0.00  0.00    +0.000 HD
ATOM     30  H   UNL     1      -0.184  -6.329  -0.103  0.00  0.00    +0.000 HD
ATOM     31  H   UNL     1      -2.545  -5.619  -0.233  0.00  0.00    +0.000 HD
ATOM     32  H   UNL     1      -3.108  -3.281  -0.312  0.00  0.00    +0.000 HD
ATOM     33  H   UNL     1       5.454  -2.202   0.014  0.00  0.00    +0.000 HD
ENDROOT
BRANCH   1  34
ATOM     34  C   UNL     1      -1.383   2.388  -0.176  0.00  0.00    +0.000 C 
ATOM     35  H   UNL     1      -1.536   3.476  -0.163  0.00  0.00    +0.000 HD
ATOM     36  H   UNL     1      -1.585   2.123   0.867  0.00  0.00    +0.000 HD
ATOM     37  H   UNL     1      -2.101   2.010  -0.898  0.00  0.00    +0.000 HD
ENDBRANCH   1  34
BRANCH   6  38
ATOM     38  C   UNL     1       5.309   2.783   0.303  0.00  0.00    +0.000 C 
ATOM     39  H   UNL     1       5.590   1.842   0.746  0.00  0.00    +0.000 HD
ATOM     40  H   UNL     1       5.774   3.570   0.916  0.00  0.00    +0.000 HD
ATOM     41  H   UNL     1       5.656   2.935  -0.726  0.00  0.00    +0.000 HD
ENDBRANCH   6  38
BRANCH  18  42
ATOM     42  C   UNL     1      -2.335  -0.393  -0.182  0.00  0.00    +0.000 C 
ATOM     43  H   UNL     1      -2.442  -0.052  -1.216  0.00  0.00    +0.000 HD
ATOM     44  H   UNL     1      -2.122   0.402   0.508  0.00  0.00    +0.000 HD
BRANCH  42  45
ATOM     45  C   UNL     1      -3.682  -0.864   0.368  0.00  0.00    +0.000 C 
ATOM     46  H   UNL     1      -3.566  -1.167   1.415  0.00  0.00    +0.000 HD
ATOM     47  H   UNL     1      -4.085  -1.699  -0.197  0.00  0.00    +0.000 HD
BRANCH  45  48
ATOM     48  C   UNL     1      -4.720   0.260   0.256  0.00  0.00    +0.000 C 
ATOM     49  H   UNL     1      -4.856   0.541  -0.797  0.00  0.00    +0.000 HD
ATOM     50  H   UNL     1      -4.374   1.171   0.762  0.00  0.00    +0.000 HD
BRANCH  48  51
ATOM     51  C   UNL     1      -6.057  -0.178   0.833  0.00  0.00    +0.000 C 
ATOM     52  H   UNL     1      -5.979  -0.373   1.907  0.00  0.00    +0.000 HD
ATOM     53  H   UNL     1      -6.407  -1.092   0.342  0.00  0.00    +0.000 HD
BRANCH  51  54
ATOM     54  O   UNL     1      -7.028   0.832   0.616  0.00  0.00    +0.000 OA
ATOM     55  H   UNL     1      -6.762   1.613   1.131  0.00  0.00    +0.000 HD
ENDBRANCH  51  54
ENDBRANCH  48  51
ENDBRANCH  45  48
ENDBRANCH  42  45
ENDBRANCH  18  42
TORSDOF 7
