MODEL 1
REMARK VINA RESULT:    -6.864      0.000      0.000
REMARK INTER + INTRA:          -8.754
REMARK INTER:                  -8.469
REMARK INTRA:                  -0.284
REMARK UNBOUND:                -0.284
REMARK  Name = 
REMARK  6 active torsions:
REMARK  status: ('A' for Active; 'I' for Inactive)
REMARK    1  A    between atoms: C_1  and  N_2
REMARK    2  A    between atoms: N_2  and  C_3
REMARK    3  A    between atoms: C_7  and  C_8
REMARK    4  A    between atoms: C_9  and  O_10
REMARK    5  A    between atoms: O_10  and  C_11
REMARK    6  A    between atoms: C_32  and  O_33
REMARK                            x       y       z     vdW  Elec       q    Type
REMARK                         _______ _______ _______ _____ _____    ______ ____
ROOT
ATOM      1  C   UNL     1     -12.144   1.266  19.930  0.00  0.00    +0.000 C 
ATOM      2  C   UNL     1     -12.609  -0.002  20.773  0.00  0.00    +0.000 C 
ATOM      3  C   UNL     1     -11.459  -0.537  21.817  0.00  0.00    +0.000 C 
ATOM      4  O   UNL     1     -10.085  -0.299  21.312  0.00  0.00    +0.000 OA
ATOM      5  C   UNL     1     -10.106  -0.245  19.846  0.00  0.00    +0.000 C 
ATOM      6  C   UNL     1     -10.637   1.257  20.022  0.00  0.00    +0.000 C 
ATOM      7  N   UNL     1     -10.806  -1.553  19.484  0.00  0.00    +0.000 N 
ATOM      8  C   UNL     1     -10.949  -2.368  18.318  0.00  0.00    +0.000 A 
ATOM      9  C   UNL     1     -12.142  -2.621  17.605  0.00  0.00    +0.000 A 
ATOM     10  C   UNL     1     -12.240  -3.783  16.825  0.00  0.00    +0.000 A 
ATOM     11  C   UNL     1     -11.141  -4.619  16.615  0.00  0.00    +0.000 A 
ATOM     12  C   UNL     1      -9.933  -4.415  17.289  0.00  0.00    +0.000 A 
ATOM     13  C   UNL     1      -9.926  -3.436  18.302  0.00  0.00    +0.000 A 
ATOM     14  C   UNL     1      -9.381  -3.446  19.593  0.00  0.00    +0.000 A 
ATOM     15  C   UNL     1      -8.180  -3.944  20.145  0.00  0.00    +0.000 A 
ATOM     16  C   UNL     1      -7.962  -3.418  21.437  0.00  0.00    +0.000 A 
ATOM     17  C   UNL     1      -9.118  -2.926  22.061  0.00  0.00    +0.000 A 
ATOM     18  C   UNL     1      -9.176  -2.156  23.221  0.00  0.00    +0.000 A 
ATOM     19  C   UNL     1      -8.315  -1.449  24.045  0.00  0.00    +0.000 A 
ATOM     20  C   UNL     1      -8.699  -1.393  25.367  0.00  0.00    +0.000 A 
ATOM     21  C   UNL     1      -9.884  -2.018  25.783  0.00  0.00    +0.000 A 
ATOM     22  C   UNL     1     -10.903  -2.345  24.869  0.00  0.00    +0.000 A 
ATOM     23  C   UNL     1     -10.582  -2.130  23.534  0.00  0.00    +0.000 A 
ATOM     24  N   UNL     1     -11.311  -1.938  22.290  0.00  0.00    +0.000 N 
ATOM     25  C   UNL     1     -10.408  -2.692  21.561  0.00  0.00    +0.000 A 
ATOM     26  C   UNL     1     -10.335  -2.628  20.194  0.00  0.00    +0.000 A 
ATOM     27  C   UNL     1      -6.602  -3.585  21.904  0.00  0.00    +0.000 C 
ATOM     28  N   UNL     1      -6.126  -4.450  20.855  0.00  0.00    +0.000 N 
ATOM     29  C   UNL     1      -7.005  -4.667  19.790  0.00  0.00    +0.000 C 
ATOM     30  O   UNL     1      -6.719  -5.374  18.819  0.00  0.00    +0.000 OA
ATOM     31  H   UNL     1     -12.504   2.187  20.412  0.00  0.00    +0.000 HD
ATOM     32  H   UNL     1     -13.537   0.235  21.304  0.00  0.00    +0.000 HD
ATOM     33  H   UNL     1     -12.915  -0.784  20.070  0.00  0.00    +0.000 HD
ATOM     34  H   UNL     1     -11.576   0.072  22.723  0.00  0.00    +0.000 HD
ATOM     35  H   UNL     1     -10.506   1.530  21.083  0.00  0.00    +0.000 HD
ATOM     36  H   UNL     1     -13.043  -2.051  17.824  0.00  0.00    +0.000 HD
ATOM     37  H   UNL     1     -13.210  -4.078  16.425  0.00  0.00    +0.000 HD
ATOM     38  H   UNL     1     -11.263  -5.520  16.015  0.00  0.00    +0.000 HD
ATOM     39  H   UNL     1      -9.168  -5.190  17.259  0.00  0.00    +0.000 HD
ATOM     40  H   UNL     1      -7.384  -1.048  23.669  0.00  0.00    +0.000 HD
ATOM     41  H   UNL     1      -8.025  -0.938  26.083  0.00  0.00    +0.000 HD
ATOM     42  H   UNL     1     -10.020  -2.212  26.845  0.00  0.00    +0.000 HD
ATOM     43  H   UNL     1     -11.846  -2.768  25.185  0.00  0.00    +0.000 HD
ATOM     44  H   UNL     1      -6.501  -4.027  22.896  0.00  0.00    +0.000 HD
ATOM     45  H   UNL     1      -5.287  -5.003  20.926  0.00  0.00    +0.000 HD
ENDROOT
BRANCH   5  46
ATOM     46  C   UNL     1      -8.684  -0.200  19.267  0.00  0.00    +0.000 C 
ATOM     47  H   UNL     1      -8.674  -0.429  18.199  0.00  0.00    +0.000 HD
ATOM     48  H   UNL     1      -8.181   0.760  19.386  0.00  0.00    +0.000 HD
ATOM     49  H   UNL     1      -8.048  -0.913  19.803  0.00  0.00    +0.000 HD
ENDBRANCH   5  46
BRANCH   1  50
ATOM     50  N   UNL     1     -12.477   1.232  18.492  0.00  0.00    +0.000 NA
ATOM     51  H   UNL     1     -11.648   1.469  17.933  0.00  0.00    +0.000 HD
BRANCH  50  52
ATOM     52  C   UNL     1     -13.552   2.126  18.078  0.00  0.00    +0.000 C 
ATOM     53  H   UNL     1     -13.345   3.107  18.508  0.00  0.00    +0.000 HD
ATOM     54  H   UNL     1     -14.508   1.786  18.498  0.00  0.00    +0.000 HD
ATOM     55  H   UNL     1     -13.705   2.229  16.997  0.00  0.00    +0.000 HD
ENDBRANCH  50  52
ENDBRANCH   1  50
BRANCH  27  56
ATOM     56  O   UNL     1      -5.859  -2.395  21.793  0.00  0.00    +0.000 OA
ATOM     57  H   UNL     1      -4.942  -2.664  21.962  0.00  0.00    +0.000 HD
ENDBRANCH  27  56
BRANCH   6  58
ATOM     58  O   UNL     1      -9.886   2.337  19.441  0.00  0.00    +0.000 OA
BRANCH  58  59
ATOM     59  C   UNL     1     -10.138   3.602  20.100  0.00  0.00    +0.000 C 
ATOM     60  H   UNL     1     -10.803   3.418  20.945  0.00  0.00    +0.000 HD
ATOM     61  H   UNL     1      -9.241   4.120  20.475  0.00  0.00    +0.000 HD
ATOM     62  H   UNL     1     -10.617   4.299  19.404  0.00  0.00    +0.000 HD
ENDBRANCH  58  59
ENDBRANCH   6  58
TORSDOF 6
ENDMDL
MODEL 2
REMARK VINA RESULT:    -6.761      2.552      5.735
REMARK INTER + INTRA:          -8.627
REMARK INTER:                  -8.408
REMARK INTRA:                  -0.219
REMARK UNBOUND:                -0.284
REMARK  Name = 
REMARK  6 active torsions:
REMARK  status: ('A' for Active; 'I' for Inactive)
REMARK    1  A    between atoms: C_1  and  N_2
REMARK    2  A    between atoms: N_2  and  C_3
REMARK    3  A    between atoms: C_7  and  C_8
REMARK    4  A    between atoms: C_9  and  O_10
REMARK    5  A    between atoms: O_10  and  C_11
REMARK    6  A    between atoms: C_32  and  O_33
REMARK                            x       y       z     vdW  Elec       q    Type
REMARK                         _______ _______ _______ _____ _____    ______ ____
ROOT
ATOM      1  C   UNL     1     -10.915   1.155  21.233  0.00  0.00    +0.000 C 
ATOM      2  C   UNL     1      -9.869   1.117  20.034  0.00  0.00    +0.000 C 
ATOM      3  C   UNL     1     -10.440   0.338  18.705  0.00  0.00    +0.000 C 
ATOM      4  O   UNL     1     -11.387  -0.749  19.053  0.00  0.00    +0.000 OA
ATOM      5  C   UNL     1     -11.093  -1.238  20.404  0.00  0.00    +0.000 C 
ATOM      6  C   UNL     1     -11.895   0.049  20.922  0.00  0.00    +0.000 C 
ATOM      7  N   UNL     1      -9.603  -1.560  20.316  0.00  0.00    +0.000 N 
ATOM      8  C   UNL     1      -8.658  -2.325  21.068  0.00  0.00    +0.000 A 
ATOM      9  C   UNL     1      -7.552  -1.826  21.791  0.00  0.00    +0.000 A 
ATOM     10  C   UNL     1      -6.464  -2.675  22.048  0.00  0.00    +0.000 A 
ATOM     11  C   UNL     1      -6.508  -4.036  21.743  0.00  0.00    +0.000 A 
ATOM     12  C   UNL     1      -7.580  -4.588  21.034  0.00  0.00    +0.000 A 
ATOM     13  C   UNL     1      -8.526  -3.686  20.506  0.00  0.00    +0.000 A 
ATOM     14  C   UNL     1      -9.150  -3.632  19.252  0.00  0.00    +0.000 A 
ATOM     15  C   UNL     1      -9.674  -4.607  18.375  0.00  0.00    +0.000 A 
ATOM     16  C   UNL     1     -10.484  -4.011  17.383  0.00  0.00    +0.000 A 
ATOM     17  C   UNL     1     -10.239  -2.644  17.186  0.00  0.00    +0.000 A 
ATOM     18  C   UNL     1     -11.021  -1.755  16.451  0.00  0.00    +0.000 A 
ATOM     19  C   UNL     1     -12.273  -1.714  15.858  0.00  0.00    +0.000 A 
ATOM     20  C   UNL     1     -12.356  -0.913  14.741  0.00  0.00    +0.000 A 
ATOM     21  C   UNL     1     -11.226  -0.213  14.291  0.00  0.00    +0.000 A 
ATOM     22  C   UNL     1     -10.133   0.041  15.140  0.00  0.00    +0.000 A 
ATOM     23  C   UNL     1     -10.206  -0.569  16.387  0.00  0.00    +0.000 A 
ATOM     24  N   UNL     1      -9.608  -0.369  17.698  0.00  0.00    +0.000 N 
ATOM     25  C   UNL     1      -9.474  -1.728  17.924  0.00  0.00    +0.000 A 
ATOM     26  C   UNL     1      -9.270  -2.245  19.176  0.00  0.00    +0.000 A 
ATOM     27  C   UNL     1     -11.335  -4.956  16.692  0.00  0.00    +0.000 C 
ATOM     28  N   UNL     1     -10.776  -6.172  17.226  0.00  0.00    +0.000 N 
ATOM     29  C   UNL     1      -9.820  -6.017  18.235  0.00  0.00    +0.000 C 
ATOM     30  O   UNL     1      -9.272  -6.975  18.790  0.00  0.00    +0.000 OA
ATOM     31  H   UNL     1     -11.466   2.107  21.216  0.00  0.00    +0.000 HD
ATOM     32  H   UNL     1      -9.563   2.138  19.786  0.00  0.00    +0.000 HD
ATOM     33  H   UNL     1      -8.944   0.662  20.405  0.00  0.00    +0.000 HD
ATOM     34  H   UNL     1     -11.010   1.091  18.145  0.00  0.00    +0.000 HD
ATOM     35  H   UNL     1     -12.412   0.487  20.051  0.00  0.00    +0.000 HD
ATOM     36  H   UNL     1      -7.440  -0.756  21.953  0.00  0.00    +0.000 HD
ATOM     37  H   UNL     1      -5.538  -2.253  22.437  0.00  0.00    +0.000 HD
ATOM     38  H   UNL     1      -5.637  -4.658  21.946  0.00  0.00    +0.000 HD
ATOM     39  H   UNL     1      -7.495  -5.599  20.640  0.00  0.00    +0.000 HD
ATOM     40  H   UNL     1     -13.083  -2.332  16.220  0.00  0.00    +0.000 HD
ATOM     41  H   UNL     1     -13.279  -0.909  14.174  0.00  0.00    +0.000 HD
ATOM     42  H   UNL     1     -11.228   0.170  13.273  0.00  0.00    +0.000 HD
ATOM     43  H   UNL     1      -9.285   0.634  14.826  0.00  0.00    +0.000 HD
ATOM     44  H   UNL     1     -11.291  -4.913  15.603  0.00  0.00    +0.000 HD
ATOM     45  H   UNL     1     -10.922  -7.080  16.817  0.00  0.00    +0.000 HD
ENDROOT
BRANCH   5  46
ATOM     46  C   UNL     1     -11.913  -2.494  20.735  0.00  0.00    +0.000 C 
ATOM     47  H   UNL     1     -11.529  -3.007  21.621  0.00  0.00    +0.000 HD
ATOM     48  H   UNL     1     -12.971  -2.305  20.918  0.00  0.00    +0.000 HD
ATOM     49  H   UNL     1     -11.899  -3.177  19.879  0.00  0.00    +0.000 HD
ENDBRANCH   5  46
BRANCH   1  50
ATOM     50  N   UNL     1     -10.363   0.863  22.571  0.00  0.00    +0.000 NA
ATOM     51  H   UNL     1     -10.948   0.165  23.048  0.00  0.00    +0.000 HD
BRANCH  50  52
ATOM     52  C   UNL     1     -10.241   2.011  23.461  0.00  0.00    +0.000 C 
ATOM     53  H   UNL     1      -9.553   1.733  24.261  0.00  0.00    +0.000 HD
ATOM     54  H   UNL     1     -11.210   2.228  23.931  0.00  0.00    +0.000 HD
ATOM     55  H   UNL     1      -9.902   2.946  23.000  0.00  0.00    +0.000 HD
ENDBRANCH  50  52
ENDBRANCH   1  50
BRANCH  27  56
ATOM     56  O   UNL     1     -12.662  -4.903  17.156  0.00  0.00    +0.000 OA
ATOM     57  H   UNL     1     -13.080  -5.700  16.792  0.00  0.00    +0.000 HD
ENDBRANCH  27  56
BRANCH   6  58
ATOM     58  O   UNL     1     -13.045  -0.135  21.767  0.00  0.00    +0.000 OA
BRANCH  58  59
ATOM     59  C   UNL     1     -13.743   1.108  22.028  0.00  0.00    +0.000 C 
ATOM     60  H   UNL     1     -13.681   1.314  23.097  0.00  0.00    +0.000 HD
ATOM     61  H   UNL     1     -13.356   1.984  21.484  0.00  0.00    +0.000 HD
ATOM     62  H   UNL     1     -14.795   1.014  21.736  0.00  0.00    +0.000 HD
ENDBRANCH  58  59
ENDBRANCH   6  58
TORSDOF 6
ENDMDL
MODEL 3
REMARK VINA RESULT:    -6.542      2.791      6.096
REMARK INTER + INTRA:          -8.356
REMARK INTER:                  -8.063
REMARK INTRA:                  -0.293
REMARK UNBOUND:                -0.284
REMARK  Name = 
REMARK  6 active torsions:
REMARK  status: ('A' for Active; 'I' for Inactive)
REMARK    1  A    between atoms: C_1  and  N_2
REMARK    2  A    between atoms: N_2  and  C_3
REMARK    3  A    between atoms: C_7  and  C_8
REMARK    4  A    between atoms: C_9  and  O_10
REMARK    5  A    between atoms: O_10  and  C_11
REMARK    6  A    between atoms: C_32  and  O_33
REMARK                            x       y       z     vdW  Elec       q    Type
REMARK                         _______ _______ _______ _____ _____    ______ ____
ROOT
ATOM      1  C   UNL     1     -11.780   3.807  19.995  0.00  0.00    +0.000 C 
ATOM      2  C   UNL     1     -10.479   2.979  19.599  0.00  0.00    +0.000 C 
ATOM      3  C   UNL     1     -10.692   1.354  19.710  0.00  0.00    +0.000 C 
ATOM      4  O   UNL     1     -11.652   0.983  20.777  0.00  0.00    +0.000 OA
ATOM      5  C   UNL     1     -11.668   2.030  21.805  0.00  0.00    +0.000 C 
ATOM      6  C   UNL     1     -12.617   2.843  20.802  0.00  0.00    +0.000 C 
ATOM      7  N   UNL     1     -10.188   2.158  22.159  0.00  0.00    +0.000 N 
ATOM      8  C   UNL     1      -9.419   2.713  23.230  0.00  0.00    +0.000 A 
ATOM      9  C   UNL     1      -8.534   3.811  23.154  0.00  0.00    +0.000 A 
ATOM     10  C   UNL     1      -7.507   3.929  24.103  0.00  0.00    +0.000 A 
ATOM     11  C   UNL     1      -7.427   3.076  25.206  0.00  0.00    +0.000 A 
ATOM     12  C   UNL     1      -8.280   1.976  25.338  0.00  0.00    +0.000 A 
ATOM     13  C   UNL     1      -9.107   1.676  24.237  0.00  0.00    +0.000 A 
ATOM     14  C   UNL     1      -9.420   0.456  23.622  0.00  0.00    +0.000 A 
ATOM     15  C   UNL     1      -9.685  -0.845  24.104  0.00  0.00    +0.000 A 
ATOM     16  C   UNL     1     -10.259  -1.650  23.095  0.00  0.00    +0.000 A 
ATOM     17  C   UNL     1     -10.026  -1.190  21.790  0.00  0.00    +0.000 A 
ATOM     18  C   UNL     1     -10.644  -1.640  20.626  0.00  0.00    +0.000 A 
ATOM     19  C   UNL     1     -11.722  -2.430  20.257  0.00  0.00    +0.000 A 
ATOM     20  C   UNL     1     -11.569  -3.091  19.059  0.00  0.00    +0.000 A 
ATOM     21  C   UNL     1     -10.392  -2.931  18.312  0.00  0.00    +0.000 A 
ATOM     22  C   UNL     1      -9.540  -1.828  18.510  0.00  0.00    +0.000 A 
ATOM     23  C   UNL     1      -9.883  -1.008  19.579  0.00  0.00    +0.000 A 
ATOM     24  N   UNL     1      -9.619   0.362  19.986  0.00  0.00    +0.000 N 
ATOM     25  C   UNL     1      -9.491   0.019  21.320  0.00  0.00    +0.000 A 
ATOM     26  C   UNL     1      -9.570   0.946  22.326  0.00  0.00    +0.000 A 
ATOM     27  C   UNL     1     -10.887  -2.850  23.606  0.00  0.00    +0.000 C 
ATOM     28  N   UNL     1     -10.425  -2.765  24.968  0.00  0.00    +0.000 N 
ATOM     29  C   UNL     1      -9.740  -1.596  25.313  0.00  0.00    +0.000 C 
ATOM     30  O   UNL     1      -9.304  -1.387  26.449  0.00  0.00    +0.000 OA
ATOM     31  H   UNL     1     -12.347   4.067  19.089  0.00  0.00    +0.000 HD
ATOM     32  H   UNL     1     -10.162   3.262  18.590  0.00  0.00    +0.000 HD
ATOM     33  H   UNL     1      -9.652   3.325  20.228  0.00  0.00    +0.000 HD
ATOM     34  H   UNL     1     -11.141   1.049  18.756  0.00  0.00    +0.000 HD
ATOM     35  H   UNL     1     -12.929   2.144  20.006  0.00  0.00    +0.000 HD
ATOM     36  H   UNL     1      -8.504   4.430  22.259  0.00  0.00    +0.000 HD
ATOM     37  H   UNL     1      -6.715   4.661  23.945  0.00  0.00    +0.000 HD
ATOM     38  H   UNL     1      -6.606   3.193  25.912  0.00  0.00    +0.000 HD
ATOM     39  H   UNL     1      -8.067   1.223  26.095  0.00  0.00    +0.000 HD
ATOM     40  H   UNL     1     -12.571  -2.559  20.914  0.00  0.00    +0.000 HD
ATOM     41  H   UNL     1     -12.332  -3.799  18.757  0.00  0.00    +0.000 HD
ATOM     42  H   UNL     1     -10.167  -3.663  17.539  0.00  0.00    +0.000 HD
ATOM     43  H   UNL     1      -8.665  -1.659  17.898  0.00  0.00    +0.000 HD
ATOM     44  H   UNL     1     -10.589  -3.777  23.114  0.00  0.00    +0.000 HD
ATOM     45  H   UNL     1     -10.437  -3.541  25.610  0.00  0.00    +0.000 HD
ENDROOT
BRANCH   5  46
ATOM     46  C   UNL     1     -12.495   1.603  23.026  0.00  0.00    +0.000 C 
ATOM     47  H   UNL     1     -12.251   2.198  23.910  0.00  0.00    +0.000 HD
ATOM     48  H   UNL     1     -13.574   1.677  22.888  0.00  0.00    +0.000 HD
ATOM     49  H   UNL     1     -12.317   0.542  23.237  0.00  0.00    +0.000 HD
ENDBRANCH   5  46
BRANCH   1  50
ATOM     50  N   UNL     1     -11.548   4.984  20.856  0.00  0.00    +0.000 NA
ATOM     51  H   UNL     1     -12.352   5.623  20.801  0.00  0.00    +0.000 HD
BRANCH  50  52
ATOM     52  C   UNL     1     -10.353   5.759  20.546  0.00  0.00    +0.000 C 
ATOM     53  H   UNL     1      -9.917   6.079  21.493  0.00  0.00    +0.000 HD
ATOM     54  H   UNL     1     -10.628   6.669  19.995  0.00  0.00    +0.000 HD
ATOM     55  H   UNL     1      -9.589   5.251  19.947  0.00  0.00    +0.000 HD
ENDBRANCH  50  52
ENDBRANCH   1  50
BRANCH  27  56
ATOM     56  O   UNL     1     -12.287  -2.725  23.663  0.00  0.00    +0.000 OA
ATOM     57  H   UNL     1     -12.521  -3.015  24.560  0.00  0.00    +0.000 HD
ENDBRANCH  27  56
BRANCH   6  58
ATOM     58  O   UNL     1     -13.926   3.242  21.245  0.00  0.00    +0.000 OA
BRANCH  58  59
ATOM     59  C   UNL     1     -14.741   3.760  20.164  0.00  0.00    +0.000 C 
ATOM     60  H   UNL     1     -14.749   3.023  19.361  0.00  0.00    +0.000 HD
ATOM     61  H   UNL     1     -15.784   3.988  20.434  0.00  0.00    +0.000 HD
ATOM     62  H   UNL     1     -14.316   4.699  19.793  0.00  0.00    +0.000 HD
ENDBRANCH  58  59
ENDBRANCH   6  58
TORSDOF 6
ENDMDL
MODEL 4
REMARK VINA RESULT:    -6.496      3.307      6.822
REMARK INTER + INTRA:          -8.300
REMARK INTER:                  -7.961
REMARK INTRA:                  -0.339
REMARK UNBOUND:                -0.284
REMARK  Name = 
REMARK  6 active torsions:
REMARK  status: ('A' for Active; 'I' for Inactive)
REMARK    1  A    between atoms: C_1  and  N_2
REMARK    2  A    between atoms: N_2  and  C_3
REMARK    3  A    between atoms: C_7  and  C_8
REMARK    4  A    between atoms: C_9  and  O_10
REMARK    5  A    between atoms: O_10  and  C_11
REMARK    6  A    between atoms: C_32  and  O_33
REMARK                            x       y       z     vdW  Elec       q    Type
REMARK                         _______ _______ _______ _____ _____    ______ ____
ROOT
ATOM      1  C   UNL     1      -9.423  -1.931  23.006  0.00  0.00    +0.000 C 
ATOM      2  C   UNL     1      -8.495  -0.642  22.899  0.00  0.00    +0.000 C 
ATOM      3  C   UNL     1      -9.124   0.670  23.663  0.00  0.00    +0.000 C 
ATOM      4  O   UNL     1     -10.607   0.675  23.643  0.00  0.00    +0.000 OA
ATOM      5  C   UNL     1     -11.083  -0.083  22.481  0.00  0.00    +0.000 C 
ATOM      6  C   UNL     1     -10.789  -1.392  23.357  0.00  0.00    +0.000 C 
ATOM      7  N   UNL     1     -10.329   0.580  21.330  0.00  0.00    +0.000 N 
ATOM      8  C   UNL     1     -10.443   0.634  19.906  0.00  0.00    +0.000 A 
ATOM      9  C   UNL     1      -9.530   0.110  18.965  0.00  0.00    +0.000 A 
ATOM     10  C   UNL     1      -9.498   0.648  17.669  0.00  0.00    +0.000 A 
ATOM     11  C   UNL     1     -10.444   1.582  17.240  0.00  0.00    +0.000 A 
ATOM     12  C   UNL     1     -11.376   2.131  18.126  0.00  0.00    +0.000 A 
ATOM     13  C   UNL     1     -11.214   1.826  19.492  0.00  0.00    +0.000 A 
ATOM     14  C   UNL     1     -11.291   2.634  20.635  0.00  0.00    +0.000 A 
ATOM     15  C   UNL     1     -12.137   3.693  21.030  0.00  0.00    +0.000 A 
ATOM     16  C   UNL     1     -12.001   3.959  22.410  0.00  0.00    +0.000 A 
ATOM     17  C   UNL     1     -10.806   3.487  22.973  0.00  0.00    +0.000 A 
ATOM     18  C   UNL     1     -10.500   3.402  24.329  0.00  0.00    +0.000 A 
ATOM     19  C   UNL     1     -11.146   3.503  25.551  0.00  0.00    +0.000 A 
ATOM     20  C   UNL     1     -10.362   3.972  26.581  0.00  0.00    +0.000 A 
ATOM     21  C   UNL     1      -9.017   4.299  26.350  0.00  0.00    +0.000 A 
ATOM     22  C   UNL     1      -8.319   3.795  25.236  0.00  0.00    +0.000 A 
ATOM     23  C   UNL     1      -9.096   3.078  24.334  0.00  0.00    +0.000 A 
ATOM     24  N   UNL     1      -8.865   2.086  23.296  0.00  0.00    +0.000 N 
ATOM     25  C   UNL     1      -9.815   2.639  22.455  0.00  0.00    +0.000 A 
ATOM     26  C   UNL     1     -10.347   1.949  21.397  0.00  0.00    +0.000 A 
ATOM     27  C   UNL     1     -13.080   4.760  22.950  0.00  0.00    +0.000 C 
ATOM     28  N   UNL     1     -13.721   5.111  21.708  0.00  0.00    +0.000 N 
ATOM     29  C   UNL     1     -13.221   4.489  20.561  0.00  0.00    +0.000 C 
ATOM     30  O   UNL     1     -13.688   4.688  19.435  0.00  0.00    +0.000 OA
ATOM     31  H   UNL     1      -9.086  -2.563  23.841  0.00  0.00    +0.000 HD
ATOM     32  H   UNL     1      -7.499  -0.878  23.287  0.00  0.00    +0.000 HD
ATOM     33  H   UNL     1      -8.310  -0.444  21.838  0.00  0.00    +0.000 HD
ATOM     34  H   UNL     1      -8.819   0.574  24.713  0.00  0.00    +0.000 HD
ATOM     35  H   UNL     1     -10.606  -1.059  24.394  0.00  0.00    +0.000 HD
ATOM     36  H   UNL     1      -8.718  -0.539  19.290  0.00  0.00    +0.000 HD
ATOM     37  H   UNL     1      -8.681   0.381  17.000  0.00  0.00    +0.000 HD
ATOM     38  H   UNL     1     -10.376   1.985  16.231  0.00  0.00    +0.000 HD
ATOM     39  H   UNL     1     -11.963   2.994  17.814  0.00  0.00    +0.000 HD
ATOM     40  H   UNL     1     -12.203   3.295  25.642  0.00  0.00    +0.000 HD
ATOM     41  H   UNL     1     -10.828   4.164  27.540  0.00  0.00    +0.000 HD
ATOM     42  H   UNL     1      -8.506   4.926  27.076  0.00  0.00    +0.000 HD
ATOM     43  H   UNL     1      -7.266   3.987  25.081  0.00  0.00    +0.000 HD
ATOM     44  H   UNL     1     -12.769   5.631  23.527  0.00  0.00    +0.000 HD
ATOM     45  H   UNL     1     -14.381   5.866  21.616  0.00  0.00    +0.000 HD
ENDROOT
BRANCH   5  46
ATOM     46  C   UNL     1     -12.601   0.059  22.303  0.00  0.00    +0.000 C 
ATOM     47  H   UNL     1     -13.147  -0.283  23.186  0.00  0.00    +0.000 HD
ATOM     48  H   UNL     1     -12.937   1.077  22.103  0.00  0.00    +0.000 HD
ATOM     49  H   UNL     1     -12.923  -0.515  21.426  0.00  0.00    +0.000 HD
ENDBRANCH   5  46
BRANCH   1  50
ATOM     50  N   UNL     1      -9.584  -2.705  21.760  0.00  0.00    +0.000 NA
ATOM     51  H   UNL     1      -9.958  -3.639  21.972  0.00  0.00    +0.000 HD
BRANCH  50  52
ATOM     52  C   UNL     1      -8.368  -2.891  20.977  0.00  0.00    +0.000 C 
ATOM     53  H   UNL     1      -8.521  -2.403  20.014  0.00  0.00    +0.000 HD
ATOM     54  H   UNL     1      -8.211  -3.960  20.774  0.00  0.00    +0.000 HD
ATOM     55  H   UNL     1      -7.441  -2.521  21.430  0.00  0.00    +0.000 HD
ENDBRANCH  50  52
ENDBRANCH   1  50
BRANCH  27  56
ATOM     56  O   UNL     1     -14.010   3.977  23.659  0.00  0.00    +0.000 OA
ATOM     57  H   UNL     1     -13.575   3.115  23.759  0.00  0.00    +0.000 HD
ENDBRANCH  27  56
BRANCH   6  58
ATOM     58  O   UNL     1     -11.863  -2.310  23.627  0.00  0.00    +0.000 OA
BRANCH  58  59
ATOM     59  C   UNL     1     -11.606  -3.135  24.790  0.00  0.00    +0.000 C 
ATOM     60  H   UNL     1     -12.255  -2.794  25.598  0.00  0.00    +0.000 HD
ATOM     61  H   UNL     1     -11.775  -4.214  24.644  0.00  0.00    +0.000 HD
ATOM     62  H   UNL     1     -10.560  -3.035  25.096  0.00  0.00    +0.000 HD
ENDBRANCH  58  59
ENDBRANCH   6  58
TORSDOF 6
ENDMDL
MODEL 5
REMARK VINA RESULT:    -6.396      3.462      6.319
REMARK INTER + INTRA:          -8.176
REMARK INTER:                  -7.814
REMARK INTRA:                  -0.363
REMARK UNBOUND:                -0.284
REMARK  Name = 
REMARK  6 active torsions:
REMARK  status: ('A' for Active; 'I' for Inactive)
REMARK    1  A    between atoms: C_1  and  N_2
REMARK    2  A    between atoms: N_2  and  C_3
REMARK    3  A    between atoms: C_7  and  C_8
REMARK    4  A    between atoms: C_9  and  O_10
REMARK    5  A    between atoms: O_10  and  C_11
REMARK    6  A    between atoms: C_32  and  O_33
REMARK                            x       y       z     vdW  Elec       q    Type
REMARK                         _______ _______ _______ _____ _____    ______ ____
ROOT
ATOM      1  C   UNL     1     -11.416  -1.286  12.373  0.00  0.00    +0.000 C 
ATOM      2  C   UNL     1     -12.643  -1.290  13.386  0.00  0.00    +0.000 C 
ATOM      3  C   UNL     1     -12.512  -0.150  14.562  0.00  0.00    +0.000 C 
ATOM      4  O   UNL     1     -11.101   0.125  14.925  0.00  0.00    +0.000 OA
ATOM      5  C   UNL     1     -10.283  -1.057  14.634  0.00  0.00    +0.000 C 
ATOM      6  C   UNL     1     -10.313  -0.563  13.109  0.00  0.00    +0.000 C 
ATOM      7  N   UNL     1     -11.032  -2.161  15.377  0.00  0.00    +0.000 N 
ATOM      8  C   UNL     1     -10.749  -3.488  15.828  0.00  0.00    +0.000 A 
ATOM      9  C   UNL     1     -11.346  -4.682  15.368  0.00  0.00    +0.000 A 
ATOM     10  C   UNL     1     -11.354  -5.809  16.204  0.00  0.00    +0.000 A 
ATOM     11  C   UNL     1     -10.658  -5.829  17.414  0.00  0.00    +0.000 A 
ATOM     12  C   UNL     1     -10.042  -4.679  17.918  0.00  0.00    +0.000 A 
ATOM     13  C   UNL     1     -10.293  -3.472  17.235  0.00  0.00    +0.000 A 
ATOM     14  C   UNL     1     -10.597  -2.188  17.709  0.00  0.00    +0.000 A 
ATOM     15  C   UNL     1     -10.141  -1.413  18.797  0.00  0.00    +0.000 A 
ATOM     16  C   UNL     1     -10.528  -0.062  18.651  0.00  0.00    +0.000 A 
ATOM     17  C   UNL     1     -11.608   0.137  17.778  0.00  0.00    +0.000 A 
ATOM     18  C   UNL     1     -12.056   1.354  17.270  0.00  0.00    +0.000 A 
ATOM     19  C   UNL     1     -11.631   2.671  17.196  0.00  0.00    +0.000 A 
ATOM     20  C   UNL     1     -12.645   3.603  17.178  0.00  0.00    +0.000 A 
ATOM     21  C   UNL     1     -13.984   3.188  17.226  0.00  0.00    +0.000 A 
ATOM     22  C   UNL     1     -14.360   1.876  16.880  0.00  0.00    +0.000 A 
ATOM     23  C   UNL     1     -13.301   1.010  16.631  0.00  0.00    +0.000 A 
ATOM     24  N   UNL     1     -13.105  -0.243  15.921  0.00  0.00    +0.000 N 
ATOM     25  C   UNL     1     -12.244  -0.739  16.885  0.00  0.00    +0.000 A 
ATOM     26  C   UNL     1     -11.406  -1.795  16.644  0.00  0.00    +0.000 A 
ATOM     27  C   UNL     1      -9.797   0.842  19.514  0.00  0.00    +0.000 C 
ATOM     28  N   UNL     1      -9.120  -0.142  20.321  0.00  0.00    +0.000 N 
ATOM     29  C   UNL     1      -9.270  -1.473  19.922  0.00  0.00    +0.000 C 
ATOM     30  O   UNL     1      -8.732  -2.414  20.515  0.00  0.00    +0.000 OA
ATOM     31  H   UNL     1     -11.670  -0.692  11.482  0.00  0.00    +0.000 HD
ATOM     32  H   UNL     1     -13.577  -1.168  12.827  0.00  0.00    +0.000 HD
ATOM     33  H   UNL     1     -12.733  -2.298  13.806  0.00  0.00    +0.000 HD
ATOM     34  H   UNL     1     -12.915   0.773  14.124  0.00  0.00    +0.000 HD
ATOM     35  H   UNL     1     -10.718   0.464  13.105  0.00  0.00    +0.000 HD
ATOM     36  H   UNL     1     -11.980  -4.673  14.483  0.00  0.00    +0.000 HD
ATOM     37  H   UNL     1     -11.968  -6.669  15.936  0.00  0.00    +0.000 HD
ATOM     38  H   UNL     1     -10.701  -6.719  18.040  0.00  0.00    +0.000 HD
ATOM     39  H   UNL     1      -9.683  -4.673  18.946  0.00  0.00    +0.000 HD
ATOM     40  H   UNL     1     -10.580   2.922  17.230  0.00  0.00    +0.000 HD
ATOM     41  H   UNL     1     -12.383   4.654  17.218  0.00  0.00    +0.000 HD
ATOM     42  H   UNL     1     -14.742   3.918  17.500  0.00  0.00    +0.000 HD
ATOM     43  H   UNL     1     -15.394   1.562  16.850  0.00  0.00    +0.000 HD
ATOM     44  H   UNL     1     -10.413   1.522  20.104  0.00  0.00    +0.000 HD
ATOM     45  H   UNL     1      -8.692   0.065  21.209  0.00  0.00    +0.000 HD
ENDROOT
BRANCH   5  46
ATOM     46  C   UNL     1      -8.855  -0.896  15.174  0.00  0.00    +0.000 C 
ATOM     47  H   UNL     1      -8.756  -0.007  15.802  0.00  0.00    +0.000 HD
ATOM     48  H   UNL     1      -8.501  -1.739  15.770  0.00  0.00    +0.000 HD
ATOM     49  H   UNL     1      -8.150  -0.837  14.337  0.00  0.00    +0.000 HD
ENDBRANCH   5  46
BRANCH   1  50
ATOM     50  N   UNL     1     -10.880  -2.614  12.014  0.00  0.00    +0.000 NA
ATOM     51  H   UNL     1     -10.299  -2.542  11.169  0.00  0.00    +0.000 HD
BRANCH  50  52
ATOM     52  C   UNL     1     -11.881  -3.646  11.768  0.00  0.00    +0.000 C 
ATOM     53  H   UNL     1     -12.323  -3.446  10.791  0.00  0.00    +0.000 HD
ATOM     54  H   UNL     1     -12.689  -3.570  12.509  0.00  0.00    +0.000 HD
ATOM     55  H   UNL     1     -11.524  -4.682  11.801  0.00  0.00    +0.000 HD
ENDBRANCH  50  52
ENDBRANCH   1  50
BRANCH  27  56
ATOM     56  O   UNL     1      -8.789   1.533  18.817  0.00  0.00    +0.000 OA
ATOM     57  H   UNL     1      -8.726   2.391  19.268  0.00  0.00    +0.000 HD
ENDBRANCH  27  56
BRANCH   6  58
ATOM     58  O   UNL     1      -9.071  -0.293  12.436  0.00  0.00    +0.000 OA
BRANCH  58  59
ATOM     59  C   UNL     1      -9.113   0.938  11.672  0.00  0.00    +0.000 C 
ATOM     60  H   UNL     1      -8.373   0.867  10.874  0.00  0.00    +0.000 HD
ATOM     61  H   UNL     1     -10.089   1.173  11.218  0.00  0.00    +0.000 HD
ATOM     62  H   UNL     1      -8.871   1.788  12.319  0.00  0.00    +0.000 HD
ENDBRANCH  58  59
ENDBRANCH   6  58
TORSDOF 6
ENDMDL
MODEL 6
REMARK VINA RESULT:    -6.267      4.039      7.362
REMARK INTER + INTRA:          -8.016
REMARK INTER:                  -7.650
REMARK INTRA:                  -0.367
REMARK UNBOUND:                -0.284
REMARK  Name = 
REMARK  6 active torsions:
REMARK  status: ('A' for Active; 'I' for Inactive)
REMARK    1  A    between atoms: C_1  and  N_2
REMARK    2  A    between atoms: N_2  and  C_3
REMARK    3  A    between atoms: C_7  and  C_8
REMARK    4  A    between atoms: C_9  and  O_10
REMARK    5  A    between atoms: O_10  and  C_11
REMARK    6  A    between atoms: C_32  and  O_33
REMARK                            x       y       z     vdW  Elec       q    Type
REMARK                         _______ _______ _______ _____ _____    ______ ____
ROOT
ATOM      1  C   UNL     1     -12.434   2.757  15.822  0.00  0.00    +0.000 C 
ATOM      2  C   UNL     1     -10.887   2.389  15.740  0.00  0.00    +0.000 C 
ATOM      3  C   UNL     1     -10.566   1.193  14.661  0.00  0.00    +0.000 C 
ATOM      4  O   UNL     1     -11.685   0.227  14.541  0.00  0.00    +0.000 OA
ATOM      5  C   UNL     1     -12.458   0.219  15.788  0.00  0.00    +0.000 C 
ATOM      6  C   UNL     1     -13.144   1.559  15.239  0.00  0.00    +0.000 C 
ATOM      7  N   UNL     1     -11.377  -0.034  16.837  0.00  0.00    +0.000 N 
ATOM      8  C   UNL     1     -11.332  -0.461  18.201  0.00  0.00    +0.000 A 
ATOM      9  C   UNL     1     -10.915   0.304  19.313  0.00  0.00    +0.000 A 
ATOM     10  C   UNL     1     -10.454  -0.355  20.462  0.00  0.00    +0.000 A 
ATOM     11  C   UNL     1     -10.536  -1.742  20.595  0.00  0.00    +0.000 A 
ATOM     12  C   UNL     1     -10.947  -2.551  19.530  0.00  0.00    +0.000 A 
ATOM     13  C   UNL     1     -11.116  -1.922  18.280  0.00  0.00    +0.000 A 
ATOM     14  C   UNL     1     -10.728  -2.310  16.991  0.00  0.00    +0.000 A 
ATOM     15  C   UNL     1     -10.709  -3.544  16.304  0.00  0.00    +0.000 A 
ATOM     16  C   UNL     1     -10.528  -3.346  14.917  0.00  0.00    +0.000 A 
ATOM     17  C   UNL     1      -9.966  -2.105  14.580  0.00  0.00    +0.000 A 
ATOM     18  C   UNL     1      -9.882  -1.547  13.308  0.00  0.00    +0.000 A 
ATOM     19  C   UNL     1     -10.391  -1.768  12.037  0.00  0.00    +0.000 A 
ATOM     20  C   UNL     1      -9.562  -1.377  11.009  0.00  0.00    +0.000 A 
ATOM     21  C   UNL     1      -8.315  -0.800  11.289  0.00  0.00    +0.000 A 
ATOM     22  C   UNL     1      -8.036  -0.226  12.544  0.00  0.00    +0.000 A 
ATOM     23  C   UNL     1      -9.028  -0.402  13.502  0.00  0.00    +0.000 A 
ATOM     24  N   UNL     1      -9.426   0.243  14.743  0.00  0.00    +0.000 N 
ATOM     25  C   UNL     1      -9.730  -0.960  15.356  0.00  0.00    +0.000 A 
ATOM     26  C   UNL     1     -10.508  -1.032  16.481  0.00  0.00    +0.000 A 
ATOM     27  C   UNL     1     -10.864  -4.509  14.122  0.00  0.00    +0.000 C 
ATOM     28  N   UNL     1     -11.037  -5.453  15.196  0.00  0.00    +0.000 N 
ATOM     29  C   UNL     1     -10.983  -4.929  16.491  0.00  0.00    +0.000 C 
ATOM     30  O   UNL     1     -11.130  -5.624  17.501  0.00  0.00    +0.000 OA
ATOM     31  H   UNL     1     -12.646   3.621  15.174  0.00  0.00    +0.000 HD
ATOM     32  H   UNL     1     -10.311   3.290  15.505  0.00  0.00    +0.000 HD
ATOM     33  H   UNL     1     -10.546   2.130  16.748  0.00  0.00    +0.000 HD
ATOM     34  H   UNL     1     -10.469   1.691  13.687  0.00  0.00    +0.000 HD
ATOM     35  H   UNL     1     -12.860   1.662  14.177  0.00  0.00    +0.000 HD
ATOM     36  H   UNL     1     -10.743   1.374  19.209  0.00  0.00    +0.000 HD
ATOM     37  H   UNL     1      -9.961   0.220  21.246  0.00  0.00    +0.000 HD
ATOM     38  H   UNL     1     -10.154  -2.216  21.497  0.00  0.00    +0.000 HD
ATOM     39  H   UNL     1     -10.811  -3.630  19.596  0.00  0.00    +0.000 HD
ATOM     40  H   UNL     1     -11.333  -2.278  11.894  0.00  0.00    +0.000 HD
ATOM     41  H   UNL     1      -9.856  -1.607   9.991  0.00  0.00    +0.000 HD
ATOM     42  H   UNL     1      -7.570  -0.768  10.497  0.00  0.00    +0.000 HD
ATOM     43  H   UNL     1      -7.103   0.279  12.753  0.00  0.00    +0.000 HD
ATOM     44  H   UNL     1     -10.102  -4.818  13.405  0.00  0.00    +0.000 HD
ATOM     45  H   UNL     1     -11.041  -6.452  15.065  0.00  0.00    +0.000 HD
ENDROOT
BRANCH   5  46
ATOM     46  C   UNL     1     -13.505  -0.905  15.790  0.00  0.00    +0.000 C 
ATOM     47  H   UNL     1     -14.041  -0.962  14.839  0.00  0.00    +0.000 HD
ATOM     48  H   UNL     1     -13.098  -1.899  15.979  0.00  0.00    +0.000 HD
ATOM     49  H   UNL     1     -14.218  -0.740  16.605  0.00  0.00    +0.000 HD
ENDBRANCH   5  46
BRANCH   1  50
ATOM     50  N   UNL     1     -12.973   2.944  17.183  0.00  0.00    +0.000 NA
ATOM     51  H   UNL     1     -13.852   3.476  17.143  0.00  0.00    +0.000 HD
BRANCH  50  52
ATOM     52  C   UNL     1     -12.090   3.634  18.116  0.00  0.00    +0.000 C 
ATOM     53  H   UNL     1     -11.166   3.863  17.583  0.00  0.00    +0.000 HD
ATOM     54  H   UNL     1     -11.825   2.966  18.947  0.00  0.00    +0.000 HD
ATOM     55  H   UNL     1     -12.487   4.551  18.568  0.00  0.00    +0.000 HD
ENDBRANCH  50  52
ENDBRANCH   1  50
BRANCH  27  56
ATOM     56  O   UNL     1     -12.124  -4.380  13.511  0.00  0.00    +0.000 OA
ATOM     57  H   UNL     1     -12.254  -3.422  13.421  0.00  0.00    +0.000 HD
ENDBRANCH  27  56
BRANCH   6  58
ATOM     58  O   UNL     1     -14.572   1.596  15.071  0.00  0.00    +0.000 OA
BRANCH  58  59
ATOM     59  C   UNL     1     -14.961   1.989  13.731  0.00  0.00    +0.000 C 
ATOM     60  H   UNL     1     -15.307   3.022  13.767  0.00  0.00    +0.000 HD
ATOM     61  H   UNL     1     -14.164   1.918  12.974  0.00  0.00    +0.000 HD
ATOM     62  H   UNL     1     -15.771   1.345  13.373  0.00  0.00    +0.000 HD
ENDBRANCH  58  59
ENDBRANCH   6  58
TORSDOF 6
ENDMDL
MODEL 7
REMARK VINA RESULT:    -6.194      4.255      7.551
REMARK INTER + INTRA:          -7.927
REMARK INTER:                  -7.580
REMARK INTRA:                  -0.347
REMARK UNBOUND:                -0.284
REMARK  Name = 
REMARK  6 active torsions:
REMARK  status: ('A' for Active; 'I' for Inactive)
REMARK    1  A    between atoms: C_1  and  N_2
REMARK    2  A    between atoms: N_2  and  C_3
REMARK    3  A    between atoms: C_7  and  C_8
REMARK    4  A    between atoms: C_9  and  O_10
REMARK    5  A    between atoms: O_10  and  C_11
REMARK    6  A    between atoms: C_32  and  O_33
REMARK                            x       y       z     vdW  Elec       q    Type
REMARK                         _______ _______ _______ _____ _____    ______ ____
ROOT
ATOM      1  C   UNL     1      -8.875   0.565  18.125  0.00  0.00    +0.000 C 
ATOM      2  C   UNL     1      -9.941  -0.572  18.452  0.00  0.00    +0.000 C 
ATOM      3  C   UNL     1      -9.989  -1.756  17.314  0.00  0.00    +0.000 C 
ATOM      4  O   UNL     1      -9.664  -1.248  15.959  0.00  0.00    +0.000 OA
ATOM      5  C   UNL     1      -9.995   0.179  15.879  0.00  0.00    +0.000 C 
ATOM      6  C   UNL     1      -8.609   0.427  16.645  0.00  0.00    +0.000 C 
ATOM      7  N   UNL     1     -11.450   0.200  16.343  0.00  0.00    +0.000 N 
ATOM      8  C   UNL     1     -12.551   1.110  16.274  0.00  0.00    +0.000 A 
ATOM      9  C   UNL     1     -13.174   1.766  17.358  0.00  0.00    +0.000 A 
ATOM     10  C   UNL     1     -14.498   2.210  17.220  0.00  0.00    +0.000 A 
ATOM     11  C   UNL     1     -15.165   2.155  15.994  0.00  0.00    +0.000 A 
ATOM     12  C   UNL     1     -14.595   1.523  14.884  0.00  0.00    +0.000 A 
ATOM     13  C   UNL     1     -13.400   0.808  15.102  0.00  0.00    +0.000 A 
ATOM     14  C   UNL     1     -12.985  -0.455  14.658  0.00  0.00    +0.000 A 
ATOM     15  C   UNL     1     -13.117  -1.156  13.440  0.00  0.00    +0.000 A 
ATOM     16  C   UNL     1     -12.245  -2.267  13.400  0.00  0.00    +0.000 A 
ATOM     17  C   UNL     1     -11.808  -2.701  14.661  0.00  0.00    +0.000 A 
ATOM     18  C   UNL     1     -10.786  -3.610  14.921  0.00  0.00    +0.000 A 
ATOM     19  C   UNL     1      -9.756  -4.242  14.241  0.00  0.00    +0.000 A 
ATOM     20  C   UNL     1      -9.426  -5.488  14.725  0.00  0.00    +0.000 A 
ATOM     21  C   UNL     1     -10.110  -6.020  15.828  0.00  0.00    +0.000 A 
ATOM     22  C   UNL     1     -10.828  -5.195  16.716  0.00  0.00    +0.000 A 
ATOM     23  C   UNL     1     -10.914  -3.861  16.334  0.00  0.00    +0.000 A 
ATOM     24  N   UNL     1     -11.175  -2.590  16.989  0.00  0.00    +0.000 N 
ATOM     25  C   UNL     1     -11.930  -2.116  15.931  0.00  0.00    +0.000 A 
ATOM     26  C   UNL     1     -12.210  -0.785  15.768  0.00  0.00    +0.000 A 
ATOM     27  C   UNL     1     -12.056  -2.803  12.068  0.00  0.00    +0.000 C 
ATOM     28  N   UNL     1     -13.072  -2.038  11.390  0.00  0.00    +0.000 N 
ATOM     29  C   UNL     1     -13.700  -1.043  12.145  0.00  0.00    +0.000 C 
ATOM     30  O   UNL     1     -14.576  -0.306  11.683  0.00  0.00    +0.000 OA
ATOM     31  H   UNL     1      -7.934   0.357  18.656  0.00  0.00    +0.000 HD
ATOM     32  H   UNL     1      -9.733  -0.991  19.441  0.00  0.00    +0.000 HD
ATOM     33  H   UNL     1     -10.917  -0.093  18.582  0.00  0.00    +0.000 HD
ATOM     34  H   UNL     1      -9.195  -2.462  17.589  0.00  0.00    +0.000 HD
ATOM     35  H   UNL     1      -8.053  -0.526  16.635  0.00  0.00    +0.000 HD
ATOM     36  H   UNL     1     -12.725   1.735  18.350  0.00  0.00    +0.000 HD
ATOM     37  H   UNL     1     -15.043   2.546  18.101  0.00  0.00    +0.000 HD
ATOM     38  H   UNL     1     -16.197   2.497  15.932  0.00  0.00    +0.000 HD
ATOM     39  H   UNL     1     -15.213   1.322  14.010  0.00  0.00    +0.000 HD
ATOM     40  H   UNL     1      -9.317  -3.802  13.357  0.00  0.00    +0.000 HD
ATOM     41  H   UNL     1      -8.695  -6.077  14.183  0.00  0.00    +0.000 HD
ATOM     42  H   UNL     1     -10.043  -7.090  16.011  0.00  0.00    +0.000 HD
ATOM     43  H   UNL     1     -11.305  -5.583  17.604  0.00  0.00    +0.000 HD
ATOM     44  H   UNL     1     -12.204  -3.879  11.975  0.00  0.00    +0.000 HD
ATOM     45  H   UNL     1     -13.440  -2.281  10.484  0.00  0.00    +0.000 HD
ENDROOT
BRANCH   5  46
ATOM     46  C   UNL     1      -9.865   0.705  14.443  0.00  0.00    +0.000 C 
ATOM     47  H   UNL     1      -8.932   1.256  14.295  0.00  0.00    +0.000 HD
ATOM     48  H   UNL     1      -9.893  -0.070  13.676  0.00  0.00    +0.000 HD
ATOM     49  H   UNL     1     -10.717   1.353  14.211  0.00  0.00    +0.000 HD
ENDBRANCH   5  46
BRANCH   1  50
ATOM     50  N   UNL     1      -9.335   1.951  18.342  0.00  0.00    +0.000 NA
ATOM     51  H   UNL     1      -8.526   2.577  18.447  0.00  0.00    +0.000 HD
BRANCH  50  52
ATOM     52  C   UNL     1     -10.192   2.150  19.504  0.00  0.00    +0.000 C 
ATOM     53  H   UNL     1      -9.659   1.766  20.374  0.00  0.00    +0.000 HD
ATOM     54  H   UNL     1     -11.110   1.555  19.400  0.00  0.00    +0.000 HD
ATOM     55  H   UNL     1     -10.510   3.182  19.698  0.00  0.00    +0.000 HD
ENDBRANCH  50  52
ENDBRANCH   1  50
BRANCH  27  56
ATOM     56  O   UNL     1     -10.829  -2.401  11.510  0.00  0.00    +0.000 OA
ATOM     57  H   UNL     1     -11.077  -1.878  10.730  0.00  0.00    +0.000 HD
ENDBRANCH  27  56
BRANCH   6  58
ATOM     58  O   UNL     1      -7.606   1.253  16.027  0.00  0.00    +0.000 OA
BRANCH  58  59
ATOM     59  C   UNL     1      -6.414   0.506  15.678  0.00  0.00    +0.000 C 
ATOM     60  H   UNL     1      -5.607   0.827  16.337  0.00  0.00    +0.000 HD
ATOM     61  H   UNL     1      -6.509  -0.589  15.758  0.00  0.00    +0.000 HD
ATOM     62  H   UNL     1      -6.137   0.707  14.638  0.00  0.00    +0.000 HD
ENDBRANCH  58  59
ENDBRANCH   6  58
TORSDOF 6
ENDMDL
MODEL 8
REMARK VINA RESULT:    -6.131      2.671      4.058
REMARK INTER + INTRA:          -7.849
REMARK INTER:                  -7.575
REMARK INTRA:                  -0.274
REMARK UNBOUND:                -0.284
REMARK  Name = 
REMARK  6 active torsions:
REMARK  status: ('A' for Active; 'I' for Inactive)
REMARK    1  A    between atoms: C_1  and  N_2
REMARK    2  A    between atoms: N_2  and  C_3
REMARK    3  A    between atoms: C_7  and  C_8
REMARK    4  A    between atoms: C_9  and  O_10
REMARK    5  A    between atoms: O_10  and  C_11
REMARK    6  A    between atoms: C_32  and  O_33
REMARK                            x       y       z     vdW  Elec       q    Type
REMARK                         _______ _______ _______ _____ _____    ______ ____
ROOT
ATOM      1  C   UNL     1      -9.314   3.178  18.039  0.00  0.00    +0.000 C 
ATOM      2  C   UNL     1     -10.625   2.653  18.774  0.00  0.00    +0.000 C 
ATOM      3  C   UNL     1     -10.400   1.220  19.546  0.00  0.00    +0.000 C 
ATOM      4  O   UNL     1      -9.397   0.365  18.867  0.00  0.00    +0.000 OA
ATOM      5  C   UNL     1      -9.346   0.710  17.442  0.00  0.00    +0.000 C 
ATOM      6  C   UNL     1      -8.441   1.955  17.891  0.00  0.00    +0.000 C 
ATOM      7  N   UNL     1     -10.811   0.595  17.028  0.00  0.00    +0.000 N 
ATOM      8  C   UNL     1     -11.540   0.480  15.803  0.00  0.00    +0.000 A 
ATOM      9  C   UNL     1     -12.433   1.430  15.259  0.00  0.00    +0.000 A 
ATOM     10  C   UNL     1     -13.422   1.002  14.361  0.00  0.00    +0.000 A 
ATOM     11  C   UNL     1     -13.455  -0.306  13.874  0.00  0.00    +0.000 A 
ATOM     12  C   UNL     1     -12.591  -1.288  14.371  0.00  0.00    +0.000 A 
ATOM     13  C   UNL     1     -11.807  -0.940  15.489  0.00  0.00    +0.000 A 
ATOM     14  C   UNL     1     -11.513  -1.642  16.666  0.00  0.00    +0.000 A 
ATOM     15  C   UNL     1     -11.222  -2.993  16.953  0.00  0.00    +0.000 A 
ATOM     16  C   UNL     1     -10.684  -3.129  18.252  0.00  0.00    +0.000 A 
ATOM     17  C   UNL     1     -10.971  -2.055  19.108  0.00  0.00    +0.000 A 
ATOM     18  C   UNL     1     -10.396  -1.805  20.352  0.00  0.00    +0.000 A 
ATOM     19  C   UNL     1      -9.330  -2.254  21.116  0.00  0.00    +0.000 A 
ATOM     20  C   UNL     1      -9.527  -2.185  22.477  0.00  0.00    +0.000 A 
ATOM     21  C   UNL     1     -10.733  -1.684  22.990  0.00  0.00    +0.000 A 
ATOM     22  C   UNL     1     -11.582  -0.874  22.212  0.00  0.00    +0.000 A 
ATOM     23  C   UNL     1     -11.202  -0.735  20.883  0.00  0.00    +0.000 A 
ATOM     24  N   UNL     1     -11.456   0.206  19.804  0.00  0.00    +0.000 N 
ATOM     25  C   UNL     1     -11.529  -0.794  18.851  0.00  0.00    +0.000 A 
ATOM     26  C   UNL     1     -11.416  -0.537  17.510  0.00  0.00    +0.000 A 
ATOM     27  C   UNL     1     -10.030  -4.401  18.474  0.00  0.00    +0.000 C 
ATOM     28  N   UNL     1     -10.440  -5.061  17.260  0.00  0.00    +0.000 N 
ATOM     29  C   UNL     1     -11.116  -4.269  16.327  0.00  0.00    +0.000 C 
ATOM     30  O   UNL     1     -11.508  -4.703  15.240  0.00  0.00    +0.000 OA
ATOM     31  H   UNL     1      -8.784   3.892  18.687  0.00  0.00    +0.000 HD
ATOM     32  H   UNL     1     -10.983   3.418  19.469  0.00  0.00    +0.000 HD
ATOM     33  H   UNL     1     -11.428   2.593  18.032  0.00  0.00    +0.000 HD
ATOM     34  H   UNL     1      -9.987   1.477  20.530  0.00  0.00    +0.000 HD
ATOM     35  H   UNL     1      -8.157   1.790  18.945  0.00  0.00    +0.000 HD
ATOM     36  H   UNL     1     -12.501   2.428  15.689  0.00  0.00    +0.000 HD
ATOM     37  H   UNL     1     -14.223   1.687  14.083  0.00  0.00    +0.000 HD
ATOM     38  H   UNL     1     -14.248  -0.601  13.189  0.00  0.00    +0.000 HD
ATOM     39  H   UNL     1     -12.772  -2.332  14.121  0.00  0.00    +0.000 HD
ATOM     40  H   UNL     1      -8.456  -2.689  20.653  0.00  0.00    +0.000 HD
ATOM     41  H   UNL     1      -8.773  -2.607  23.131  0.00  0.00    +0.000 HD
ATOM     42  H   UNL     1     -10.984  -1.902  24.025  0.00  0.00    +0.000 HD
ATOM     43  H   UNL     1     -12.481  -0.429  22.615  0.00  0.00    +0.000 HD
ATOM     44  H   UNL     1     -10.343  -4.935  19.372  0.00  0.00    +0.000 HD
ATOM     45  H   UNL     1     -10.399  -6.058  17.127  0.00  0.00    +0.000 HD
ENDROOT
BRANCH   5  46
ATOM     46  C   UNL     1      -8.469  -0.277  16.658  0.00  0.00    +0.000 C 
ATOM     47  H   UNL     1      -9.000  -0.697  15.799  0.00  0.00    +0.000 HD
ATOM     48  H   UNL     1      -7.543   0.151  16.273  0.00  0.00    +0.000 HD
ATOM     49  H   UNL     1      -8.144  -1.086  17.322  0.00  0.00    +0.000 HD
ENDBRANCH   5  46
BRANCH   1  50
ATOM     50  N   UNL     1      -9.517   3.716  16.679  0.00  0.00    +0.000 NA
ATOM     51  H   UNL     1      -8.720   4.307  16.412  0.00  0.00    +0.000 HD
BRANCH  50  52
ATOM     52  C   UNL     1     -10.727   4.508  16.495  0.00  0.00    +0.000 C 
ATOM     53  H   UNL     1     -10.985   4.941  17.462  0.00  0.00    +0.000 HD
ATOM     54  H   UNL     1     -11.562   3.857  16.201  0.00  0.00    +0.000 HD
ATOM     55  H   UNL     1     -10.673   5.303  15.742  0.00  0.00    +0.000 HD
ENDBRANCH  50  52
ENDBRANCH   1  50
BRANCH  27  56
ATOM     56  O   UNL     1      -8.630  -4.290  18.402  0.00  0.00    +0.000 OA
ATOM     57  H   UNL     1      -8.476  -3.471  17.905  0.00  0.00    +0.000 HD
ENDBRANCH  27  56
BRANCH   6  58
ATOM     58  O   UNL     1      -7.117   2.092  17.344  0.00  0.00    +0.000 OA
BRANCH  58  59
ATOM     59  C   UNL     1      -6.369   3.163  17.971  0.00  0.00    +0.000 C 
ATOM     60  H   UNL     1      -5.917   3.767  17.184  0.00  0.00    +0.000 HD
ATOM     61  H   UNL     1      -6.961   3.828  18.620  0.00  0.00    +0.000 HD
ATOM     62  H   UNL     1      -5.582   2.746  18.608  0.00  0.00    +0.000 HD
ENDBRANCH  58  59
ENDBRANCH   6  58
TORSDOF 6
ENDMDL
MODEL 9
REMARK VINA RESULT:    -5.984      4.114      6.021
REMARK INTER + INTRA:          -7.668
REMARK INTER:                  -7.301
REMARK INTRA:                  -0.367
REMARK UNBOUND:                -0.284
REMARK  Name = 
REMARK  6 active torsions:
REMARK  status: ('A' for Active; 'I' for Inactive)
REMARK    1  A    between atoms: C_1  and  N_2
REMARK    2  A    between atoms: N_2  and  C_3
REMARK    3  A    between atoms: C_7  and  C_8
REMARK    4  A    between atoms: C_9  and  O_10
REMARK    5  A    between atoms: O_10  and  C_11
REMARK    6  A    between atoms: C_32  and  O_33
REMARK                            x       y       z     vdW  Elec       q    Type
REMARK                         _______ _______ _______ _____ _____    ______ ____
ROOT
ATOM      1  C   UNL     1      -9.624   2.459  13.387  0.00  0.00    +0.000 C 
ATOM      2  C   UNL     1     -11.067   2.344  14.050  0.00  0.00    +0.000 C 
ATOM      3  C   UNL     1     -11.030   1.716  15.568  0.00  0.00    +0.000 C 
ATOM      4  O   UNL     1      -9.922   0.747  15.750  0.00  0.00    +0.000 OA
ATOM      5  C   UNL     1      -9.573   0.156  14.453  0.00  0.00    +0.000 C 
ATOM      6  C   UNL     1      -8.760   1.510  14.182  0.00  0.00    +0.000 C 
ATOM      7  N   UNL     1     -10.923  -0.356  13.956  0.00  0.00    +0.000 N 
ATOM      8  C   UNL     1     -11.386  -1.276  12.964  0.00  0.00    +0.000 A 
ATOM      9  C   UNL     1     -12.132  -0.965  11.806  0.00  0.00    +0.000 A 
ATOM     10  C   UNL     1     -12.922  -1.961  11.213  0.00  0.00    +0.000 A 
ATOM     11  C   UNL     1     -12.875  -3.288  11.645  0.00  0.00    +0.000 A 
ATOM     12  C   UNL     1     -12.149  -3.657  12.782  0.00  0.00    +0.000 A 
ATOM     13  C   UNL     1     -11.606  -2.612  13.557  0.00  0.00    +0.000 A 
ATOM     14  C   UNL     1     -11.572  -2.412  14.944  0.00  0.00    +0.000 A 
ATOM     15  C   UNL     1     -11.370  -3.264  16.052  0.00  0.00    +0.000 A 
ATOM     16  C   UNL     1     -11.113  -2.518  17.223  0.00  0.00    +0.000 A 
ATOM     17  C   UNL     1     -11.552  -1.186  17.164  0.00  0.00    +0.000 A 
ATOM     18  C   UNL     1     -11.242  -0.166  18.061  0.00  0.00    +0.000 A 
ATOM     19  C   UNL     1     -10.364   0.070  19.107  0.00  0.00    +0.000 A 
ATOM     20  C   UNL     1     -10.836   0.930  20.072  0.00  0.00    +0.000 A 
ATOM     21  C   UNL     1     -12.113   1.497  19.948  0.00  0.00    +0.000 A 
ATOM     22  C   UNL     1     -12.770   1.561  18.704  0.00  0.00    +0.000 A 
ATOM     23  C   UNL     1     -12.122   0.904  17.665  0.00  0.00    +0.000 A 
ATOM     24  N   UNL     1     -12.133   0.956  16.212  0.00  0.00    +0.000 N 
ATOM     25  C   UNL     1     -12.025  -0.418  16.089  0.00  0.00    +0.000 A 
ATOM     26  C   UNL     1     -11.633  -1.020  14.923  0.00  0.00    +0.000 A 
ATOM     27  C   UNL     1     -10.540  -3.305  18.294  0.00  0.00    +0.000 C 
ATOM     28  N   UNL     1     -10.701  -4.610  17.703  0.00  0.00    +0.000 N 
ATOM     29  C   UNL     1     -11.157  -4.634  16.382  0.00  0.00    +0.000 C 
ATOM     30  O   UNL     1     -11.325  -5.682  15.750  0.00  0.00    +0.000 OA
ATOM     31  H   UNL     1      -9.228   3.475  13.532  0.00  0.00    +0.000 HD
ATOM     32  H   UNL     1     -11.548   3.327  14.047  0.00  0.00    +0.000 HD
ATOM     33  H   UNL     1     -11.701   1.752  13.381  0.00  0.00    +0.000 HD
ATOM     34  H   UNL     1     -10.825   2.564  16.233  0.00  0.00    +0.000 HD
ATOM     35  H   UNL     1      -8.702   2.056  15.139  0.00  0.00    +0.000 HD
ATOM     36  H   UNL     1     -12.271   0.072  11.505  0.00  0.00    +0.000 HD
ATOM     37  H   UNL     1     -13.637  -1.685  10.438  0.00  0.00    +0.000 HD
ATOM     38  H   UNL     1     -13.514  -4.028  11.167  0.00  0.00    +0.000 HD
ATOM     39  H   UNL     1     -12.291  -4.649  13.207  0.00  0.00    +0.000 HD
ATOM     40  H   UNL     1      -9.420  -0.453  19.173  0.00  0.00    +0.000 HD
ATOM     41  H   UNL     1     -10.240   1.085  20.964  0.00  0.00    +0.000 HD
ATOM     42  H   UNL     1     -12.576   1.928  20.832  0.00  0.00    +0.000 HD
ATOM     43  H   UNL     1     -13.726   2.052  18.582  0.00  0.00    +0.000 HD
ATOM     44  H   UNL     1     -11.040  -3.214  19.259  0.00  0.00    +0.000 HD
ATOM     45  H   UNL     1     -10.650  -5.469  18.226  0.00  0.00    +0.000 HD
ENDROOT
BRANCH   5  46
ATOM     46  C   UNL     1      -8.570  -0.996  14.615  0.00  0.00    +0.000 C 
ATOM     47  H   UNL     1      -8.582  -1.405  15.629  0.00  0.00    +0.000 HD
ATOM     48  H   UNL     1      -8.735  -1.835  13.939  0.00  0.00    +0.000 HD
ATOM     49  H   UNL     1      -7.562  -0.641  14.373  0.00  0.00    +0.000 HD
ENDBRANCH   5  46
BRANCH   1  50
ATOM     50  N   UNL     1      -9.534   2.029  11.978  0.00  0.00    +0.000 NA
ATOM     51  H   UNL     1      -8.696   2.433  11.540  0.00  0.00    +0.000 HD
BRANCH  50  52
ATOM     52  C   UNL     1     -10.675   2.385  11.142  0.00  0.00    +0.000 C 
ATOM     53  H   UNL     1     -11.258   3.130  11.684  0.00  0.00    +0.000 HD
ATOM     54  H   UNL     1     -11.324   1.509  10.999  0.00  0.00    +0.000 HD
ATOM     55  H   UNL     1     -10.439   2.765  10.140  0.00  0.00    +0.000 HD
ENDBRANCH  50  52
ENDBRANCH   1  50
BRANCH  27  56
ATOM     56  O   UNL     1      -9.153  -3.101  18.411  0.00  0.00    +0.000 OA
ATOM     57  H   UNL     1      -8.915  -2.588  17.621  0.00  0.00    +0.000 HD
ENDBRANCH  27  56
BRANCH   6  58
ATOM     58  O   UNL     1      -7.350   1.437  13.905  0.00  0.00    +0.000 OA
BRANCH  58  59
ATOM     59  C   UNL     1      -6.565   2.240  14.821  0.00  0.00    +0.000 C 
ATOM     60  H   UNL     1      -5.766   1.615  15.221  0.00  0.00    +0.000 HD
ATOM     61  H   UNL     1      -6.110   3.141  14.379  0.00  0.00    +0.000 HD
ATOM     62  H   UNL     1      -7.196   2.595  15.642  0.00  0.00    +0.000 HD
ENDBRANCH  58  59
ENDBRANCH   6  58
TORSDOF 6
ENDMDL
