REMARK  Name = 
REMARK  1 active torsions:
REMARK  status: ('A' for Active; 'I' for Inactive)
REMARK    1  A    between atoms: C_4  and  O_5
REMARK                            x       y       z     vdW  Elec       q    Type
REMARK                         _______ _______ _______ _____ _____    ______ ____
ROOT
ATOM      1  O   UNL     1      -3.288  -2.258  -0.076  0.00  0.00    +0.000 OA
ATOM      2  C   UNL     1      -2.073  -2.112  -0.053  0.00  0.00    +0.000 C 
ATOM      3  N   UNL     1      -1.216  -3.204  -0.019  0.00  0.00    +0.000 N 
ATOM      4  C   UNL     1       0.186  -2.914  -0.057  0.00  0.00    +0.000 C 
ATOM      5  C   UNL     1       0.153  -1.445  -0.042  0.00  0.00    +0.000 A 
ATOM      6  C   UNL     1      -1.196  -0.971  -0.046  0.00  0.00    +0.000 A 
ATOM      7  C   UNL     1      -1.423   0.431  -0.050  0.00  0.00    +0.000 A 
ATOM      8  C   UNL     1      -2.643   1.106  -0.055  0.00  0.00    +0.000 A 
ATOM      9  C   UNL     1      -4.020   0.811  -0.058  0.00  0.00    +0.000 A 
ATOM     10  C   UNL     1      -4.956   1.854  -0.061  0.00  0.00    +0.000 A 
ATOM     11  C   UNL     1      -4.546   3.183  -0.061  0.00  0.00    +0.000 A 
ATOM     12  C   UNL     1      -3.189   3.514  -0.059  0.00  0.00    +0.000 A 
ATOM     13  C   UNL     1      -2.259   2.465  -0.057  0.00  0.00    +0.000 A 
ATOM     14  N   UNL     1      -0.870   2.531  -0.056  0.00  0.00    +0.000 N 
ATOM     15  C   UNL     1      -0.354   1.271  -0.052  0.00  0.00    +0.000 A 
ATOM     16  C   UNL     1       0.939   0.807  -0.052  0.00  0.00    +0.000 A 
ATOM     17  N   UNL     1       2.145   1.442  -0.057  0.00  0.00    +0.000 N 
ATOM     18  C   UNL     1       3.168   0.497  -0.060  0.00  0.00    +0.000 A 
ATOM     19  C   UNL     1       4.555   0.700  -0.064  0.00  0.00    +0.000 A 
ATOM     20  C   UNL     1       5.378  -0.428  -0.065  0.00  0.00    +0.000 A 
ATOM     21  C   UNL     1       4.835  -1.710  -0.062  0.00  0.00    +0.000 A 
ATOM     22  C   UNL     1       3.447  -1.906  -0.058  0.00  0.00    +0.000 A 
ATOM     23  C   UNL     1       2.589  -0.789  -0.056  0.00  0.00    +0.000 A 
ATOM     24  C   UNL     1       1.223  -0.519  -0.049  0.00  0.00    +0.000 A 
ATOM     25  H   UNL     1      -1.586  -4.141  -0.057  0.00  0.00    +0.000 HD
ATOM     26  H   UNL     1       0.628  -3.331  -0.965  0.00  0.00    +0.000 HD
ATOM     27  H   UNL     1      -4.379  -0.212  -0.059  0.00  0.00    +0.000 HD
ATOM     28  H   UNL     1      -6.017   1.616  -0.062  0.00  0.00    +0.000 HD
ATOM     29  H   UNL     1      -5.291   3.976  -0.062  0.00  0.00    +0.000 HD
ATOM     30  H   UNL     1      -2.874   4.552  -0.059  0.00  0.00    +0.000 HD
ATOM     31  H   UNL     1      -0.342   3.391  -0.058  0.00  0.00    +0.000 HD
ATOM     32  H   UNL     1       2.292   2.440  -0.060  0.00  0.00    +0.000 HD
ATOM     33  H   UNL     1       4.983   1.697  -0.064  0.00  0.00    +0.000 HD
ATOM     34  H   UNL     1       6.458  -0.301  -0.065  0.00  0.00    +0.000 HD
ATOM     35  H   UNL     1       5.497  -2.573  -0.059  0.00  0.00    +0.000 HD
ATOM     36  H   UNL     1       3.055  -2.918  -0.046  0.00  0.00    +0.000 HD
ENDROOT
BRANCH   4  37
ATOM     37  O   UNL     1       0.738  -3.477   1.103  0.00  0.00    +0.000 OA
ATOM     38  H   UNL     1       0.252  -3.075   1.841  0.00  0.00    +0.000 HD
ENDBRANCH   4  37
TORSDOF 1
