
 OpenBabel01112422543D

 52 56  0  0  1  0  0  0  0  0999 V2000
    1.4459    0.0813    1.2880 N   0  0  0  0  0  0  0  0  0  0  0  0
    2.7251    0.1765    0.6954 C   0  0  0  0  0  0  0  0  0  0  0  0
    3.5404   -0.9734    0.7766 C   0  0  0  0  0  0  0  0  0  0  0  0
    4.8215   -0.9179    0.2262 C   0  0  0  0  0  0  0  0  0  0  0  0
    5.8040   -1.8646    0.0983 N   0  0  0  0  0  0  0  0  0  0  0  0
    6.9133   -1.4256   -0.5203 N   0  0  0  0  0  0  0  0  0  0  0  0
    6.6347   -0.1444   -0.7744 C   0  0  0  0  0  0  0  0  0  0  0  0
    7.7622    0.8463   -1.5623 Cl  0  0  0  0  0  0  0  0  0  0  0  0
    5.3474    0.2361   -0.3309 C   0  0  0  0  0  0  0  0  0  0  0  0
    4.5660    1.4074   -0.3194 C   0  0  0  0  0  0  0  0  0  0  0  0
    3.2454    1.4059    0.2037 C   0  0  0  0  0  0  0  0  0  0  0  0
    2.4724    2.6790    0.1815 C   0  0  0  0  0  0  0  0  0  0  0  0
    1.6113    3.0747    1.2068 C   0  0  0  0  0  0  0  0  0  0  0  0
    0.8509    4.2014    1.2027 N   0  0  0  0  0  0  0  0  0  0  0  0
    0.9941    5.0290    0.1428 C   0  0  0  0  0  0  0  0  0  0  0  0
    1.8626    4.7862   -0.9059 C   0  0  0  0  0  0  0  0  0  0  0  0
    2.1143    5.5840   -1.9807 O   0  0  0  0  0  0  0  0  0  0  0  0
    1.4405    6.8468   -2.0425 C   0  0  0  0  0  0  0  0  0  0  0  0
    1.9110    7.5763   -3.3241 C   0  0  1  0  0  0  0  0  0  0  0  0
    1.6634    6.7163   -4.5014 N   0  0  0  0  0  0  0  0  0  0  0  0
    1.2127    8.9452   -3.4308 C   0  0  0  0  0  0  0  0  0  0  0  0
    1.6873    9.8238   -4.5535 C   0  0  0  0  0  0  0  0  0  0  0  0
    2.7514   10.7046   -4.5061 C   0  0  0  0  0  0  0  0  0  0  0  0
    2.8013   11.3833   -5.6942 N   0  0  0  0  0  0  0  0  0  0  0  0
    1.7806   10.9767   -6.5219 C   0  0  0  0  0  0  0  0  0  0  0  0
    1.4181   11.4254   -7.7973 C   0  0  0  0  0  0  0  0  0  0  0  0
    0.3261   10.8120   -8.4162 C   0  0  0  0  0  0  0  0  0  0  0  0
   -0.3624    9.7763   -7.7894 C   0  0  0  0  0  0  0  0  0  0  0  0
    0.0100    9.3459   -6.5110 C   0  0  0  0  0  0  0  0  0  0  0  0
    1.0925    9.9661   -5.8490 C   0  0  0  0  0  0  0  0  0  0  0  0
    2.5819    3.5891   -0.8836 C   0  0  0  0  0  0  0  0  0  0  0  0
    1.1023   -0.8696    1.3809 H   0  0  0  0  0  0  0  0  0  0  0  0
    0.7525    0.6762    0.8411 H   0  0  0  0  0  0  0  0  0  0  0  0
    3.1681   -1.8902    1.2223 H   0  0  0  0  0  0  0  0  0  0  0  0
    5.7742   -2.8320    0.4015 H   0  0  0  0  0  0  0  0  0  0  0  0
    5.0077    2.3190   -0.7145 H   0  0  0  0  0  0  0  0  0  0  0  0
    1.4965    2.4779    2.1092 H   0  0  0  0  0  0  0  0  0  0  0  0
    0.3664    5.9124    0.1899 H   0  0  0  0  0  0  0  0  0  0  0  0
    1.6940    7.4505   -1.1628 H   0  0  0  0  0  0  0  0  0  0  0  0
    0.3564    6.6853   -2.0796 H   0  0  0  0  0  0  0  0  0  0  0  0
    2.9964    7.7207   -3.2647 H   0  0  0  0  0  0  0  0  0  0  0  0
    0.6651    6.5584   -4.6111 H   0  0  0  0  0  0  0  0  0  0  0  0
    2.0699    5.7998   -4.3041 H   0  0  0  0  0  0  0  0  0  0  0  0
    1.3720    9.4947   -2.4910 H   0  0  0  0  0  0  0  0  0  0  0  0
    0.1276    8.8079   -3.5118 H   0  0  0  0  0  0  0  0  0  0  0  0
    3.4644   10.9196   -3.7232 H   0  0  0  0  0  0  0  0  0  0  0  0
    3.4745   12.1000   -5.9291 H   0  0  0  0  0  0  0  0  0  0  0  0
    1.9581   12.2279   -8.2920 H   0  0  0  0  0  0  0  0  0  0  0  0
    0.0128   11.1449   -9.4028 H   0  0  0  0  0  0  0  0  0  0  0  0
   -1.1990    9.2997   -8.2943 H   0  0  0  0  0  0  0  0  0  0  0  0
   -0.5331    8.5366   -6.0328 H   0  0  0  0  0  0  0  0  0  0  0  0
    3.2406    3.3803   -1.7233 H   0  0  0  0  0  0  0  0  0  0  0  0
  1  2  1  0  0  0  0
  1 32  1  0  0  0  0
  1 33  1  0  0  0  0
  2  3  1  0  0  0  0
  2 11  2  0  0  0  0
  3  4  2  0  0  0  0
  3 34  1  0  0  0  0
  4  5  1  0  0  0  0
  4  9  1  0  0  0  0
  5  6  1  0  0  0  0
  5 35  1  0  0  0  0
  6  7  2  0  0  0  0
  7  8  1  0  0  0  0
  7  9  1  0  0  0  0
  9 10  2  0  0  0  0
 10 11  1  0  0  0  0
 10 36  1  0  0  0  0
 11 12  1  0  0  0  0
 12 13  1  0  0  0  0
 12 31  2  0  0  0  0
 13 14  2  0  0  0  0
 13 37  1  0  0  0  0
 14 15  1  0  0  0  0
 15 16  2  0  0  0  0
 15 38  1  0  0  0  0
 16 17  1  0  0  0  0
 16 31  1  0  0  0  0
 17 18  1  0  0  0  0
 18 19  1  0  0  0  0
 18 39  1  0  0  0  0
 18 40  1  0  0  0  0
 19 20  1  0  0  0  0
 19 21  1  0  0  0  0
 19 41  1  1  0  0  0
 20 42  1  0  0  0  0
 20 43  1  0  0  0  0
 21 22  1  0  0  0  0
 21 44  1  0  0  0  0
 21 45  1  0  0  0  0
 22 23  2  0  0  0  0
 22 30  1  0  0  0  0
 23 24  1  0  0  0  0
 23 46  1  0  0  0  0
 24 25  1  0  0  0  0
 24 47  1  0  0  0  0
 25 26  1  0  0  0  0
 25 30  2  0  0  0  0
 26 27  2  0  0  0  0
 26 48  1  0  0  0  0
 27 28  1  0  0  0  0
 27 49  1  0  0  0  0
 28 29  2  0  0  0  0
 28 50  1  0  0  0  0
 29 30  1  0  0  0  0
 29 51  1  0  0  0  0
 31 52  1  0  0  0  0
M  END
$$$$
