REMARK  Name = 
REMARK  2 active torsions:
REMARK  status: ('A' for Active; 'I' for Inactive)
REMARK    1  A    between atoms: O_1  and  C_2
REMARK    2  A    between atoms: C_6  and  C_7
REMARK                            x       y       z     vdW  Elec       q    Type
REMARK                         _______ _______ _______ _____ _____    ______ ____
ROOT
ATOM      1  C   UNL     1       1.080  -0.234  -0.887  0.00  0.00    +0.000 A 
ATOM      2  N   UNL     1       0.224   0.042   0.120  0.00  0.00    +0.000 NA
ATOM      3  C   UNL     1      -0.476   1.209   0.135  0.00  0.00    +0.000 A 
ATOM      4  N   UNL     1      -1.384   1.425   1.149  0.00  0.00    +0.000 N 
ATOM      5  C   UNL     1      -1.183   0.851   2.481  0.00  0.00    +0.000 C 
ATOM      6  C   UNL     1      -2.434   0.077   2.931  0.00  0.00    +0.000 C 
ATOM      7  O   UNL     1      -3.626   0.874   2.821  0.00  0.00    +0.000 OA
ATOM      8  C   UNL     1      -3.818   1.281   1.459  0.00  0.00    +0.000 C 
ATOM      9  C   UNL     1      -2.648   2.138   0.956  0.00  0.00    +0.000 C 
ATOM     10  C   UNL     1      -0.200   2.117  -0.909  0.00  0.00    +0.000 A 
ATOM     11  S   UNL     1      -0.756   3.735  -1.187  0.00  0.00    +0.000 S 
ATOM     12  C   UNL     1       0.101   3.878  -2.650  0.00  0.00    +0.000 A 
ATOM     13  C   UNL     1       0.852   2.758  -2.909  0.00  0.00    +0.000 A 
ATOM     14  C   UNL     1       0.698   1.754  -1.908  0.00  0.00    +0.000 A 
ATOM     15  N   UNL     1       1.342   0.569  -1.923  0.00  0.00    +0.000 NA
ATOM     16  H   UNL     1      -1.022   1.686   3.176  0.00  0.00    +0.000 HD
ATOM     17  H   UNL     1      -0.303   0.204   2.551  0.00  0.00    +0.000 HD
ATOM     18  H   UNL     1      -2.334  -0.212   3.982  0.00  0.00    +0.000 HD
ATOM     19  H   UNL     1      -2.563  -0.838   2.342  0.00  0.00    +0.000 HD
ATOM     20  H   UNL     1      -4.746   1.859   1.406  0.00  0.00    +0.000 HD
ATOM     21  H   UNL     1      -3.945   0.390   0.832  0.00  0.00    +0.000 HD
ATOM     22  H   UNL     1      -2.606   3.076   1.522  0.00  0.00    +0.000 HD
ATOM     23  H   UNL     1      -2.855   2.368  -0.092  0.00  0.00    +0.000 HD
ATOM     24  H   UNL     1       0.028   4.781  -3.239  0.00  0.00    +0.000 HD
ATOM     25  H   UNL     1       1.492   2.652  -3.775  0.00  0.00    +0.000 HD
ENDROOT
BRANCH   1  30
ATOM     26  C   UNL     1       2.274  -3.700   0.144  0.00  0.00    +0.000 A 
ATOM     27  C   UNL     1       3.165  -4.023  -0.874  0.00  0.00    +0.000 A 
ATOM     28  C   UNL     1       3.380  -3.108  -1.900  0.00  0.00    +0.000 A 
ATOM     29  C   UNL     1       2.701  -1.883  -1.894  0.00  0.00    +0.000 A 
ATOM     30  C   UNL     1       1.792  -1.536  -0.871  0.00  0.00    +0.000 A 
ATOM     31  C   UNL     1       1.596  -2.482   0.152  0.00  0.00    +0.000 A 
ATOM     32  H   UNL     1       3.694  -4.970  -0.887  0.00  0.00    +0.000 HD
ATOM     33  H   UNL     1       4.070  -3.338  -2.706  0.00  0.00    +0.000 HD
ATOM     34  H   UNL     1       2.892  -1.189  -2.712  0.00  0.00    +0.000 HD
ATOM     35  H   UNL     1       0.907  -2.272   0.967  0.00  0.00    +0.000 HD
BRANCH  26  36
ATOM     36  O   UNL     1       2.036  -4.570   1.169  0.00  0.00    +0.000 OA
ATOM     37  H   UNL     1       2.574  -5.369   1.031  0.00  0.00    +0.000 HD
ENDBRANCH  26  36
ENDBRANCH   1  30
TORSDOF 2
