
 OpenBabel01112422523D

 52 56  0  0  1  0  0  0  0  0999 V2000
    3.2290   -0.2345    1.5879 N   0  0  0  0  0  0  0  0  0  0  0  0
    2.5590   -0.2276    0.2707 C   0  0  2  0  0  0  0  0  0  0  0  0
    1.0281   -0.3925    0.4241 C   0  0  0  0  0  0  0  0  0  0  0  0
    0.4823    0.6853    1.1925 O   0  0  0  0  0  0  0  0  0  0  0  0
   -0.8452    0.5911    1.5024 C   0  0  0  0  0  0  0  0  0  0  0  0
   -1.3751    1.6254    2.2593 C   0  0  0  0  0  0  0  0  0  0  0  0
   -2.6733    1.7049    2.6358 N   0  0  0  0  0  0  0  0  0  0  0  0
   -3.4826    0.6893    2.2372 C   0  0  0  0  0  0  0  0  0  0  0  0
   -3.0742   -0.4234    1.5017 C   0  0  0  0  0  0  0  0  0  0  0  0
   -4.0358   -1.4326    0.9892 C   0  0  0  0  0  0  0  0  0  0  0  0
   -5.2034   -1.8538    1.6483 C   0  0  0  0  0  0  0  0  0  0  0  0
   -6.2284   -2.3841    0.8349 C   0  0  0  0  0  0  0  0  0  0  0  0
   -7.5538   -2.9143    0.9031 C   0  0  0  0  0  0  0  0  0  0  0  0
   -8.2075   -3.8951    1.8269 C   0  0  0  0  0  0  0  0  0  0  0  0
   -9.5780   -4.1004    1.8699 C   0  0  0  0  0  0  0  0  0  0  0  0
   -9.7941   -5.3794    2.4278 C   0  0  0  0  0  0  0  0  0  0  0  0
   -8.5443   -5.8831    2.6989 C   0  0  0  0  0  0  0  0  0  0  0  0
   -7.5779   -4.9653    2.4090 O   0  0  0  0  0  0  0  0  0  0  0  0
   -8.1805   -2.7611   -0.2800 N   0  0  0  0  0  0  0  0  0  0  0  0
   -7.1626   -2.6977   -1.1349 N   0  0  0  0  0  0  0  0  0  0  0  0
   -5.9699   -2.4715   -0.5277 C   0  0  0  0  0  0  0  0  0  0  0  0
   -4.7020   -2.3285   -1.0658 C   0  0  0  0  0  0  0  0  0  0  0  0
   -3.7454   -1.7901   -0.2965 N   0  0  0  0  0  0  0  0  0  0  0  0
   -1.7168   -0.4322    1.1208 C   0  0  0  0  0  0  0  0  0  0  0  0
    3.1452   -1.3493   -0.6205 C   0  0  0  0  0  0  0  0  0  0  0  0
    2.5776   -1.3841   -2.0222 C   0  0  0  0  0  0  0  0  0  0  0  0
    2.7144   -0.2810   -2.8761 C   0  0  0  0  0  0  0  0  0  0  0  0
    2.1670   -0.3078   -4.1598 C   0  0  0  0  0  0  0  0  0  0  0  0
    1.4826   -1.4370   -4.6048 C   0  0  0  0  0  0  0  0  0  0  0  0
    1.3463   -2.5428   -3.7681 C   0  0  0  0  0  0  0  0  0  0  0  0
    1.8962   -2.5193   -2.4852 C   0  0  0  0  0  0  0  0  0  0  0  0
    4.2333   -0.1148    1.4712 H   0  0  0  0  0  0  0  0  0  0  0  0
    3.0865   -1.1300    2.0518 H   0  0  0  0  0  0  0  0  0  0  0  0
    2.7582    0.7551   -0.1725 H   0  0  0  0  0  0  0  0  0  0  0  0
    0.5566   -0.3745   -0.5655 H   0  0  0  0  0  0  0  0  0  0  0  0
    0.8232   -1.3523    0.9145 H   0  0  0  0  0  0  0  0  0  0  0  0
   -0.7459    2.4512    2.5827 H   0  0  0  0  0  0  0  0  0  0  0  0
   -4.5268    0.8408    2.4977 H   0  0  0  0  0  0  0  0  0  0  0  0
   -5.3778   -1.6158    2.6940 H   0  0  0  0  0  0  0  0  0  0  0  0
  -10.3176   -3.4430    1.4325 H   0  0  0  0  0  0  0  0  0  0  0  0
  -10.7394   -5.8920    2.5446 H   0  0  0  0  0  0  0  0  0  0  0  0
   -8.1949   -6.8436    3.0530 H   0  0  0  0  0  0  0  0  0  0  0  0
   -7.3690   -2.7719   -2.1248 H   0  0  0  0  0  0  0  0  0  0  0  0
   -4.4500   -2.5556   -2.0967 H   0  0  0  0  0  0  0  0  0  0  0  0
   -1.3752   -1.2422    0.4825 H   0  0  0  0  0  0  0  0  0  0  0  0
    2.9793   -2.3206   -0.1335 H   0  0  0  0  0  0  0  0  0  0  0  0
    4.2344   -1.2362   -0.7007 H   0  0  0  0  0  0  0  0  0  0  0  0
    3.2485    0.6084   -2.5496 H   0  0  0  0  0  0  0  0  0  0  0  0
    2.2683    0.5577   -4.8102 H   0  0  0  0  0  0  0  0  0  0  0  0
    1.0515   -1.4527   -5.6022 H   0  0  0  0  0  0  0  0  0  0  0  0
    0.8110   -3.4237   -4.1142 H   0  0  0  0  0  0  0  0  0  0  0  0
    1.7812   -3.3940   -1.8495 H   0  0  0  0  0  0  0  0  0  0  0  0
  1 32  1  0  0  0  0
  1 33  1  0  0  0  0
  2 25  1  0  0  0  0
  2  3  1  0  0  0  0
  2  1  1  0  0  0  0
  2 34  1  6  0  0  0
  3  4  1  0  0  0  0
  3 35  1  0  0  0  0
  3 36  1  0  0  0  0
  4  5  1  0  0  0  0
  5  6  1  0  0  0  0
  5 24  2  0  0  0  0
  6  7  2  0  0  0  0
  6 37  1  0  0  0  0
  7  8  1  0  0  0  0
  8  9  2  0  0  0  0
  8 38  1  0  0  0  0
  9 10  1  0  0  0  0
  9 24  1  0  0  0  0
 10 11  1  0  0  0  0
 10 23  2  0  0  0  0
 11 12  2  0  0  0  0
 11 39  1  0  0  0  0
 12 13  1  0  0  0  0
 12 21  1  0  0  0  0
 13 14  1  0  0  0  0
 13 19  2  0  0  0  0
 14 15  2  0  0  0  0
 14 18  1  0  0  0  0
 15 16  1  0  0  0  0
 15 40  1  0  0  0  0
 16 17  2  0  0  0  0
 16 41  1  0  0  0  0
 17 18  1  0  0  0  0
 17 42  1  0  0  0  0
 19 20  1  0  0  0  0
 20 21  1  0  0  0  0
 20 43  1  0  0  0  0
 21 22  2  0  0  0  0
 22 23  1  0  0  0  0
 22 44  1  0  0  0  0
 24 45  1  0  0  0  0
 25 26  1  0  0  0  0
 25 46  1  0  0  0  0
 25 47  1  0  0  0  0
 26 27  1  0  0  0  0
 26 31  2  0  0  0  0
 27 28  2  0  0  0  0
 27 48  1  0  0  0  0
 28 29  1  0  0  0  0
 28 49  1  0  0  0  0
 29 30  2  0  0  0  0
 29 50  1  0  0  0  0
 30 31  1  0  0  0  0
 30 51  1  0  0  0  0
 31 52  1  0  0  0  0
M  END
$$$$
