MODEL 1
REMARK VINA RESULT:    -8.079      0.000      0.000
REMARK INTER + INTRA:         -11.098
REMARK INTER:                 -10.912
REMARK INTRA:                  -0.186
REMARK UNBOUND:                -0.186
REMARK  Name = 
REMARK  8 active torsions:
REMARK  status: ('A' for Active; 'I' for Inactive)
REMARK    1  A    between atoms: C_1  and  C_2
REMARK    2  A    between atoms: C_2  and  C_3
REMARK    3  A    between atoms: C_4  and  C_5
REMARK    4  A    between atoms: C_5  and  N_6
REMARK    5  A    between atoms: N_6  and  C_7
REMARK    6  A    between atoms: N_16  and  C_17
REMARK    7  A    between atoms: C_17  and  C_18
REMARK    8  A    between atoms: C_17  and  C_19
REMARK                            x       y       z     vdW  Elec       q    Type
REMARK                         _______ _______ _______ _____ _____    ______ ____
ROOT
ATOM      1  C   UNL     1      -9.209  -9.911  17.580  0.00  0.00    +0.000 A 
ATOM      2  N   UNL     1      -9.294  -9.558  16.269  0.00  0.00    +0.000 NA
ATOM      3  C   UNL     1      -9.071  -8.283  15.908  0.00  0.00    +0.000 A 
ATOM      4  N   UNL     1      -9.157  -8.013  14.554  0.00  0.00    +0.000 N 
ATOM      5  N   UNL     1      -8.825  -7.246  16.717  0.00  0.00    +0.000 NA
ATOM      6  C   UNL     1      -8.738  -7.621  18.001  0.00  0.00    +0.000 A 
ATOM      7  C   UNL     1      -8.883  -8.903  18.506  0.00  0.00    +0.000 A 
ATOM      8  N   UNL     1      -8.720  -8.908  19.878  0.00  0.00    +0.000 NA
ATOM      9  C   UNL     1      -8.508  -7.650  20.198  0.00  0.00    +0.000 A 
ATOM     10  N   UNL     1      -8.514  -6.831  19.098  0.00  0.00    +0.000 N 
ATOM     11  H   UNL     1      -9.719  -8.723  14.107  0.00  0.00    +0.000 HD
ATOM     12  H   UNL     1      -9.429  -7.051  14.418  0.00  0.00    +0.000 HD
ATOM     13  H   UNL     1      -8.354  -7.280  21.203  0.00  0.00    +0.000 HD
ENDROOT
BRANCH   1  14
ATOM     14  N   UNL     1      -9.491 -11.219  17.989  0.00  0.00    +0.000 N 
ATOM     15  H   UNL     1     -10.036 -11.195  18.846  0.00  0.00    +0.000 HD
BRANCH  14  16
ATOM     16  C   UNL     1      -8.354 -12.110  18.043  0.00  0.00    +0.000 C 
ATOM     17  H   UNL     1      -7.454 -11.627  17.645  0.00  0.00    +0.000 HD
ATOM     18  H   UNL     1      -8.152 -12.427  19.070  0.00  0.00    +0.000 HD
BRANCH  16  20
ATOM     19  C   UNL     1      -8.511 -13.304  15.788  0.00  0.00    +0.000 C 
ATOM     20  C   UNL     1      -8.672 -13.256  17.125  0.00  0.00    +0.000 C 
ATOM     21  H   UNL     1      -9.100 -14.119  17.627  0.00  0.00    +0.000 HD
BRANCH  19  22
ATOM     22  C   UNL     1      -8.934 -14.530  15.028  0.00  0.00    +0.000 C 
ATOM     23  H   UNL     1      -9.973 -14.464  14.690  0.00  0.00    +0.000 HD
ATOM     24  H   UNL     1      -8.855 -15.421  15.661  0.00  0.00    +0.000 HD
ATOM     25  H   UNL     1      -8.307 -14.671  14.140  0.00  0.00    +0.000 HD
ENDBRANCH  19  22
BRANCH  19  26
ATOM     26  C   UNL     1      -7.943 -12.161  15.000  0.00  0.00    +0.000 C 
ATOM     27  H   UNL     1      -8.693 -11.704  14.345  0.00  0.00    +0.000 HD
ATOM     28  H   UNL     1      -7.120 -12.504  14.364  0.00  0.00    +0.000 HD
ATOM     29  H   UNL     1      -7.577 -11.376  15.670  0.00  0.00    +0.000 HD
ENDBRANCH  19  26
ENDBRANCH  16  20
ENDBRANCH  14  16
ENDBRANCH   1  14
BRANCH  10  30
ATOM     30  C   UNL     1      -8.327  -5.388  19.130  0.00  0.00    +0.000 C 
ATOM     31  H   UNL     1      -7.587  -5.162  18.350  0.00  0.00    +0.000 HD
BRANCH  30  32
ATOM     32  C   UNL     1      -9.606  -4.633  18.768  0.00  0.00    +0.000 C 
ATOM     33  H   UNL     1      -9.845  -3.857  19.503  0.00  0.00    +0.000 HD
ATOM     34  H   UNL     1     -10.459  -5.318  18.717  0.00  0.00    +0.000 HD
ATOM     35  H   UNL     1      -9.503  -4.147  17.793  0.00  0.00    +0.000 HD
ENDBRANCH  30  32
BRANCH  30  36
ATOM     36  C   UNL     1      -7.743  -4.900  20.456  0.00  0.00    +0.000 C 
ATOM     37  H   UNL     1      -8.522  -4.700  21.199  0.00  0.00    +0.000 HD
ATOM     38  H   UNL     1      -7.178  -3.973  20.308  0.00  0.00    +0.000 HD
ATOM     39  H   UNL     1      -7.059  -5.644  20.880  0.00  0.00    +0.000 HD
ENDBRANCH  30  36
ENDBRANCH  10  30
TORSDOF 8
ENDMDL
MODEL 2
REMARK VINA RESULT:    -8.051      1.631      6.162
REMARK INTER + INTRA:         -11.062
REMARK INTER:                 -10.793
REMARK INTRA:                  -0.269
REMARK UNBOUND:                -0.186
REMARK  Name = 
REMARK  8 active torsions:
REMARK  status: ('A' for Active; 'I' for Inactive)
REMARK    1  A    between atoms: C_1  and  C_2
REMARK    2  A    between atoms: C_2  and  C_3
REMARK    3  A    between atoms: C_4  and  C_5
REMARK    4  A    between atoms: C_5  and  N_6
REMARK    5  A    between atoms: N_6  and  C_7
REMARK    6  A    between atoms: N_16  and  C_17
REMARK    7  A    between atoms: C_17  and  C_18
REMARK    8  A    between atoms: C_17  and  C_19
REMARK                            x       y       z     vdW  Elec       q    Type
REMARK                         _______ _______ _______ _____ _____    ______ ____
ROOT
ATOM      1  C   UNL     1      -9.321  -7.123  18.948  0.00  0.00    +0.000 A 
ATOM      2  N   UNL     1     -10.032  -6.675  17.878  0.00  0.00    +0.000 NA
ATOM      3  C   UNL     1     -10.430  -7.544  16.934  0.00  0.00    +0.000 A 
ATOM      4  N   UNL     1     -11.166  -7.011  15.891  0.00  0.00    +0.000 N 
ATOM      5  N   UNL     1     -10.153  -8.851  16.871  0.00  0.00    +0.000 NA
ATOM      6  C   UNL     1      -9.459  -9.269  17.940  0.00  0.00    +0.000 A 
ATOM      7  C   UNL     1      -9.038  -8.499  19.012  0.00  0.00    +0.000 A 
ATOM      8  N   UNL     1      -8.355  -9.275  19.930  0.00  0.00    +0.000 NA
ATOM      9  C   UNL     1      -8.341 -10.482  19.409  0.00  0.00    +0.000 A 
ATOM     10  N   UNL     1      -8.992 -10.530  18.202  0.00  0.00    +0.000 N 
ATOM     11  H   UNL     1     -10.976  -6.021  15.820  0.00  0.00    +0.000 HD
ATOM     12  H   UNL     1     -11.031  -7.570  15.062  0.00  0.00    +0.000 HD
ATOM     13  H   UNL     1      -7.870 -11.348  19.855  0.00  0.00    +0.000 HD
ENDROOT
BRANCH   1  14
ATOM     14  N   UNL     1      -8.847  -6.231  19.916  0.00  0.00    +0.000 N 
ATOM     15  H   UNL     1      -9.608  -5.966  20.534  0.00  0.00    +0.000 HD
BRANCH  14  16
ATOM     16  C   UNL     1      -8.089  -5.109  19.407  0.00  0.00    +0.000 C 
ATOM     17  H   UNL     1      -8.316  -4.926  18.350  0.00  0.00    +0.000 HD
ATOM     18  H   UNL     1      -8.308  -4.199  19.972  0.00  0.00    +0.000 HD
BRANCH  16  20
ATOM     19  C   UNL     1      -5.699  -5.035  20.312  0.00  0.00    +0.000 C 
ATOM     20  C   UNL     1      -6.643  -5.511  19.476  0.00  0.00    +0.000 C 
ATOM     21  H   UNL     1      -6.354  -6.254  18.738  0.00  0.00    +0.000 HD
BRANCH  19  22
ATOM     22  C   UNL     1      -4.283  -5.528  20.200  0.00  0.00    +0.000 C 
ATOM     23  H   UNL     1      -4.140  -6.481  20.718  0.00  0.00    +0.000 HD
ATOM     24  H   UNL     1      -3.589  -4.808  20.648  0.00  0.00    +0.000 HD
ATOM     25  H   UNL     1      -4.008  -5.678  19.150  0.00  0.00    +0.000 HD
ENDBRANCH  19  22
BRANCH  19  26
ATOM     26  C   UNL     1      -5.992  -3.997  21.356  0.00  0.00    +0.000 C 
ATOM     27  H   UNL     1      -7.040  -4.024  21.675  0.00  0.00    +0.000 HD
ATOM     28  H   UNL     1      -5.797  -2.993  20.963  0.00  0.00    +0.000 HD
ATOM     29  H   UNL     1      -5.377  -4.161  22.246  0.00  0.00    +0.000 HD
ENDBRANCH  19  26
ENDBRANCH  16  20
ENDBRANCH  14  16
ENDBRANCH   1  14
BRANCH  10  30
ATOM     30  C   UNL     1      -9.129 -11.719  17.374  0.00  0.00    +0.000 C 
ATOM     31  H   UNL     1     -10.209 -11.876  17.247  0.00  0.00    +0.000 HD
BRANCH  30  32
ATOM     32  C   UNL     1      -8.536 -11.521  15.979  0.00  0.00    +0.000 C 
ATOM     33  H   UNL     1      -9.175 -10.896  15.347  0.00  0.00    +0.000 HD
ATOM     34  H   UNL     1      -8.407 -12.485  15.473  0.00  0.00    +0.000 HD
ATOM     35  H   UNL     1      -7.556 -11.039  16.042  0.00  0.00    +0.000 HD
ENDBRANCH  30  32
BRANCH  30  36
ATOM     36  C   UNL     1      -8.571 -12.972  18.048  0.00  0.00    +0.000 C 
ATOM     37  H   UNL     1      -7.817 -13.471  17.431  0.00  0.00    +0.000 HD
ATOM     38  H   UNL     1      -9.374 -13.694  18.240  0.00  0.00    +0.000 HD
ATOM     39  H   UNL     1      -8.106 -12.726  19.010  0.00  0.00    +0.000 HD
ENDBRANCH  30  36
ENDBRANCH  10  30
TORSDOF 8
ENDMDL
MODEL 3
REMARK VINA RESULT:    -7.872      1.666      7.142
REMARK INTER + INTRA:         -10.820
REMARK INTER:                 -10.738
REMARK INTRA:                  -0.082
REMARK UNBOUND:                -0.186
REMARK  Name = 
REMARK  8 active torsions:
REMARK  status: ('A' for Active; 'I' for Inactive)
REMARK    1  A    between atoms: C_1  and  C_2
REMARK    2  A    between atoms: C_2  and  C_3
REMARK    3  A    between atoms: C_4  and  C_5
REMARK    4  A    between atoms: C_5  and  N_6
REMARK    5  A    between atoms: N_6  and  C_7
REMARK    6  A    between atoms: N_16  and  C_17
REMARK    7  A    between atoms: C_17  and  C_18
REMARK    8  A    between atoms: C_17  and  C_19
REMARK                            x       y       z     vdW  Elec       q    Type
REMARK                         _______ _______ _______ _____ _____    ______ ____
ROOT
ATOM      1  C   UNL     1      -8.745  -6.938  19.290  0.00  0.00    +0.000 A 
ATOM      2  N   UNL     1      -8.765  -7.815  20.330  0.00  0.00    +0.000 NA
ATOM      3  C   UNL     1      -8.915  -9.128  20.091  0.00  0.00    +0.000 A 
ATOM      4  N   UNL     1      -8.903  -9.952  21.202  0.00  0.00    +0.000 N 
ATOM      5  N   UNL     1      -9.121  -9.714  18.906  0.00  0.00    +0.000 NA
ATOM      6  C   UNL     1      -9.089  -8.832  17.897  0.00  0.00    +0.000 A 
ATOM      7  C   UNL     1      -8.884  -7.465  17.992  0.00  0.00    +0.000 A 
ATOM      8  N   UNL     1      -8.909  -6.880  16.741  0.00  0.00    +0.000 NA
ATOM      9  C   UNL     1      -9.153  -7.870  15.910  0.00  0.00    +0.000 A 
ATOM     10  N   UNL     1      -9.276  -9.070  16.561  0.00  0.00    +0.000 N 
ATOM     11  H   UNL     1      -9.146  -9.412  22.021  0.00  0.00    +0.000 HD
ATOM     12  H   UNL     1      -9.448 -10.780  21.014  0.00  0.00    +0.000 HD
ATOM     13  H   UNL     1      -9.260  -7.771  14.837  0.00  0.00    +0.000 HD
ENDROOT
BRANCH   1  14
ATOM     14  N   UNL     1      -8.647  -5.561  19.515  0.00  0.00    +0.000 N 
ATOM     15  H   UNL     1      -9.005  -5.060  18.708  0.00  0.00    +0.000 HD
BRANCH  14  16
ATOM     16  C   UNL     1      -7.353  -5.098  19.965  0.00  0.00    +0.000 C 
ATOM     17  H   UNL     1      -6.816  -5.888  20.503  0.00  0.00    +0.000 HD
ATOM     18  H   UNL     1      -6.738  -4.773  19.121  0.00  0.00    +0.000 HD
BRANCH  16  20
ATOM     19  C   UNL     1      -6.714  -3.324  21.691  0.00  0.00    +0.000 C 
ATOM     20  C   UNL     1      -7.618  -4.001  20.956  0.00  0.00    +0.000 C 
ATOM     21  H   UNL     1      -8.671  -3.769  21.088  0.00  0.00    +0.000 HD
BRANCH  19  22
ATOM     22  C   UNL     1      -7.176  -2.285  22.674  0.00  0.00    +0.000 C 
ATOM     23  H   UNL     1      -6.421  -1.507  22.831  0.00  0.00    +0.000 HD
ATOM     24  H   UNL     1      -7.380  -2.741  23.648  0.00  0.00    +0.000 HD
ATOM     25  H   UNL     1      -8.087  -1.792  22.316  0.00  0.00    +0.000 HD
ENDBRANCH  19  22
BRANCH  19  26
ATOM     26  C   UNL     1      -5.238  -3.580  21.594  0.00  0.00    +0.000 C 
ATOM     27  H   UNL     1      -5.004  -4.340  20.840  0.00  0.00    +0.000 HD
ATOM     28  H   UNL     1      -4.848  -3.941  22.552  0.00  0.00    +0.000 HD
ATOM     29  H   UNL     1      -4.706  -2.666  21.310  0.00  0.00    +0.000 HD
ENDBRANCH  19  26
ENDBRANCH  16  20
ENDBRANCH  14  16
ENDBRANCH   1  14
BRANCH  10  30
ATOM     30  C   UNL     1      -9.565 -10.343  15.918  0.00  0.00    +0.000 C 
ATOM     31  H   UNL     1     -10.555 -10.649  16.283  0.00  0.00    +0.000 HD
BRANCH  30  32
ATOM     32  C   UNL     1      -9.668 -10.212  14.398  0.00  0.00    +0.000 C 
ATOM     33  H   UNL     1      -9.648 -11.187  13.901  0.00  0.00    +0.000 HD
ATOM     34  H   UNL     1      -8.834  -9.619  14.004  0.00  0.00    +0.000 HD
ATOM     35  H   UNL     1     -10.600  -9.713  14.117  0.00  0.00    +0.000 HD
ENDBRANCH  30  32
BRANCH  30  36
ATOM     36  C   UNL     1      -8.581 -11.442  16.321  0.00  0.00    +0.000 C 
ATOM     37  H   UNL     1      -8.295 -12.070  15.471  0.00  0.00    +0.000 HD
ATOM     38  H   UNL     1      -9.025 -12.094  17.082  0.00  0.00    +0.000 HD
ATOM     39  H   UNL     1      -7.665 -11.013  16.743  0.00  0.00    +0.000 HD
ENDBRANCH  30  36
ENDBRANCH  10  30
TORSDOF 8
ENDMDL
MODEL 4
REMARK VINA RESULT:    -7.744      1.119      2.801
REMARK INTER + INTRA:         -10.647
REMARK INTER:                 -10.350
REMARK INTRA:                  -0.296
REMARK UNBOUND:                -0.186
REMARK  Name = 
REMARK  8 active torsions:
REMARK  status: ('A' for Active; 'I' for Inactive)
REMARK    1  A    between atoms: C_1  and  C_2
REMARK    2  A    between atoms: C_2  and  C_3
REMARK    3  A    between atoms: C_4  and  C_5
REMARK    4  A    between atoms: C_5  and  N_6
REMARK    5  A    between atoms: N_6  and  C_7
REMARK    6  A    between atoms: N_16  and  C_17
REMARK    7  A    between atoms: C_17  and  C_18
REMARK    8  A    between atoms: C_17  and  C_19
REMARK                            x       y       z     vdW  Elec       q    Type
REMARK                         _______ _______ _______ _____ _____    ______ ____
ROOT
ATOM      1  C   UNL     1      -9.407  -9.397  17.505  0.00  0.00    +0.000 A 
ATOM      2  N   UNL     1      -9.099 -10.052  18.658  0.00  0.00    +0.000 NA
ATOM      3  C   UNL     1      -8.823  -9.349  19.769  0.00  0.00    +0.000 A 
ATOM      4  N   UNL     1      -8.541 -10.092  20.901  0.00  0.00    +0.000 N 
ATOM      5  N   UNL     1      -8.745  -8.019  19.883  0.00  0.00    +0.000 NA
ATOM      6  C   UNL     1      -9.060  -7.396  18.738  0.00  0.00    +0.000 A 
ATOM      7  C   UNL     1      -9.421  -7.991  17.540  0.00  0.00    +0.000 A 
ATOM      8  N   UNL     1      -9.682  -7.032  16.580  0.00  0.00    +0.000 NA
ATOM      9  C   UNL     1      -9.455  -5.883  17.179  0.00  0.00    +0.000 A 
ATOM     10  N   UNL     1      -9.070  -6.050  18.485  0.00  0.00    +0.000 N 
ATOM     11  H   UNL     1      -8.237 -11.016  20.627  0.00  0.00    +0.000 HD
ATOM     12  H   UNL     1      -7.933  -9.563  21.509  0.00  0.00    +0.000 HD
ATOM     13  H   UNL     1      -9.544  -4.910  16.714  0.00  0.00    +0.000 HD
ENDROOT
BRANCH   1  14
ATOM     14  N   UNL     1      -9.643 -10.104  16.321  0.00  0.00    +0.000 N 
ATOM     15  H   UNL     1     -10.251 -10.895  16.515  0.00  0.00    +0.000 HD
BRANCH  14  16
ATOM     16  C   UNL     1      -8.464 -10.445  15.557  0.00  0.00    +0.000 C 
ATOM     17  H   UNL     1      -8.343  -9.774  14.698  0.00  0.00    +0.000 HD
ATOM     18  H   UNL     1      -7.565 -10.383  16.175  0.00  0.00    +0.000 HD
BRANCH  16  20
ATOM     19  C   UNL     1      -8.639 -12.993  15.663  0.00  0.00    +0.000 C 
ATOM     20  C   UNL     1      -8.704 -11.820  15.002  0.00  0.00    +0.000 C 
ATOM     21  H   UNL     1      -8.931 -11.836  13.940  0.00  0.00    +0.000 HD
BRANCH  19  22
ATOM     22  C   UNL     1      -8.866 -14.282  14.924  0.00  0.00    +0.000 C 
ATOM     23  H   UNL     1      -9.370 -15.027  15.547  0.00  0.00    +0.000 HD
ATOM     24  H   UNL     1      -7.911 -14.717  14.608  0.00  0.00    +0.000 HD
ATOM     25  H   UNL     1      -9.489 -14.115  14.038  0.00  0.00    +0.000 HD
ENDBRANCH  19  22
BRANCH  19  26
ATOM     26  C   UNL     1      -8.317 -13.080  17.127  0.00  0.00    +0.000 C 
ATOM     27  H   UNL     1      -9.156 -12.747  17.749  0.00  0.00    +0.000 HD
ATOM     28  H   UNL     1      -7.459 -12.445  17.370  0.00  0.00    +0.000 HD
ATOM     29  H   UNL     1      -8.093 -14.113  17.411  0.00  0.00    +0.000 HD
ENDBRANCH  19  26
ENDBRANCH  16  20
ENDBRANCH  14  16
ENDBRANCH   1  14
BRANCH  10  30
ATOM     30  C   UNL     1      -8.731  -4.971  19.400  0.00  0.00    +0.000 C 
ATOM     31  H   UNL     1      -9.220  -5.217  20.352  0.00  0.00    +0.000 HD
BRANCH  30  32
ATOM     32  C   UNL     1      -7.229  -4.896  19.672  0.00  0.00    +0.000 C 
ATOM     33  H   UNL     1      -6.979  -4.093  20.372  0.00  0.00    +0.000 HD
ATOM     34  H   UNL     1      -6.676  -4.714  18.744  0.00  0.00    +0.000 HD
ATOM     35  H   UNL     1      -6.868  -5.836  20.101  0.00  0.00    +0.000 HD
ENDBRANCH  30  32
BRANCH  30  36
ATOM     36  C   UNL     1      -9.287  -3.620  18.948  0.00  0.00    +0.000 C 
ATOM     37  H   UNL     1      -8.608  -2.795  19.185  0.00  0.00    +0.000 HD
ATOM     38  H   UNL     1     -10.245  -3.416  19.441  0.00  0.00    +0.000 HD
ATOM     39  H   UNL     1      -9.460  -3.610  17.865  0.00  0.00    +0.000 HD
ENDBRANCH  30  36
ENDBRANCH  10  30
TORSDOF 8
ENDMDL
MODEL 5
REMARK VINA RESULT:    -7.674      1.342      1.987
REMARK INTER + INTRA:         -10.551
REMARK INTER:                 -10.137
REMARK INTRA:                  -0.415
REMARK UNBOUND:                -0.186
REMARK  Name = 
REMARK  8 active torsions:
REMARK  status: ('A' for Active; 'I' for Inactive)
REMARK    1  A    between atoms: C_1  and  C_2
REMARK    2  A    between atoms: C_2  and  C_3
REMARK    3  A    between atoms: C_4  and  C_5
REMARK    4  A    between atoms: C_5  and  N_6
REMARK    5  A    between atoms: N_6  and  C_7
REMARK    6  A    between atoms: N_16  and  C_17
REMARK    7  A    between atoms: C_17  and  C_18
REMARK    8  A    between atoms: C_17  and  C_19
REMARK                            x       y       z     vdW  Elec       q    Type
REMARK                         _______ _______ _______ _____ _____    ______ ____
ROOT
ATOM      1  C   UNL     1      -9.838  -8.274  16.887  0.00  0.00    +0.000 A 
ATOM      2  N   UNL     1      -9.828  -7.466  15.792  0.00  0.00    +0.000 NA
ATOM      3  C   UNL     1      -9.128  -6.320  15.817  0.00  0.00    +0.000 A 
ATOM      4  N   UNL     1      -9.154  -5.568  14.657  0.00  0.00    +0.000 N 
ATOM      5  N   UNL     1      -8.454  -5.808  16.854  0.00  0.00    +0.000 NA
ATOM      6  C   UNL     1      -8.471  -6.625  17.917  0.00  0.00    +0.000 A 
ATOM      7  C   UNL     1      -9.098  -7.858  18.009  0.00  0.00    +0.000 A 
ATOM      8  N   UNL     1      -8.893  -8.416  19.257  0.00  0.00    +0.000 NA
ATOM      9  C   UNL     1      -8.182  -7.525  19.913  0.00  0.00    +0.000 A 
ATOM     10  N   UNL     1      -7.905  -6.421  19.148  0.00  0.00    +0.000 N 
ATOM     11  H   UNL     1      -9.972  -5.815  14.117  0.00  0.00    +0.000 HD
ATOM     12  H   UNL     1      -9.023  -4.593  14.882  0.00  0.00    +0.000 HD
ATOM     13  H   UNL     1      -7.851  -7.625  20.939  0.00  0.00    +0.000 HD
ENDROOT
BRANCH   1  14
ATOM     14  N   UNL     1     -10.603  -9.445  16.906  0.00  0.00    +0.000 N 
ATOM     15  H   UNL     1     -10.917  -9.628  17.855  0.00  0.00    +0.000 HD
BRANCH  14  16
ATOM     16  C   UNL     1     -10.002 -10.589  16.258  0.00  0.00    +0.000 C 
ATOM     17  H   UNL     1     -10.760 -11.201  15.756  0.00  0.00    +0.000 HD
ATOM     18  H   UNL     1      -9.262 -10.276  15.517  0.00  0.00    +0.000 HD
BRANCH  16  20
ATOM     19  C   UNL     1      -8.634 -12.524  17.217  0.00  0.00    +0.000 C 
ATOM     20  C   UNL     1      -9.416 -11.435  17.353  0.00  0.00    +0.000 C 
ATOM     21  H   UNL     1      -9.695 -11.119  18.354  0.00  0.00    +0.000 HD
BRANCH  19  22
ATOM     22  C   UNL     1      -8.179 -13.274  18.438  0.00  0.00    +0.000 C 
ATOM     23  H   UNL     1      -7.689 -12.617  19.163  0.00  0.00    +0.000 HD
ATOM     24  H   UNL     1      -7.457 -14.052  18.164  0.00  0.00    +0.000 HD
ATOM     25  H   UNL     1      -9.031 -13.745  18.942  0.00  0.00    +0.000 HD
ENDBRANCH  19  22
BRANCH  19  26
ATOM     26  C   UNL     1      -8.205 -13.050  15.879  0.00  0.00    +0.000 C 
ATOM     27  H   UNL     1      -7.116 -13.155  15.811  0.00  0.00    +0.000 HD
ATOM     28  H   UNL     1      -8.518 -12.369  15.080  0.00  0.00    +0.000 HD
ATOM     29  H   UNL     1      -8.638 -14.040  15.698  0.00  0.00    +0.000 HD
ENDBRANCH  19  26
ENDBRANCH  16  20
ENDBRANCH  14  16
ENDBRANCH   1  14
BRANCH  10  30
ATOM     30  C   UNL     1      -7.155  -5.259  19.598  0.00  0.00    +0.000 C 
ATOM     31  H   UNL     1      -7.271  -4.501  18.812  0.00  0.00    +0.000 HD
BRANCH  30  32
ATOM     32  C   UNL     1      -7.729  -4.665  20.884  0.00  0.00    +0.000 C 
ATOM     33  H   UNL     1      -7.763  -5.400  21.695  0.00  0.00    +0.000 HD
ATOM     34  H   UNL     1      -8.749  -4.301  20.721  0.00  0.00    +0.000 HD
ATOM     35  H   UNL     1      -7.119  -3.822  21.225  0.00  0.00    +0.000 HD
ENDBRANCH  30  32
BRANCH  30  36
ATOM     36  C   UNL     1      -5.658  -5.541  19.730  0.00  0.00    +0.000 C 
ATOM     37  H   UNL     1      -5.157  -5.566  18.757  0.00  0.00    +0.000 HD
ATOM     38  H   UNL     1      -5.492  -6.510  20.215  0.00  0.00    +0.000 HD
ATOM     39  H   UNL     1      -5.166  -4.774  20.340  0.00  0.00    +0.000 HD
ENDBRANCH  30  36
ENDBRANCH  10  30
TORSDOF 8
ENDMDL
MODEL 6
REMARK VINA RESULT:    -7.519      1.785      6.866
REMARK INTER + INTRA:         -10.342
REMARK INTER:                 -10.227
REMARK INTRA:                  -0.115
REMARK UNBOUND:                -0.186
REMARK  Name = 
REMARK  8 active torsions:
REMARK  status: ('A' for Active; 'I' for Inactive)
REMARK    1  A    between atoms: C_1  and  C_2
REMARK    2  A    between atoms: C_2  and  C_3
REMARK    3  A    between atoms: C_4  and  C_5
REMARK    4  A    between atoms: C_5  and  N_6
REMARK    5  A    between atoms: N_6  and  C_7
REMARK    6  A    between atoms: N_16  and  C_17
REMARK    7  A    between atoms: C_17  and  C_18
REMARK    8  A    between atoms: C_17  and  C_19
REMARK                            x       y       z     vdW  Elec       q    Type
REMARK                         _______ _______ _______ _____ _____    ______ ____
ROOT
ATOM      1  C   UNL     1      -9.145  -6.016  18.606  0.00  0.00    +0.000 A 
ATOM      2  N   UNL     1      -9.280  -5.623  17.310  0.00  0.00    +0.000 NA
ATOM      3  C   UNL     1      -9.302  -6.545  16.334  0.00  0.00    +0.000 A 
ATOM      4  N   UNL     1      -9.464  -6.063  15.048  0.00  0.00    +0.000 N 
ATOM      5  N   UNL     1      -9.137  -7.866  16.468  0.00  0.00    +0.000 NA
ATOM      6  C   UNL     1      -9.014  -8.230  17.753  0.00  0.00    +0.000 A 
ATOM      7  C   UNL     1      -9.035  -7.396  18.859  0.00  0.00    +0.000 A 
ATOM      8  N   UNL     1      -8.887  -8.126  20.023  0.00  0.00    +0.000 NA
ATOM      9  C   UNL     1      -8.751  -9.373  19.624  0.00  0.00    +0.000 A 
ATOM     10  N   UNL     1      -8.815  -9.487  18.259  0.00  0.00    +0.000 N 
ATOM     11  H   UNL     1      -9.179  -5.094  15.016  0.00  0.00    +0.000 HD
ATOM     12  H   UNL     1      -9.031  -6.697  14.392  0.00  0.00    +0.000 HD
ATOM     13  H   UNL     1      -8.595 -10.222  20.277  0.00  0.00    +0.000 HD
ENDROOT
BRANCH   1  14
ATOM     14  N   UNL     1      -9.063  -5.073  19.636  0.00  0.00    +0.000 N 
ATOM     15  H   UNL     1      -9.577  -4.237  19.370  0.00  0.00    +0.000 HD
BRANCH  14  16
ATOM     16  C   UNL     1      -7.730  -4.808  20.130  0.00  0.00    +0.000 C 
ATOM     17  H   UNL     1      -7.349  -5.655  20.712  0.00  0.00    +0.000 HD
ATOM     18  H   UNL     1      -7.037  -4.615  19.306  0.00  0.00    +0.000 HD
BRANCH  16  20
ATOM     19  C   UNL     1      -6.874  -3.081  21.808  0.00  0.00    +0.000 C 
ATOM     20  C   UNL     1      -7.853  -3.650  21.078  0.00  0.00    +0.000 C 
ATOM     21  H   UNL     1      -8.865  -3.268  21.181  0.00  0.00    +0.000 HD
BRANCH  19  22
ATOM     22  C   UNL     1      -7.200  -1.952  22.746  0.00  0.00    +0.000 C 
ATOM     23  H   UNL     1      -6.305  -1.554  23.234  0.00  0.00    +0.000 HD
ATOM     24  H   UNL     1      -7.876  -2.293  23.537  0.00  0.00    +0.000 HD
ATOM     25  H   UNL     1      -7.676  -1.125  22.206  0.00  0.00    +0.000 HD
ENDBRANCH  19  22
BRANCH  19  26
ATOM     26  C   UNL     1      -5.447  -3.544  21.749  0.00  0.00    +0.000 C 
ATOM     27  H   UNL     1      -4.756  -2.783  22.127  0.00  0.00    +0.000 HD
ATOM     28  H   UNL     1      -5.158  -3.764  20.716  0.00  0.00    +0.000 HD
ATOM     29  H   UNL     1      -5.309  -4.441  22.361  0.00  0.00    +0.000 HD
ENDBRANCH  19  26
ENDBRANCH  16  20
ENDBRANCH  14  16
ENDBRANCH   1  14
BRANCH  10  30
ATOM     30  C   UNL     1      -8.680 -10.732  17.518  0.00  0.00    +0.000 C 
ATOM     31  H   UNL     1      -7.802 -10.604  16.870  0.00  0.00    +0.000 HD
BRANCH  30  32
ATOM     32  C   UNL     1      -8.392 -11.920  18.435  0.00  0.00    +0.000 C 
ATOM     33  H   UNL     1      -7.699 -12.633  17.976  0.00  0.00    +0.000 HD
ATOM     34  H   UNL     1      -9.316 -12.459  18.672  0.00  0.00    +0.000 HD
ATOM     35  H   UNL     1      -7.947 -11.582  19.376  0.00  0.00    +0.000 HD
ENDBRANCH  30  32
BRANCH  30  36
ATOM     36  C   UNL     1      -9.875 -11.005  16.605  0.00  0.00    +0.000 C 
ATOM     37  H   UNL     1     -10.691 -10.295  16.772  0.00  0.00    +0.000 HD
ATOM     38  H   UNL     1     -10.269 -12.013  16.780  0.00  0.00    +0.000 HD
ATOM     39  H   UNL     1      -9.586 -10.938  15.549  0.00  0.00    +0.000 HD
ENDBRANCH  30  36
ENDBRANCH  10  30
TORSDOF 8
ENDMDL
MODEL 7
REMARK VINA RESULT:    -7.433      2.017      3.726
REMARK INTER + INTRA:         -10.226
REMARK INTER:                  -9.825
REMARK INTRA:                  -0.401
REMARK UNBOUND:                -0.186
REMARK  Name = 
REMARK  8 active torsions:
REMARK  status: ('A' for Active; 'I' for Inactive)
REMARK    1  A    between atoms: C_1  and  C_2
REMARK    2  A    between atoms: C_2  and  C_3
REMARK    3  A    between atoms: C_4  and  C_5
REMARK    4  A    between atoms: C_5  and  N_6
REMARK    5  A    between atoms: N_6  and  C_7
REMARK    6  A    between atoms: N_16  and  C_17
REMARK    7  A    between atoms: C_17  and  C_18
REMARK    8  A    between atoms: C_17  and  C_19
REMARK                            x       y       z     vdW  Elec       q    Type
REMARK                         _______ _______ _______ _____ _____    ______ ____
ROOT
ATOM      1  C   UNL     1      -9.223  -7.734  19.554  0.00  0.00    +0.000 A 
ATOM      2  N   UNL     1      -8.177  -7.049  20.093  0.00  0.00    +0.000 NA
ATOM      3  C   UNL     1      -7.944  -5.783  19.710  0.00  0.00    +0.000 A 
ATOM      4  N   UNL     1      -6.876  -5.152  20.320  0.00  0.00    +0.000 N 
ATOM      5  N   UNL     1      -8.601  -5.089  18.773  0.00  0.00    +0.000 NA
ATOM      6  C   UNL     1      -9.630  -5.782  18.264  0.00  0.00    +0.000 A 
ATOM      7  C   UNL     1     -10.021  -7.066  18.608  0.00  0.00    +0.000 A 
ATOM      8  N   UNL     1     -11.130  -7.449  17.879  0.00  0.00    +0.000 NA
ATOM      9  C   UNL     1     -11.387  -6.427  17.091  0.00  0.00    +0.000 A 
ATOM     10  N   UNL     1     -10.504  -5.396  17.282  0.00  0.00    +0.000 N 
ATOM     11  H   UNL     1      -6.236  -5.849  20.677  0.00  0.00    +0.000 HD
ATOM     12  H   UNL     1      -6.500  -4.449  19.702  0.00  0.00    +0.000 HD
ATOM     13  H   UNL     1     -12.187  -6.387  16.364  0.00  0.00    +0.000 HD
ENDROOT
BRANCH   1  14
ATOM     14  N   UNL     1      -9.453  -9.072  19.894  0.00  0.00    +0.000 N 
ATOM     15  H   UNL     1      -9.644  -9.139  20.890  0.00  0.00    +0.000 HD
BRANCH  14  16
ATOM     16  C   UNL     1      -8.461 -10.011  19.422  0.00  0.00    +0.000 C 
ATOM     17  H   UNL     1      -7.459  -9.564  19.429  0.00  0.00    +0.000 HD
ATOM     18  H   UNL     1      -8.444 -10.910  20.045  0.00  0.00    +0.000 HD
BRANCH  16  20
ATOM     19  C   UNL     1      -8.812 -11.496  17.371  0.00  0.00    +0.000 C 
ATOM     20  C   UNL     1      -8.799 -10.297  17.987  0.00  0.00    +0.000 C 
ATOM     21  H   UNL     1      -9.030  -9.412  17.402  0.00  0.00    +0.000 HD
BRANCH  19  22
ATOM     22  C   UNL     1      -9.132 -11.580  15.905  0.00  0.00    +0.000 C 
ATOM     23  H   UNL     1      -8.231 -11.715  15.297  0.00  0.00    +0.000 HD
ATOM     24  H   UNL     1      -9.617 -10.658  15.564  0.00  0.00    +0.000 HD
ATOM     25  H   UNL     1      -9.797 -12.426  15.701  0.00  0.00    +0.000 HD
ENDBRANCH  19  22
BRANCH  19  26
ATOM     26  C   UNL     1      -8.492 -12.776  18.086  0.00  0.00    +0.000 C 
ATOM     27  H   UNL     1      -9.272 -13.531  17.940  0.00  0.00    +0.000 HD
ATOM     28  H   UNL     1      -8.403 -12.602  19.164  0.00  0.00    +0.000 HD
ATOM     29  H   UNL     1      -7.555 -13.202  17.712  0.00  0.00    +0.000 HD
ENDBRANCH  19  26
ENDBRANCH  16  20
ENDBRANCH  14  16
ENDBRANCH   1  14
BRANCH  10  30
ATOM     30  C   UNL     1     -10.516  -4.139  16.547  0.00  0.00    +0.000 C 
ATOM     31  H   UNL     1      -9.497  -3.735  16.623  0.00  0.00    +0.000 HD
BRANCH  30  32
ATOM     32  C   UNL     1     -10.811  -4.343  15.062  0.00  0.00    +0.000 C 
ATOM     33  H   UNL     1     -10.815  -3.397  14.512  0.00  0.00    +0.000 HD
ATOM     34  H   UNL     1     -11.790  -4.815  14.922  0.00  0.00    +0.000 HD
ATOM     35  H   UNL     1     -10.056  -4.990  14.604  0.00  0.00    +0.000 HD
ENDBRANCH  30  32
BRANCH  30  36
ATOM     36  C   UNL     1     -11.454  -3.104  17.169  0.00  0.00    +0.000 C 
ATOM     37  H   UNL     1     -12.013  -2.548  16.410  0.00  0.00    +0.000 HD
ATOM     38  H   UNL     1     -10.885  -2.379  17.762  0.00  0.00    +0.000 HD
ATOM     39  H   UNL     1     -12.181  -3.584  17.835  0.00  0.00    +0.000 HD
ENDBRANCH  30  36
ENDBRANCH  10  30
TORSDOF 8
ENDMDL
MODEL 8
REMARK VINA RESULT:    -7.365      2.052      3.699
REMARK INTER + INTRA:         -10.134
REMARK INTER:                  -9.652
REMARK INTRA:                  -0.482
REMARK UNBOUND:                -0.186
REMARK  Name = 
REMARK  8 active torsions:
REMARK  status: ('A' for Active; 'I' for Inactive)
REMARK    1  A    between atoms: C_1  and  C_2
REMARK    2  A    between atoms: C_2  and  C_3
REMARK    3  A    between atoms: C_4  and  C_5
REMARK    4  A    between atoms: C_5  and  N_6
REMARK    5  A    between atoms: N_6  and  C_7
REMARK    6  A    between atoms: N_16  and  C_17
REMARK    7  A    between atoms: C_17  and  C_18
REMARK    8  A    between atoms: C_17  and  C_19
REMARK                            x       y       z     vdW  Elec       q    Type
REMARK                         _______ _______ _______ _____ _____    ______ ____
ROOT
ATOM      1  C   UNL     1      -9.518  -7.462  16.662  0.00  0.00    +0.000 A 
ATOM      2  N   UNL     1      -8.851  -7.820  17.793  0.00  0.00    +0.000 NA
ATOM      3  C   UNL     1      -8.733  -6.942  18.802  0.00  0.00    +0.000 A 
ATOM      4  N   UNL     1      -8.059  -7.392  19.922  0.00  0.00    +0.000 N 
ATOM      5  N   UNL     1      -9.153  -5.671  18.819  0.00  0.00    +0.000 NA
ATOM      6  C   UNL     1      -9.813  -5.345  17.699  0.00  0.00    +0.000 A 
ATOM      7  C   UNL     1     -10.061  -6.165  16.610  0.00  0.00    +0.000 A 
ATOM      8  N   UNL     1     -10.778  -5.487  15.642  0.00  0.00    +0.000 NA
ATOM      9  C   UNL     1     -10.935  -4.274  16.126  0.00  0.00    +0.000 A 
ATOM     10  N   UNL     1     -10.364  -4.136  17.365  0.00  0.00    +0.000 N 
ATOM     11  H   UNL     1      -7.461  -8.165  19.664  0.00  0.00    +0.000 HD
ATOM     12  H   UNL     1      -7.630  -6.611  20.396  0.00  0.00    +0.000 HD
ATOM     13  H   UNL     1     -11.441  -3.463  15.619  0.00  0.00    +0.000 HD
ENDROOT
BRANCH   1  14
ATOM     14  N   UNL     1      -9.607  -8.339  15.575  0.00  0.00    +0.000 N 
ATOM     15  H   UNL     1      -9.858  -7.817  14.740  0.00  0.00    +0.000 HD
BRANCH  14  16
ATOM     16  C   UNL     1     -10.415  -9.518  15.794  0.00  0.00    +0.000 C 
ATOM     17  H   UNL     1     -10.605  -9.673  16.862  0.00  0.00    +0.000 HD
ATOM     18  H   UNL     1     -11.377  -9.435  15.279  0.00  0.00    +0.000 HD
BRANCH  16  20
ATOM     19  C   UNL     1      -8.922 -11.572  16.084  0.00  0.00    +0.000 C 
ATOM     20  C   UNL     1      -9.595 -10.685  15.324  0.00  0.00    +0.000 C 
ATOM     21  H   UNL     1      -9.540 -10.782  14.244  0.00  0.00    +0.000 HD
BRANCH  19  22
ATOM     22  C   UNL     1      -8.111 -12.654  15.428  0.00  0.00    +0.000 C 
ATOM     23  H   UNL     1      -8.713 -13.256  14.740  0.00  0.00    +0.000 HD
ATOM     24  H   UNL     1      -7.699 -13.336  16.181  0.00  0.00    +0.000 HD
ATOM     25  H   UNL     1      -7.284 -12.223  14.852  0.00  0.00    +0.000 HD
ENDBRANCH  19  22
BRANCH  19  26
ATOM     26  C   UNL     1      -8.921 -11.516  17.584  0.00  0.00    +0.000 C 
ATOM     27  H   UNL     1      -8.300 -10.695  17.961  0.00  0.00    +0.000 HD
ATOM     28  H   UNL     1      -8.521 -12.446  18.002  0.00  0.00    +0.000 HD
ATOM     29  H   UNL     1      -9.935 -11.357  17.964  0.00  0.00    +0.000 HD
ENDBRANCH  19  26
ENDBRANCH  16  20
ENDBRANCH  14  16
ENDBRANCH   1  14
BRANCH  10  30
ATOM     30  C   UNL     1     -10.354  -2.909  18.148  0.00  0.00    +0.000 C 
ATOM     31  H   UNL     1      -9.429  -2.935  18.739  0.00  0.00    +0.000 HD
BRANCH  30  32
ATOM     32  C   UNL     1     -10.290  -1.663  17.266  0.00  0.00    +0.000 C 
ATOM     33  H   UNL     1      -9.536  -0.952  17.616  0.00  0.00    +0.000 HD
ATOM     34  H   UNL     1     -11.257  -1.146  17.256  0.00  0.00    +0.000 HD
ATOM     35  H   UNL     1     -10.041  -1.933  16.235  0.00  0.00    +0.000 HD
ENDBRANCH  30  32
BRANCH  30  36
ATOM     36  C   UNL     1     -11.516  -2.836  19.140  0.00  0.00    +0.000 C 
ATOM     37  H   UNL     1     -11.558  -3.715  19.790  0.00  0.00    +0.000 HD
ATOM     38  H   UNL     1     -12.472  -2.771  18.606  0.00  0.00    +0.000 HD
ATOM     39  H   UNL     1     -11.430  -1.950  19.780  0.00  0.00    +0.000 HD
ENDBRANCH  30  36
ENDBRANCH  10  30
TORSDOF 8
ENDMDL
MODEL 9
REMARK VINA RESULT:    -7.335      2.705      6.664
REMARK INTER + INTRA:         -10.094
REMARK INTER:                  -9.741
REMARK INTRA:                  -0.353
REMARK UNBOUND:                -0.186
REMARK  Name = 
REMARK  8 active torsions:
REMARK  status: ('A' for Active; 'I' for Inactive)
REMARK    1  A    between atoms: C_1  and  C_2
REMARK    2  A    between atoms: C_2  and  C_3
REMARK    3  A    between atoms: C_4  and  C_5
REMARK    4  A    between atoms: C_5  and  N_6
REMARK    5  A    between atoms: N_6  and  C_7
REMARK    6  A    between atoms: N_16  and  C_17
REMARK    7  A    between atoms: C_17  and  C_18
REMARK    8  A    between atoms: C_17  and  C_19
REMARK                            x       y       z     vdW  Elec       q    Type
REMARK                         _______ _______ _______ _____ _____    ______ ____
ROOT
ATOM      1  C   UNL     1     -10.866  -7.108  17.615  0.00  0.00    +0.000 A 
ATOM      2  N   UNL     1     -10.176  -6.854  18.760  0.00  0.00    +0.000 NA
ATOM      3  C   UNL     1      -9.198  -7.691  19.146  0.00  0.00    +0.000 A 
ATOM      4  N   UNL     1      -8.532  -7.349  20.308  0.00  0.00    +0.000 N 
ATOM      5  N   UNL     1      -8.835  -8.835  18.556  0.00  0.00    +0.000 NA
ATOM      6  C   UNL     1      -9.524  -9.059  17.427  0.00  0.00    +0.000 A 
ATOM      7  C   UNL     1     -10.511  -8.255  16.881  0.00  0.00    +0.000 A 
ATOM      8  N   UNL     1     -10.991  -8.802  15.707  0.00  0.00    +0.000 NA
ATOM      9  C   UNL     1     -10.326  -9.928  15.562  0.00  0.00    +0.000 A 
ATOM     10  N   UNL     1      -9.430 -10.131  16.580  0.00  0.00    +0.000 N 
ATOM     11  H   UNL     1      -9.118  -6.739  20.862  0.00  0.00    +0.000 HD
ATOM     12  H   UNL     1      -8.178  -8.183  20.753  0.00  0.00    +0.000 HD
ATOM     13  H   UNL     1     -10.461 -10.630  14.749  0.00  0.00    +0.000 HD
ENDROOT
BRANCH   1  14
ATOM     14  N   UNL     1     -11.926  -6.284  17.221  0.00  0.00    +0.000 N 
ATOM     15  H   UNL     1     -12.462  -6.748  16.493  0.00  0.00    +0.000 HD
BRANCH  14  16
ATOM     16  C   UNL     1     -11.565  -4.920  16.902  0.00  0.00    +0.000 C 
ATOM     17  H   UNL     1     -12.353  -4.222  17.207  0.00  0.00    +0.000 HD
ATOM     18  H   UNL     1     -10.635  -4.634  17.401  0.00  0.00    +0.000 HD
BRANCH  16  20
ATOM     19  C   UNL     1     -11.569  -3.746  14.632  0.00  0.00    +0.000 C 
ATOM     20  C   UNL     1     -11.477  -4.846  15.404  0.00  0.00    +0.000 C 
ATOM     21  H   UNL     1     -11.347  -5.810  14.920  0.00  0.00    +0.000 HD
BRANCH  19  22
ATOM     22  C   UNL     1     -11.503  -3.876  13.135  0.00  0.00    +0.000 C 
ATOM     23  H   UNL     1     -11.731  -4.893  12.803  0.00  0.00    +0.000 HD
ATOM     24  H   UNL     1     -10.499  -3.633  12.772  0.00  0.00    +0.000 HD
ATOM     25  H   UNL     1     -12.225  -3.204  12.657  0.00  0.00    +0.000 HD
ENDBRANCH  19  22
BRANCH  19  26
ATOM     26  C   UNL     1     -11.764  -2.371  15.201  0.00  0.00    +0.000 C 
ATOM     27  H   UNL     1     -12.086  -2.405  16.248  0.00  0.00    +0.000 HD
ATOM     28  H   UNL     1     -12.532  -1.829  14.640  0.00  0.00    +0.000 HD
ATOM     29  H   UNL     1     -10.827  -1.805  15.169  0.00  0.00    +0.000 HD
ENDBRANCH  19  26
ENDBRANCH  16  20
ENDBRANCH  14  16
ENDBRANCH   1  14
BRANCH  10  30
ATOM     30  C   UNL     1      -8.564 -11.293  16.710  0.00  0.00    +0.000 C 
ATOM     31  H   UNL     1      -7.565 -10.901  16.943  0.00  0.00    +0.000 HD
BRANCH  30  32
ATOM     32  C   UNL     1      -8.977 -12.194  17.874  0.00  0.00    +0.000 C 
ATOM     33  H   UNL     1      -9.381 -13.150  17.528  0.00  0.00    +0.000 HD
ATOM     34  H   UNL     1      -9.745 -11.707  18.485  0.00  0.00    +0.000 HD
ATOM     35  H   UNL     1      -8.118 -12.408  18.518  0.00  0.00    +0.000 HD
ENDBRANCH  30  32
BRANCH  30  36
ATOM     36  C   UNL     1      -8.440 -12.083  15.406  0.00  0.00    +0.000 C 
ATOM     37  H   UNL     1      -8.146 -13.122  15.581  0.00  0.00    +0.000 HD
ATOM     38  H   UNL     1      -7.686 -11.628  14.753  0.00  0.00    +0.000 HD
ATOM     39  H   UNL     1      -9.392 -12.092  14.861  0.00  0.00    +0.000 HD
ENDBRANCH  30  36
ENDBRANCH  10  30
TORSDOF 8
ENDMDL
