
 OpenBabel01112422273D

 61 64  0  0  1  0  0  0  0  0999 V2000
    2.2671    0.2402    5.7738 O   0  0  0  0  0  0  0  0  0  0  0  0
    2.7645    0.7294    4.7616 C   0  0  0  0  0  0  0  0  0  0  0  0
    2.0340    1.0850    3.6511 N   0  0  0  0  0  0  0  0  0  0  0  0
    0.5876    1.1648    3.7193 C   0  0  3  0  0  0  0  0  0  0  0  0
   -0.1163   -0.1823    3.8747 C   0  0  0  0  0  0  0  0  0  0  0  0
   -1.5525    0.0698    3.4148 C   0  0  0  0  0  0  0  0  0  0  0  0
   -1.5485    1.4031    2.6615 C   0  0  0  0  0  0  0  0  0  0  0  0
   -0.0752    1.7644    2.4780 C   0  0  2  0  0  0  0  0  0  0  0  0
    0.3372    1.1028    1.2734 O   0  0  0  0  0  0  0  0  0  0  0  0
    0.8111    1.9356    0.3218 C   0  0  0  0  0  0  0  0  0  0  0  0
    1.5554    2.8809    0.5120 O   0  0  0  0  0  0  0  0  0  0  0  0
    0.1942    1.5912   -0.9851 C   0  0  0  0  0  0  0  0  0  0  0  0
    0.4497    2.4194   -2.0817 C   0  0  0  0  0  0  0  0  0  0  0  0
   -0.1329    2.1270   -3.3164 C   0  0  0  0  0  0  0  0  0  0  0  0
    0.0861    2.9827   -4.3616 O   0  0  0  0  0  0  0  0  0  0  0  0
   -0.9452    0.9891   -3.4814 C   0  0  0  0  0  0  0  0  0  0  0  0
   -1.4770    0.6429   -4.8196 C   0  0  0  0  0  0  0  0  0  0  0  0
   -0.7228    0.7511   -5.7973 O   0  0  0  0  0  0  0  0  0  0  0  0
   -2.7750   -0.0446   -5.0549 C   0  0  0  0  0  0  0  0  0  0  0  0
   -2.7726   -1.0487   -6.0476 C   0  0  0  0  0  0  0  0  0  0  0  0
   -1.6588   -1.3804   -6.7789 O   0  0  0  0  0  0  0  0  0  0  0  0
   -3.9054   -1.8123   -6.3128 C   0  0  0  0  0  0  0  0  0  0  0  0
   -5.0774   -1.5832   -5.6053 C   0  0  0  0  0  0  0  0  0  0  0  0
   -5.1108   -0.5946   -4.6237 C   0  0  0  0  0  0  0  0  0  0  0  0
   -3.9647    0.1749   -4.3343 C   0  0  0  0  0  0  0  0  0  0  0  0
   -4.0865    1.2305   -3.2988 C   0  0  0  0  0  0  0  0  0  0  0  0
   -3.5607    2.3237   -3.3962 O   0  0  0  0  0  0  0  0  0  0  0  0
   -4.8303    0.8675   -2.2291 O   0  0  0  0  0  0  0  0  0  0  0  0
   -1.1902    0.1715   -2.3702 C   0  0  0  0  0  0  0  0  0  0  0  0
   -1.9341   -0.9780   -2.4061 O   0  0  0  0  0  0  0  0  0  0  0  0
   -0.6629    0.4925   -1.1246 C   0  0  0  0  0  0  0  0  0  0  0  0
    4.2213    1.0124    4.7440 C   0  0  0  0  0  0  0  0  0  0  0  0
    5.0790    0.1686    5.4646 C   0  0  0  0  0  0  0  0  0  0  0  0
    6.4191    0.5179    5.6468 C   0  0  0  0  0  0  0  0  0  0  0  0
    6.8887    1.7134    5.1117 C   0  0  0  0  0  0  0  0  0  0  0  0
    8.1651    2.1363    5.3364 O   0  0  0  0  0  0  0  0  0  0  0  0
    6.0583    2.5366    4.3570 C   0  0  0  0  0  0  0  0  0  0  0  0
    4.7183    2.1890    4.1705 C   0  0  0  0  0  0  0  0  0  0  0  0
    2.5017    1.4121    2.8131 H   0  0  0  0  0  0  0  0  0  0  0  0
    0.3393    1.7927    4.5861 H   0  0  0  0  0  0  0  0  0  0  0  0
   -0.0912   -0.5450    4.9073 H   0  0  0  0  0  0  0  0  0  0  0  0
    0.3535   -0.9490    3.2473 H   0  0  0  0  0  0  0  0  0  0  0  0
   -2.2350    0.1294    4.2696 H   0  0  0  0  0  0  0  0  0  0  0  0
   -1.8993   -0.7505    2.7771 H   0  0  0  0  0  0  0  0  0  0  0  0
   -2.0540    2.1677    3.2603 H   0  0  0  0  0  0  0  0  0  0  0  0
   -2.0819    1.3092    1.7086 H   0  0  0  0  0  0  0  0  0  0  0  0
    0.0639    2.8493    2.4173 H   0  0  0  0  0  0  0  0  0  0  0  0
    1.0905    3.2897   -1.9613 H   0  0  0  0  0  0  0  0  0  0  0  0
    0.5356    3.7866   -4.0531 H   0  0  0  0  0  0  0  0  0  0  0  0
   -1.0091   -0.6434   -6.6918 H   0  0  0  0  0  0  0  0  0  0  0  0
   -3.8723   -2.5738   -7.0912 H   0  0  0  0  0  0  0  0  0  0  0  0
   -5.9705   -2.1648   -5.8315 H   0  0  0  0  0  0  0  0  0  0  0  0
   -6.0526   -0.4161   -4.1067 H   0  0  0  0  0  0  0  0  0  0  0  0
   -5.0655   -0.0780   -2.1686 H   0  0  0  0  0  0  0  0  0  0  0  0
   -1.7018   -1.4745   -3.2122 H   0  0  0  0  0  0  0  0  0  0  0  0
   -0.9175   -0.1353   -0.2748 H   0  0  0  0  0  0  0  0  0  0  0  0
    4.6918   -0.7428    5.9160 H   0  0  0  0  0  0  0  0  0  0  0  0
    7.0648   -0.1336    6.2273 H   0  0  0  0  0  0  0  0  0  0  0  0
    8.5600    1.5750    6.0244 H   0  0  0  0  0  0  0  0  0  0  0  0
    6.4422    3.4701    3.9545 H   0  0  0  0  0  0  0  0  0  0  0  0
    4.0649    2.8760    3.6405 H   0  0  0  0  0  0  0  0  0  0  0  0
  1  2  2  0  0  0  0
  2  3  1  0  0  0  0
  2 32  1  0  0  0  0
  3  4  1  0  0  0  0
  3 39  1  0  0  0  0
  4  5  1  0  0  0  0
  4  8  1  0  0  0  0
  4 40  1  0  0  0  0
  5  6  1  0  0  0  0
  5 41  1  0  0  0  0
  5 42  1  0  0  0  0
  6  7  1  0  0  0  0
  6 43  1  0  0  0  0
  6 44  1  0  0  0  0
  7  8  1  0  0  0  0
  7 45  1  0  0  0  0
  7 46  1  0  0  0  0
  8  9  1  0  0  0  0
  8 47  1  6  0  0  0
  9 10  1  0  0  0  0
 10 11  2  0  0  0  0
 10 12  1  0  0  0  0
 12 13  1  0  0  0  0
 12 31  2  0  0  0  0
 13 14  2  0  0  0  0
 13 48  1  0  0  0  0
 14 15  1  0  0  0  0
 14 16  1  0  0  0  0
 15 49  1  0  0  0  0
 16 17  1  0  0  0  0
 16 29  2  0  0  0  0
 17 18  2  0  0  0  0
 17 19  1  0  0  0  0
 19 20  1  0  0  0  0
 19 25  2  0  0  0  0
 20 21  1  0  0  0  0
 20 22  2  0  0  0  0
 21 50  1  0  0  0  0
 22 23  1  0  0  0  0
 22 51  1  0  0  0  0
 23 24  2  0  0  0  0
 23 52  1  0  0  0  0
 24 25  1  0  0  0  0
 24 53  1  0  0  0  0
 25 26  1  0  0  0  0
 26 27  2  0  0  0  0
 26 28  1  0  0  0  0
 28 54  1  0  0  0  0
 29 30  1  0  0  0  0
 29 31  1  0  0  0  0
 30 55  1  0  0  0  0
 31 56  1  0  0  0  0
 32 33  1  0  0  0  0
 32 38  2  0  0  0  0
 33 34  2  0  0  0  0
 33 57  1  0  0  0  0
 34 35  1  0  0  0  0
 34 58  1  0  0  0  0
 35 36  1  0  0  0  0
 35 37  2  0  0  0  0
 36 59  1  0  0  0  0
 37 38  1  0  0  0  0
 37 60  1  0  0  0  0
 38 61  1  0  0  0  0
M  END
$$$$
