MODEL 1
REMARK VINA RESULT:    -7.089      0.000      0.000
REMARK INTER + INTRA:         -11.275
REMARK INTER:                  -9.990
REMARK INTRA:                  -1.285
REMARK UNBOUND:                -1.285
REMARK  Name = 
REMARK  9 active torsions:
REMARK  status: ('A' for Active; 'I' for Inactive)
REMARK    1  A    between atoms: C_1  and  O_2
REMARK    2  A    between atoms: O_2  and  C_3
REMARK    3  A    between atoms: C_4  and  N_5
REMARK    4  A    between atoms: N_5  and  C_6
REMARK    5  A    between atoms: C_7  and  C_9
REMARK    6  A    between atoms: C_9  and  C_10
REMARK    7  A    between atoms: C_10  and  C_11
REMARK    8  A    between atoms: C_11  and  O_13
REMARK    9  A    between atoms: C_17  and  C_18
REMARK                            x       y       z     vdW  Elec       q    Type
REMARK                         _______ _______ _______ _____ _____    ______ ____
ROOT
ATOM      1  C   UNL     1     -11.321   0.102  17.600  0.00  0.00    +0.000 C 
ATOM      2  C   UNL     1     -10.099   1.068  17.765  0.00  0.00    +0.000 C 
ATOM      3  C   UNL     1      -9.229   0.891  19.179  0.00  0.00    +0.000 C 
ATOM      4  C   UNL     1      -8.919  -0.740  19.531  0.00  0.00    +0.000 C 
ATOM      5  O   UNL     1      -9.730  -1.323  18.566  0.00  0.00    +0.000 OA
ATOM      6  C   UNL     1     -11.166  -0.957  18.678  0.00  0.00    +0.000 C 
ATOM      7  N   UNL     1     -11.640  -0.397  20.046  0.00  0.00    +0.000 N 
ATOM      8  C   UNL     1     -12.206   0.891  20.543  0.00  0.00    +0.000 A 
ATOM      9  C   UNL     1     -13.287   1.723  20.155  0.00  0.00    +0.000 A 
ATOM     10  C   UNL     1     -13.684   2.838  20.942  0.00  0.00    +0.000 A 
ATOM     11  C   UNL     1     -13.027   3.207  22.098  0.00  0.00    +0.000 A 
ATOM     12  C   UNL     1     -11.959   2.477  22.518  0.00  0.00    +0.000 A 
ATOM     13  C   UNL     1     -11.579   1.324  21.807  0.00  0.00    +0.000 A 
ATOM     14  C   UNL     1     -10.743   0.318  22.183  0.00  0.00    +0.000 A 
ATOM     15  C   UNL     1     -10.013   0.248  23.386  0.00  0.00    +0.000 A 
ATOM     16  C   UNL     1      -9.941  -1.033  23.917  0.00  0.00    +0.000 A 
ATOM     17  C   UNL     1     -10.037  -2.016  22.862  0.00  0.00    +0.000 A 
ATOM     18  C   UNL     1      -8.813  -2.723  22.679  0.00  0.00    +0.000 A 
ATOM     19  C   UNL     1      -7.820  -3.232  23.538  0.00  0.00    +0.000 A 
ATOM     20  C   UNL     1      -6.659  -3.722  22.959  0.00  0.00    +0.000 A 
ATOM     21  C   UNL     1      -6.639  -3.993  21.590  0.00  0.00    +0.000 A 
ATOM     22  C   UNL     1      -7.744  -3.776  20.767  0.00  0.00    +0.000 A 
ATOM     23  C   UNL     1      -8.513  -2.728  21.266  0.00  0.00    +0.000 A 
ATOM     24  N   UNL     1      -9.172  -1.657  20.653  0.00  0.00    +0.000 N 
ATOM     25  C   UNL     1     -10.243  -1.684  21.475  0.00  0.00    +0.000 A 
ATOM     26  C   UNL     1     -11.031  -0.642  21.251  0.00  0.00    +0.000 A 
ATOM     27  C   UNL     1      -9.280  -0.951  25.180  0.00  0.00    +0.000 C 
ATOM     28  O   UNL     1      -9.088  -1.713  26.083  0.00  0.00    +0.000 OA
ATOM     29  N   UNL     1      -8.765   0.358  25.188  0.00  0.00    +0.000 N 
ATOM     30  C   UNL     1      -8.983   1.110  23.974  0.00  0.00    +0.000 C 
ATOM     31  H   UNL     1     -11.196  -0.319  16.594  0.00  0.00    +0.000 HD
ATOM     32  H   UNL     1      -9.328   0.627  17.118  0.00  0.00    +0.000 HD
ATOM     33  H   UNL     1      -8.249   1.361  19.011  0.00  0.00    +0.000 HD
ATOM     34  H   UNL     1      -9.647   1.463  20.006  0.00  0.00    +0.000 HD
ATOM     35  H   UNL     1      -7.855  -0.887  19.308  0.00  0.00    +0.000 HD
ATOM     36  H   UNL     1     -13.917   1.490  19.316  0.00  0.00    +0.000 HD
ATOM     37  H   UNL     1     -14.560   3.407  20.641  0.00  0.00    +0.000 HD
ATOM     38  H   UNL     1     -13.380   4.031  22.720  0.00  0.00    +0.000 HD
ATOM     39  H   UNL     1     -11.485   2.693  23.481  0.00  0.00    +0.000 HD
ATOM     40  H   UNL     1      -7.900  -3.159  24.617  0.00  0.00    +0.000 HD
ATOM     41  H   UNL     1      -5.804  -3.932  23.581  0.00  0.00    +0.000 HD
ATOM     42  H   UNL     1      -5.769  -4.509  21.163  0.00  0.00    +0.000 HD
ATOM     43  H   UNL     1      -8.325  -4.738  20.724  0.00  0.00    +0.000 HD
ATOM     44  H   UNL     1      -8.110   0.619  25.935  0.00  0.00    +0.000 HD
ATOM     45  H   UNL     1      -8.056   1.036  23.379  0.00  0.00    +0.000 HD
ATOM     46  H   UNL     1      -9.228   2.153  24.162  0.00  0.00    +0.000 HD
ENDROOT
BRANCH   6  47
ATOM     47  C   UNL     1     -11.577  -2.328  18.072  0.00  0.00    +0.000 C 
ATOM     48  H   UNL     1     -12.621  -2.602  18.049  0.00  0.00    +0.000 HD
ATOM     49  H   UNL     1     -10.974  -3.153  18.464  0.00  0.00    +0.000 HD
ATOM     50  H   UNL     1     -11.281  -2.309  16.996  0.00  0.00    +0.000 HD
ENDBRANCH   6  47
BRANCH   2  51
ATOM     51  N   UNL     1     -10.408   2.365  17.027  0.00  0.00    +0.000 N 
ATOM     52  C   UNL     1     -10.242   3.498  17.871  0.00  0.00    +0.000 C 
ATOM     53  O   UNL     1     -10.672   3.516  19.019  0.00  0.00    +0.000 OA
BRANCH  51  54
ATOM     54  C   UNL     1     -10.018   2.500  15.626  0.00  0.00    +0.000 C 
ATOM     55  H   UNL     1     -10.652   3.203  15.099  0.00  0.00    +0.000 HD
ATOM     56  H   UNL     1     -10.011   1.534  15.113  0.00  0.00    +0.000 HD
ATOM     57  H   UNL     1      -8.973   2.849  15.581  0.00  0.00    +0.000 HD
ENDBRANCH  51  54
BRANCH  52  58
ATOM     58  C   UNL     1      -9.357   4.680  17.377  0.00  0.00    +0.000 C 
ATOM     59  H   UNL     1      -8.848   4.382  16.461  0.00  0.00    +0.000 HD
ATOM     60  H   UNL     1      -9.964   5.559  17.174  0.00  0.00    +0.000 HD
BRANCH  58  61
ATOM     61  C   UNL     1      -8.284   5.008  18.432  0.00  0.00    +0.000 C 
ATOM     62  H   UNL     1      -7.881   6.009  18.267  0.00  0.00    +0.000 HD
ATOM     63  H   UNL     1      -8.724   4.959  19.435  0.00  0.00    +0.000 HD
BRANCH  61  64
ATOM     64  C   UNL     1      -7.118   4.045  18.422  0.00  0.00    +0.000 C 
ATOM     65  O   UNL     1      -6.934   3.155  17.611  0.00  0.00    +0.000 OA
BRANCH  64  66
ATOM     66  O   UNL     1      -6.260   4.272  19.452  0.00  0.00    +0.000 OA
ATOM     67  H   UNL     1      -5.907   5.185  19.479  0.00  0.00    +0.000 HD
ENDBRANCH  64  66
ENDBRANCH  61  64
ENDBRANCH  58  61
ENDBRANCH  52  58
ENDBRANCH   2  51
BRANCH   1  68
ATOM     68  O   UNL     1     -12.619   0.709  17.571  0.00  0.00    +0.000 OA
BRANCH  68  69
ATOM     69  C   UNL     1     -13.373   0.539  16.375  0.00  0.00    +0.000 C 
ATOM     70  H   UNL     1     -12.736   0.683  15.503  0.00  0.00    +0.000 HD
ATOM     71  H   UNL     1     -14.174   1.282  16.354  0.00  0.00    +0.000 HD
ATOM     72  H   UNL     1     -13.889  -0.420  16.348  0.00  0.00    +0.000 HD
ENDBRANCH  68  69
ENDBRANCH   1  68
TORSDOF 9
ENDMDL
MODEL 2
REMARK VINA RESULT:    -6.431      1.546      2.704
REMARK INTER + INTRA:         -10.347
REMARK INTER:                  -9.737
REMARK INTRA:                  -0.610
REMARK UNBOUND:                -1.285
REMARK  Name = 
REMARK  9 active torsions:
REMARK  status: ('A' for Active; 'I' for Inactive)
REMARK    1  A    between atoms: C_1  and  O_2
REMARK    2  A    between atoms: O_2  and  C_3
REMARK    3  A    between atoms: C_4  and  N_5
REMARK    4  A    between atoms: N_5  and  C_6
REMARK    5  A    between atoms: C_7  and  C_9
REMARK    6  A    between atoms: C_9  and  C_10
REMARK    7  A    between atoms: C_10  and  C_11
REMARK    8  A    between atoms: C_11  and  O_13
REMARK    9  A    between atoms: C_17  and  C_18
REMARK                            x       y       z     vdW  Elec       q    Type
REMARK                         _______ _______ _______ _____ _____    ______ ____
ROOT
ATOM      1  C   UNL     1     -11.309   0.130  17.605  0.00  0.00    +0.000 C 
ATOM      2  C   UNL     1     -10.081   1.087  17.773  0.00  0.00    +0.000 C 
ATOM      3  C   UNL     1      -9.212   0.898  19.188  0.00  0.00    +0.000 C 
ATOM      4  C   UNL     1      -8.913  -0.736  19.533  0.00  0.00    +0.000 C 
ATOM      5  O   UNL     1      -9.729  -1.310  18.565  0.00  0.00    +0.000 OA
ATOM      6  C   UNL     1     -11.162  -0.934  18.679  0.00  0.00    +0.000 C 
ATOM      7  N   UNL     1     -11.633  -0.376  20.049  0.00  0.00    +0.000 N 
ATOM      8  C   UNL     1     -12.189   0.914  20.550  0.00  0.00    +0.000 A 
ATOM      9  C   UNL     1     -13.265   1.755  20.166  0.00  0.00    +0.000 A 
ATOM     10  C   UNL     1     -13.653   2.870  20.957  0.00  0.00    +0.000 A 
ATOM     11  C   UNL     1     -12.994   3.229  22.115  0.00  0.00    +0.000 A 
ATOM     12  C   UNL     1     -11.931   2.490  22.532  0.00  0.00    +0.000 A 
ATOM     13  C   UNL     1     -11.559   1.337  21.816  0.00  0.00    +0.000 A 
ATOM     14  C   UNL     1     -10.730   0.324  22.189  0.00  0.00    +0.000 A 
ATOM     15  C   UNL     1     -10.002   0.244  23.391  0.00  0.00    +0.000 A 
ATOM     16  C   UNL     1      -9.939  -1.039  23.917  0.00  0.00    +0.000 A 
ATOM     17  C   UNL     1     -10.042  -2.018  22.858  0.00  0.00    +0.000 A 
ATOM     18  C   UNL     1      -8.822  -2.733  22.673  0.00  0.00    +0.000 A 
ATOM     19  C   UNL     1      -7.833  -3.252  23.530  0.00  0.00    +0.000 A 
ATOM     20  C   UNL     1      -6.675  -3.747  22.949  0.00  0.00    +0.000 A 
ATOM     21  C   UNL     1      -6.657  -4.013  21.580  0.00  0.00    +0.000 A 
ATOM     22  C   UNL     1      -7.760  -3.785  20.757  0.00  0.00    +0.000 A 
ATOM     23  C   UNL     1      -8.522  -2.734  21.260  0.00  0.00    +0.000 A 
ATOM     24  N   UNL     1      -9.173  -1.656  20.651  0.00  0.00    +0.000 N 
ATOM     25  C   UNL     1     -10.244  -1.679  21.473  0.00  0.00    +0.000 A 
ATOM     26  C   UNL     1     -11.025  -0.631  21.253  0.00  0.00    +0.000 A 
ATOM     27  C   UNL     1      -9.277  -0.967  25.181  0.00  0.00    +0.000 C 
ATOM     28  O   UNL     1      -9.091  -1.733  26.081  0.00  0.00    +0.000 OA
ATOM     29  N   UNL     1      -8.752   0.338  25.194  0.00  0.00    +0.000 N 
ATOM     30  C   UNL     1      -8.965   1.096  23.983  0.00  0.00    +0.000 C 
ATOM     31  H   UNL     1     -11.187  -0.288  16.597  0.00  0.00    +0.000 HD
ATOM     32  H   UNL     1      -9.312   0.643  17.125  0.00  0.00    +0.000 HD
ATOM     33  H   UNL     1      -8.229   1.362  19.021  0.00  0.00    +0.000 HD
ATOM     34  H   UNL     1      -9.626   1.470  20.016  0.00  0.00    +0.000 HD
ATOM     35  H   UNL     1      -7.850  -0.890  19.310  0.00  0.00    +0.000 HD
ATOM     36  H   UNL     1     -13.895   1.530  19.326  0.00  0.00    +0.000 HD
ATOM     37  H   UNL     1     -14.525   3.447  20.658  0.00  0.00    +0.000 HD
ATOM     38  H   UNL     1     -13.341   4.054  22.740  0.00  0.00    +0.000 HD
ATOM     39  H   UNL     1     -11.456   2.699  23.496  0.00  0.00    +0.000 HD
ATOM     40  H   UNL     1      -7.913  -3.182  24.609  0.00  0.00    +0.000 HD
ATOM     41  H   UNL     1      -5.822  -3.966  23.571  0.00  0.00    +0.000 HD
ATOM     42  H   UNL     1      -5.791  -4.534  21.151  0.00  0.00    +0.000 HD
ATOM     43  H   UNL     1      -8.348  -4.743  20.710  0.00  0.00    +0.000 HD
ATOM     44  H   UNL     1      -8.096   0.592  25.942  0.00  0.00    +0.000 HD
ATOM     45  H   UNL     1      -8.039   1.019  23.388  0.00  0.00    +0.000 HD
ATOM     46  H   UNL     1      -9.203   2.140  24.175  0.00  0.00    +0.000 HD
ENDROOT
BRANCH   6  47
ATOM     47  C   UNL     1     -11.583  -2.300  18.067  0.00  0.00    +0.000 C 
ATOM     48  H   UNL     1     -10.875  -2.847  17.462  0.00  0.00    +0.000 HD
ATOM     49  H   UNL     1     -12.554  -2.247  17.565  0.00  0.00    +0.000 HD
ATOM     50  H   UNL     1     -11.795  -2.986  18.920  0.00  0.00    +0.000 HD
ENDBRANCH   6  47
BRANCH   2  51
ATOM     51  N   UNL     1     -10.380   2.389  17.041  0.00  0.00    +0.000 N 
ATOM     52  C   UNL     1     -10.311   2.223  15.630  0.00  0.00    +0.000 C 
ATOM     53  O   UNL     1      -9.397   1.604  15.098  0.00  0.00    +0.000 OA
BRANCH  51  54
ATOM     54  C   UNL     1     -11.405   3.286  17.570  0.00  0.00    +0.000 C 
ATOM     55  H   UNL     1     -11.556   4.145  16.928  0.00  0.00    +0.000 HD
ATOM     56  H   UNL     1     -11.175   3.608  18.590  0.00  0.00    +0.000 HD
ATOM     57  H   UNL     1     -12.352   2.728  17.659  0.00  0.00    +0.000 HD
ENDBRANCH  51  54
BRANCH  52  58
ATOM     58  C   UNL     1     -11.507   2.705  14.757  0.00  0.00    +0.000 C 
ATOM     59  H   UNL     1     -12.433   2.318  15.181  0.00  0.00    +0.000 HD
ATOM     60  H   UNL     1     -11.556   3.791  14.734  0.00  0.00    +0.000 HD
BRANCH  58  61
ATOM     61  C   UNL     1     -11.370   2.149  13.328  0.00  0.00    +0.000 C 
ATOM     62  H   UNL     1     -11.782   2.854  12.604  0.00  0.00    +0.000 HD
ATOM     63  H   UNL     1     -10.313   1.975  13.098  0.00  0.00    +0.000 HD
BRANCH  61  64
ATOM     64  C   UNL     1     -12.080   0.829  13.127  0.00  0.00    +0.000 C 
ATOM     65  O   UNL     1     -13.240   0.686  12.784  0.00  0.00    +0.000 OA
BRANCH  64  66
ATOM     66  O   UNL     1     -11.266  -0.231  13.383  0.00  0.00    +0.000 OA
ATOM     67  H   UNL     1     -10.573  -0.046  14.049  0.00  0.00    +0.000 HD
ENDBRANCH  64  66
ENDBRANCH  61  64
ENDBRANCH  58  61
ENDBRANCH  52  58
ENDBRANCH   2  51
BRANCH   1  68
ATOM     68  O   UNL     1     -12.603   0.747  17.578  0.00  0.00    +0.000 OA
BRANCH  68  69
ATOM     69  C   UNL     1     -13.462   0.374  16.506  0.00  0.00    +0.000 C 
ATOM     70  H   UNL     1     -14.484   0.688  16.713  0.00  0.00    +0.000 HD
ATOM     71  H   UNL     1     -13.442  -0.714  16.398  0.00  0.00    +0.000 HD
ATOM     72  H   UNL     1     -13.107   0.749  15.546  0.00  0.00    +0.000 HD
ENDBRANCH  68  69
ENDBRANCH   1  68
TORSDOF 9
ENDMDL
MODEL 3
REMARK VINA RESULT:    -6.335      4.303      8.614
REMARK INTER + INTRA:         -10.213
REMARK INTER:                  -9.973
REMARK INTRA:                  -0.240
REMARK UNBOUND:                -1.285
REMARK  Name = 
REMARK  9 active torsions:
REMARK  status: ('A' for Active; 'I' for Inactive)
REMARK    1  A    between atoms: C_1  and  O_2
REMARK    2  A    between atoms: O_2  and  C_3
REMARK    3  A    between atoms: C_4  and  N_5
REMARK    4  A    between atoms: N_5  and  C_6
REMARK    5  A    between atoms: C_7  and  C_9
REMARK    6  A    between atoms: C_9  and  C_10
REMARK    7  A    between atoms: C_10  and  C_11
REMARK    8  A    between atoms: C_11  and  O_13
REMARK    9  A    between atoms: C_17  and  C_18
REMARK                            x       y       z     vdW  Elec       q    Type
REMARK                         _______ _______ _______ _____ _____    ______ ____
ROOT
ATOM      1  C   UNL     1      -9.939  -5.787  16.695  0.00  0.00    +0.000 C 
ATOM      2  C   UNL     1     -11.129  -6.101  17.664  0.00  0.00    +0.000 C 
ATOM      3  C   UNL     1     -11.860  -4.770  18.359  0.00  0.00    +0.000 C 
ATOM      4  C   UNL     1     -12.151  -3.543  17.223  0.00  0.00    +0.000 C 
ATOM      5  O   UNL     1     -11.442  -4.073  16.152  0.00  0.00    +0.000 OA
ATOM      6  C   UNL     1      -9.999  -4.293  16.428  0.00  0.00    +0.000 C 
ATOM      7  N   UNL     1      -9.389  -3.514  17.624  0.00  0.00    +0.000 N 
ATOM      8  C   UNL     1      -8.765  -3.867  18.932  0.00  0.00    +0.000 A 
ATOM      9  C   UNL     1      -7.718  -4.734  19.338  0.00  0.00    +0.000 A 
ATOM     10  C   UNL     1      -7.236  -4.739  20.675  0.00  0.00    +0.000 A 
ATOM     11  C   UNL     1      -7.775  -3.943  21.665  0.00  0.00    +0.000 A 
ATOM     12  C   UNL     1      -8.804  -3.108  21.361  0.00  0.00    +0.000 A 
ATOM     13  C   UNL     1      -9.263  -3.020  20.034  0.00  0.00    +0.000 A 
ATOM     14  C   UNL     1     -10.068  -2.084  19.462  0.00  0.00    +0.000 A 
ATOM     15  C   UNL     1     -10.679  -0.998  20.120  0.00  0.00    +0.000 A 
ATOM     16  C   UNL     1     -10.711   0.163  19.359  0.00  0.00    +0.000 A 
ATOM     17  C   UNL     1     -10.728  -0.164  17.951  0.00  0.00    +0.000 A 
ATOM     18  C   UNL     1     -11.971   0.173  17.340  0.00  0.00    +0.000 A 
ATOM     19  C   UNL     1     -12.882   1.241  17.459  0.00  0.00    +0.000 A 
ATOM     20  C   UNL     1     -14.098   1.124  16.803  0.00  0.00    +0.000 A 
ATOM     21  C   UNL     1     -14.253   0.148  15.818  0.00  0.00    +0.000 A 
ATOM     22  C   UNL     1     -13.231  -0.735  15.470  0.00  0.00    +0.000 A 
ATOM     23  C   UNL     1     -12.406  -0.968  16.568  0.00  0.00    +0.000 A 
ATOM     24  N   UNL     1     -11.800  -2.123  17.073  0.00  0.00    +0.000 N 
ATOM     25  C   UNL     1     -10.655  -1.509  17.441  0.00  0.00    +0.000 A 
ATOM     26  C   UNL     1      -9.881  -2.337  18.130  0.00  0.00    +0.000 A 
ATOM     27  C   UNL     1     -11.247   1.209  20.171  0.00  0.00    +0.000 C 
ATOM     28  O   UNL     1     -11.358   2.395  20.056  0.00  0.00    +0.000 OA
ATOM     29  N   UNL     1     -11.746   0.521  21.292  0.00  0.00    +0.000 N 
ATOM     30  C   UNL     1     -11.638  -0.919  21.225  0.00  0.00    +0.000 C 
ATOM     31  H   UNL     1     -10.164  -6.372  15.794  0.00  0.00    +0.000 HD
ATOM     32  H   UNL     1     -11.964  -6.330  16.986  0.00  0.00    +0.000 HD
ATOM     33  H   UNL     1     -12.847  -5.099  18.716  0.00  0.00    +0.000 HD
ATOM     34  H   UNL     1     -11.359  -4.440  19.267  0.00  0.00    +0.000 HD
ATOM     35  H   UNL     1     -13.233  -3.565  17.044  0.00  0.00    +0.000 HD
ATOM     36  H   UNL     1      -7.175  -5.343  18.638  0.00  0.00    +0.000 HD
ATOM     37  H   UNL     1      -6.388  -5.372  20.924  0.00  0.00    +0.000 HD
ATOM     38  H   UNL     1      -7.355  -3.918  22.672  0.00  0.00    +0.000 HD
ATOM     39  H   UNL     1      -9.181  -2.399  22.106  0.00  0.00    +0.000 HD
ATOM     40  H   UNL     1     -12.696   2.084  18.115  0.00  0.00    +0.000 HD
ATOM     41  H   UNL     1     -14.891   1.819  17.029  0.00  0.00    +0.000 HD
ATOM     42  H   UNL     1     -15.165   0.150  15.207  0.00  0.00    +0.000 HD
ATOM     43  H   UNL     1     -12.666  -0.275  14.613  0.00  0.00    +0.000 HD
ATOM     44  H   UNL     1     -12.323   1.039  21.965  0.00  0.00    +0.000 HD
ATOM     45  H   UNL     1     -12.619  -1.299  20.891  0.00  0.00    +0.000 HD
ATOM     46  H   UNL     1     -11.366  -1.366  22.178  0.00  0.00    +0.000 HD
ENDROOT
BRANCH   6  47
ATOM     47  C   UNL     1      -9.662  -4.056  14.929  0.00  0.00    +0.000 C 
ATOM     48  H   UNL     1     -10.459  -3.818  14.241  0.00  0.00    +0.000 HD
ATOM     49  H   UNL     1      -9.024  -4.845  14.518  0.00  0.00    +0.000 HD
ATOM     50  H   UNL     1      -8.993  -3.164  14.884  0.00  0.00    +0.000 HD
ENDBRANCH   6  47
BRANCH   2  51
ATOM     51  N   UNL     1     -10.880  -7.459  18.308  0.00  0.00    +0.000 N 
ATOM     52  C   UNL     1     -10.818  -8.496  17.336  0.00  0.00    +0.000 C 
ATOM     53  O   UNL     1     -11.630  -8.571  16.421  0.00  0.00    +0.000 OA
BRANCH  51  54
ATOM     54  C   UNL     1      -9.982  -7.550  19.456  0.00  0.00    +0.000 C 
ATOM     55  H   UNL     1      -9.321  -6.694  19.517  0.00  0.00    +0.000 HD
ATOM     56  H   UNL     1      -9.403  -8.478  19.446  0.00  0.00    +0.000 HD
ATOM     57  H   UNL     1     -10.587  -7.608  20.377  0.00  0.00    +0.000 HD
ENDBRANCH  51  54
BRANCH  52  58
ATOM     58  C   UNL     1      -9.599  -9.464  17.347  0.00  0.00    +0.000 C 
ATOM     59  H   UNL     1      -8.743  -8.960  16.899  0.00  0.00    +0.000 HD
ATOM     60  H   UNL     1      -9.345  -9.756  18.363  0.00  0.00    +0.000 HD
BRANCH  58  61
ATOM     61  C   UNL     1      -9.913 -10.711  16.499  0.00  0.00    +0.000 C 
ATOM     62  H   UNL     1      -9.575 -11.614  17.010  0.00  0.00    +0.000 HD
ATOM     63  H   UNL     1     -10.993 -10.779  16.327  0.00  0.00    +0.000 HD
BRANCH  61  64
ATOM     64  C   UNL     1      -9.257 -10.691  15.136  0.00  0.00    +0.000 C 
ATOM     65  O   UNL     1      -8.225 -11.262  14.832  0.00  0.00    +0.000 OA
BRANCH  64  66
ATOM     66  O   UNL     1      -9.956  -9.938  14.245  0.00  0.00    +0.000 OA
ATOM     67  H   UNL     1      -9.879 -10.247  13.320  0.00  0.00    +0.000 HD
ENDBRANCH  64  66
ENDBRANCH  61  64
ENDBRANCH  58  61
ENDBRANCH  52  58
ENDBRANCH   2  51
BRANCH   1  68
ATOM     68  O   UNL     1      -8.644  -6.248  17.102  0.00  0.00    +0.000 OA
BRANCH  68  69
ATOM     69  C   UNL     1      -7.916  -7.016  16.149  0.00  0.00    +0.000 C 
ATOM     70  H   UNL     1      -7.230  -7.695  16.654  0.00  0.00    +0.000 HD
ATOM     71  H   UNL     1      -7.338  -6.338  15.515  0.00  0.00    +0.000 HD
ATOM     72  H   UNL     1      -8.574  -7.542  15.457  0.00  0.00    +0.000 HD
ENDBRANCH  68  69
ENDBRANCH   1  68
TORSDOF 9
ENDMDL
MODEL 4
REMARK VINA RESULT:    -6.304      2.347      3.491
REMARK INTER + INTRA:         -10.169
REMARK INTER:                  -8.848
REMARK INTRA:                  -1.321
REMARK UNBOUND:                -1.285
REMARK  Name = 
REMARK  9 active torsions:
REMARK  status: ('A' for Active; 'I' for Inactive)
REMARK    1  A    between atoms: C_1  and  O_2
REMARK    2  A    between atoms: O_2  and  C_3
REMARK    3  A    between atoms: C_4  and  N_5
REMARK    4  A    between atoms: N_5  and  C_6
REMARK    5  A    between atoms: C_7  and  C_9
REMARK    6  A    between atoms: C_9  and  C_10
REMARK    7  A    between atoms: C_10  and  C_11
REMARK    8  A    between atoms: C_11  and  O_13
REMARK    9  A    between atoms: C_17  and  C_18
REMARK                            x       y       z     vdW  Elec       q    Type
REMARK                         _______ _______ _______ _____ _____    ______ ____
ROOT
ATOM      1  C   UNL     1     -10.766  -1.632  16.647  0.00  0.00    +0.000 C 
ATOM      2  C   UNL     1      -9.480  -0.751  16.498  0.00  0.00    +0.000 C 
ATOM      3  C   UNL     1      -9.074   0.159  17.839  0.00  0.00    +0.000 C 
ATOM      4  C   UNL     1      -9.175  -0.746  19.271  0.00  0.00    +0.000 C 
ATOM      5  O   UNL     1      -9.787  -1.884  18.761  0.00  0.00    +0.000 OA
ATOM      6  C   UNL     1     -11.106  -1.631  18.127  0.00  0.00    +0.000 C 
ATOM      7  N   UNL     1     -11.824  -0.308  18.507  0.00  0.00    +0.000 N 
ATOM      8  C   UNL     1     -12.257   0.925  17.788  0.00  0.00    +0.000 A 
ATOM      9  C   UNL     1     -13.021   1.185  16.622  0.00  0.00    +0.000 A 
ATOM     10  C   UNL     1     -13.405   2.507  16.267  0.00  0.00    +0.000 A 
ATOM     11  C   UNL     1     -13.031   3.615  17.000  0.00  0.00    +0.000 A 
ATOM     12  C   UNL     1     -12.269   3.449  18.114  0.00  0.00    +0.000 A 
ATOM     13  C   UNL     1     -11.928   2.152  18.540  0.00  0.00    +0.000 A 
ATOM     14  C   UNL     1     -11.425   1.744  19.736  0.00  0.00    +0.000 A 
ATOM     15  C   UNL     1     -11.075   2.576  20.819  0.00  0.00    +0.000 A 
ATOM     16  C   UNL     1     -11.386   2.032  22.058  0.00  0.00    +0.000 A 
ATOM     17  C   UNL     1     -11.370   0.588  21.987  0.00  0.00    +0.000 A 
ATOM     18  C   UNL     1     -10.293   0.030  22.736  0.00  0.00    +0.000 A 
ATOM     19  C   UNL     1      -9.681   0.324  23.970  0.00  0.00    +0.000 A 
ATOM     20  C   UNL     1      -8.516  -0.359  24.288  0.00  0.00    +0.000 A 
ATOM     21  C   UNL     1      -8.176  -1.504  23.566  0.00  0.00    +0.000 A 
ATOM     22  C   UNL     1      -8.956  -1.989  22.516  0.00  0.00    +0.000 A 
ATOM     23  C   UNL     1      -9.627  -0.938  21.895  0.00  0.00    +0.000 A 
ATOM     24  N   UNL     1      -9.886  -0.637  20.554  0.00  0.00    +0.000 N 
ATOM     25  C   UNL     1     -11.126  -0.151  20.775  0.00  0.00    +0.000 A 
ATOM     26  C   UNL     1     -11.620   0.391  19.670  0.00  0.00    +0.000 A 
ATOM     27  C   UNL     1     -11.088   3.009  23.056  0.00  0.00    +0.000 C 
ATOM     28  O   UNL     1     -11.292   3.104  24.232  0.00  0.00    +0.000 OA
ATOM     29  N   UNL     1     -10.364   3.984  22.346  0.00  0.00    +0.000 N 
ATOM     30  C   UNL     1     -10.103   3.665  20.961  0.00  0.00    +0.000 C 
ATOM     31  H   UNL     1     -10.452  -2.626  16.301  0.00  0.00    +0.000 HD
ATOM     32  H   UNL     1      -8.656  -1.470  16.613  0.00  0.00    +0.000 HD
ATOM     33  H   UNL     1      -8.016   0.438  17.726  0.00  0.00    +0.000 HD
ATOM     34  H   UNL     1      -9.588   1.118  17.869  0.00  0.00    +0.000 HD
ATOM     35  H   UNL     1      -8.136  -0.941  19.564  0.00  0.00    +0.000 HD
ATOM     36  H   UNL     1     -13.431   0.396  16.018  0.00  0.00    +0.000 HD
ATOM     37  H   UNL     1     -14.047   2.652  15.401  0.00  0.00    +0.000 HD
ATOM     38  H   UNL     1     -13.382   4.616  16.744  0.00  0.00    +0.000 HD
ATOM     39  H   UNL     1     -12.043   4.303  18.762  0.00  0.00    +0.000 HD
ATOM     40  H   UNL     1     -10.036   1.121  24.612  0.00  0.00    +0.000 HD
ATOM     41  H   UNL     1      -7.916  -0.025  25.118  0.00  0.00    +0.000 HD
ATOM     42  H   UNL     1      -7.332  -2.117  23.909  0.00  0.00    +0.000 HD
ATOM     43  H   UNL     1      -9.670  -2.742  22.949  0.00  0.00    +0.000 HD
ATOM     44  H   UNL     1      -9.900   4.730  22.877  0.00  0.00    +0.000 HD
ATOM     45  H   UNL     1      -9.080   3.255  20.913  0.00  0.00    +0.000 HD
ATOM     46  H   UNL     1     -10.194   4.527  20.305  0.00  0.00    +0.000 HD
ENDROOT
BRANCH   6  47
ATOM     47  C   UNL     1     -11.582  -3.060  18.514  0.00  0.00    +0.000 C 
ATOM     48  H   UNL     1     -10.874  -3.875  18.493  0.00  0.00    +0.000 HD
ATOM     49  H   UNL     1     -12.506  -3.343  18.001  0.00  0.00    +0.000 HD
ATOM     50  H   UNL     1     -11.908  -3.016  19.580  0.00  0.00    +0.000 HD
ENDBRANCH   6  47
BRANCH   2  51
ATOM     51  N   UNL     1      -9.334  -0.354  15.034  0.00  0.00    +0.000 N 
ATOM     52  C   UNL     1      -9.075   1.038  14.894  0.00  0.00    +0.000 C 
ATOM     53  O   UNL     1      -9.702   1.877  15.531  0.00  0.00    +0.000 OA
BRANCH  51  54
ATOM     54  C   UNL     1      -8.663  -1.265  14.111  0.00  0.00    +0.000 C 
ATOM     55  H   UNL     1      -8.293  -0.748  13.234  0.00  0.00    +0.000 HD
ATOM     56  H   UNL     1      -9.311  -2.096  13.818  0.00  0.00    +0.000 HD
ATOM     57  H   UNL     1      -7.817  -1.741  14.635  0.00  0.00    +0.000 HD
ENDBRANCH  51  54
BRANCH  52  58
ATOM     58  C   UNL     1      -7.864   1.494  14.029  0.00  0.00    +0.000 C 
ATOM     59  H   UNL     1      -7.350   0.612  13.648  0.00  0.00    +0.000 HD
ATOM     60  H   UNL     1      -8.195   2.101  13.190  0.00  0.00    +0.000 HD
BRANCH  58  61
ATOM     61  C   UNL     1      -6.869   2.286  14.897  0.00  0.00    +0.000 C 
ATOM     62  H   UNL     1      -6.083   2.719  14.277  0.00  0.00    +0.000 HD
ATOM     63  H   UNL     1      -7.395   3.091  15.422  0.00  0.00    +0.000 HD
BRANCH  61  64
ATOM     64  C   UNL     1      -6.195   1.444  15.957  0.00  0.00    +0.000 C 
ATOM     65  O   UNL     1      -6.006   1.770  17.116  0.00  0.00    +0.000 OA
BRANCH  64  66
ATOM     66  O   UNL     1      -5.799   0.236  15.473  0.00  0.00    +0.000 OA
ATOM     67  H   UNL     1      -6.030   0.092  14.532  0.00  0.00    +0.000 HD
ENDBRANCH  64  66
ENDBRANCH  61  64
ENDBRANCH  58  61
ENDBRANCH  52  58
ENDBRANCH   2  51
BRANCH   1  68
ATOM     68  O   UNL     1     -11.874  -1.296  15.801  0.00  0.00    +0.000 OA
BRANCH  68  69
ATOM     69  C   UNL     1     -12.204  -2.237  14.784  0.00  0.00    +0.000 C 
ATOM     70  H   UNL     1     -12.628  -3.139  15.226  0.00  0.00    +0.000 HD
ATOM     71  H   UNL     1     -11.295  -2.505  14.240  0.00  0.00    +0.000 HD
ATOM     72  H   UNL     1     -12.860  -1.809  14.026  0.00  0.00    +0.000 HD
ENDBRANCH  68  69
ENDBRANCH   1  68
TORSDOF 9
ENDMDL
MODEL 5
REMARK VINA RESULT:    -6.161      2.600      5.207
REMARK INTER + INTRA:          -9.967
REMARK INTER:                  -9.617
REMARK INTRA:                  -0.349
REMARK UNBOUND:                -1.285
REMARK  Name = 
REMARK  9 active torsions:
REMARK  status: ('A' for Active; 'I' for Inactive)
REMARK    1  A    between atoms: C_1  and  O_2
REMARK    2  A    between atoms: O_2  and  C_3
REMARK    3  A    between atoms: C_4  and  N_5
REMARK    4  A    between atoms: N_5  and  C_6
REMARK    5  A    between atoms: C_7  and  C_9
REMARK    6  A    between atoms: C_9  and  C_10
REMARK    7  A    between atoms: C_10  and  C_11
REMARK    8  A    between atoms: C_11  and  O_13
REMARK    9  A    between atoms: C_17  and  C_18
REMARK                            x       y       z     vdW  Elec       q    Type
REMARK                         _______ _______ _______ _____ _____    ______ ____
ROOT
ATOM      1  C   UNL     1     -11.633   2.456  18.273  0.00  0.00    +0.000 C 
ATOM      2  C   UNL     1     -12.977   2.248  19.049  0.00  0.00    +0.000 C 
ATOM      3  C   UNL     1     -12.840   1.487  20.530  0.00  0.00    +0.000 C 
ATOM      4  C   UNL     1     -11.559   2.118  21.449  0.00  0.00    +0.000 C 
ATOM      5  O   UNL     1     -10.971   2.914  20.474  0.00  0.00    +0.000 OA
ATOM      6  C   UNL     1     -10.524   2.168  19.269  0.00  0.00    +0.000 C 
ATOM      7  N   UNL     1     -10.335   0.635  19.425  0.00  0.00    +0.000 N 
ATOM      8  C   UNL     1     -10.954  -0.590  18.842  0.00  0.00    +0.000 A 
ATOM      9  C   UNL     1     -11.212  -1.049  17.525  0.00  0.00    +0.000 A 
ATOM     10  C   UNL     1     -11.687  -2.365  17.279  0.00  0.00    +0.000 A 
ATOM     11  C   UNL     1     -11.967  -3.260  18.293  0.00  0.00    +0.000 A 
ATOM     12  C   UNL     1     -11.776  -2.881  19.585  0.00  0.00    +0.000 A 
ATOM     13  C   UNL     1     -11.238  -1.612  19.868  0.00  0.00    +0.000 A 
ATOM     14  C   UNL     1     -10.721  -1.138  21.034  0.00  0.00    +0.000 A 
ATOM     15  C   UNL     1     -10.665  -1.828  22.261  0.00  0.00    +0.000 A 
ATOM     16  C   UNL     1      -9.498  -1.595  22.975  0.00  0.00    +0.000 A 
ATOM     17  C   UNL     1      -8.965  -0.291  22.648  0.00  0.00    +0.000 A 
ATOM     18  C   UNL     1      -9.051   0.611  23.749  0.00  0.00    +0.000 A 
ATOM     19  C   UNL     1      -8.872   0.502  25.142  0.00  0.00    +0.000 A 
ATOM     20  C   UNL     1      -9.223   1.594  25.922  0.00  0.00    +0.000 A 
ATOM     21  C   UNL     1      -9.422   2.833  25.313  0.00  0.00    +0.000 A 
ATOM     22  C   UNL     1      -9.298   3.022  23.937  0.00  0.00    +0.000 A 
ATOM     23  C   UNL     1      -9.621   1.846  23.263  0.00  0.00    +0.000 A 
ATOM     24  N   UNL     1     -10.350   1.589  22.098  0.00  0.00    +0.000 N 
ATOM     25  C   UNL     1      -9.550   0.589  21.670  0.00  0.00    +0.000 A 
ATOM     26  C   UNL     1     -10.075  -0.008  20.609  0.00  0.00    +0.000 A 
ATOM     27  C   UNL     1      -9.513  -2.431  24.133  0.00  0.00    +0.000 C 
ATOM     28  O   UNL     1      -8.717  -2.714  24.981  0.00  0.00    +0.000 OA
ATOM     29  N   UNL     1     -10.833  -2.917  24.160  0.00  0.00    +0.000 N 
ATOM     30  C   UNL     1     -11.701  -2.389  23.134  0.00  0.00    +0.000 C 
ATOM     31  H   UNL     1     -11.654   3.515  17.980  0.00  0.00    +0.000 HD
ATOM     32  H   UNL     1     -13.194   3.241  19.467  0.00  0.00    +0.000 HD
ATOM     33  H   UNL     1     -13.760   1.713  21.090  0.00  0.00    +0.000 HD
ATOM     34  H   UNL     1     -12.851   0.402  20.450  0.00  0.00    +0.000 HD
ATOM     35  H   UNL     1     -12.035   2.721  22.232  0.00  0.00    +0.000 HD
ATOM     36  H   UNL     1     -10.961  -0.467  16.657  0.00  0.00    +0.000 HD
ATOM     37  H   UNL     1     -11.807  -2.696  16.250  0.00  0.00    +0.000 HD
ATOM     38  H   UNL     1     -12.277  -4.285  18.082  0.00  0.00    +0.000 HD
ATOM     39  H   UNL     1     -11.898  -3.605  20.397  0.00  0.00    +0.000 HD
ATOM     40  H   UNL     1      -8.568  -0.427  25.611  0.00  0.00    +0.000 HD
ATOM     41  H   UNL     1      -9.289   1.481  26.992  0.00  0.00    +0.000 HD
ATOM     42  H   UNL     1      -9.561   3.720  25.946  0.00  0.00    +0.000 HD
ATOM     43  H   UNL     1      -8.239   3.342  23.736  0.00  0.00    +0.000 HD
ATOM     44  H   UNL     1     -11.146  -3.430  24.992  0.00  0.00    +0.000 HD
ATOM     45  H   UNL     1     -12.280  -1.568  23.593  0.00  0.00    +0.000 HD
ATOM     46  H   UNL     1     -12.373  -3.138  22.722  0.00  0.00    +0.000 HD
ENDROOT
BRANCH   6  47
ATOM     47  C   UNL     1      -9.385   3.200  19.036  0.00  0.00    +0.000 C 
ATOM     48  H   UNL     1      -8.541   2.924  18.421  0.00  0.00    +0.000 HD
ATOM     49  H   UNL     1      -9.043   3.658  19.970  0.00  0.00    +0.000 HD
ATOM     50  H   UNL     1      -9.837   4.067  18.499  0.00  0.00    +0.000 HD
ENDBRANCH   6  47
BRANCH   2  51
ATOM     51  N   UNL     1     -14.102   2.093  18.033  0.00  0.00    +0.000 N 
ATOM     52  C   UNL     1     -14.551   3.355  17.555  0.00  0.00    +0.000 C 
ATOM     53  O   UNL     1     -14.751   4.298  18.313  0.00  0.00    +0.000 OA
BRANCH  51  54
ATOM     54  C   UNL     1     -14.059   0.984  17.084  0.00  0.00    +0.000 C 
ATOM     55  H   UNL     1     -13.838   1.324  16.080  0.00  0.00    +0.000 HD
ATOM     56  H   UNL     1     -14.987   0.405  17.095  0.00  0.00    +0.000 HD
ATOM     57  H   UNL     1     -13.280   0.272  17.407  0.00  0.00    +0.000 HD
ENDBRANCH  51  54
BRANCH  52  58
ATOM     58  C   UNL     1     -14.640   3.588  16.018  0.00  0.00    +0.000 C 
ATOM     59  H   UNL     1     -14.251   4.580  15.788  0.00  0.00    +0.000 HD
ATOM     60  H   UNL     1     -14.056   2.846  15.480  0.00  0.00    +0.000 HD
BRANCH  58  61
ATOM     61  C   UNL     1     -16.111   3.538  15.565  0.00  0.00    +0.000 C 
ATOM     62  H   UNL     1     -16.193   3.051  14.592  0.00  0.00    +0.000 HD
ATOM     63  H   UNL     1     -16.705   2.979  16.297  0.00  0.00    +0.000 HD
BRANCH  61  64
ATOM     64  C   UNL     1     -16.748   4.904  15.441  0.00  0.00    +0.000 C 
ATOM     65  O   UNL     1     -16.914   5.525  14.406  0.00  0.00    +0.000 OA
BRANCH  64  66
ATOM     66  O   UNL     1     -17.130   5.399  16.649  0.00  0.00    +0.000 OA
ATOM     67  H   UNL     1     -17.618   4.756  17.204  0.00  0.00    +0.000 HD
ENDBRANCH  64  66
ENDBRANCH  61  64
ENDBRANCH  58  61
ENDBRANCH  52  58
ENDBRANCH   2  51
BRANCH   1  68
ATOM     68  O   UNL     1     -11.493   1.749  17.034  0.00  0.00    +0.000 OA
BRANCH  68  69
ATOM     69  C   UNL     1     -10.986   2.494  15.931  0.00  0.00    +0.000 C 
ATOM     70  H   UNL     1     -10.353   3.308  16.283  0.00  0.00    +0.000 HD
ATOM     71  H   UNL     1     -11.826   2.916  15.373  0.00  0.00    +0.000 HD
ATOM     72  H   UNL     1     -10.470   1.861  15.210  0.00  0.00    +0.000 HD
ENDBRANCH  68  69
ENDBRANCH   1  68
TORSDOF 9
ENDMDL
MODEL 6
REMARK VINA RESULT:    -6.133      4.815      6.940
REMARK INTER + INTRA:          -9.928
REMARK INTER:                  -8.946
REMARK INTRA:                  -0.982
REMARK UNBOUND:                -1.285
REMARK  Name = 
REMARK  9 active torsions:
REMARK  status: ('A' for Active; 'I' for Inactive)
REMARK    1  A    between atoms: C_1  and  O_2
REMARK    2  A    between atoms: O_2  and  C_3
REMARK    3  A    between atoms: C_4  and  N_5
REMARK    4  A    between atoms: N_5  and  C_6
REMARK    5  A    between atoms: C_7  and  C_9
REMARK    6  A    between atoms: C_9  and  C_10
REMARK    7  A    between atoms: C_10  and  C_11
REMARK    8  A    between atoms: C_11  and  O_13
REMARK    9  A    between atoms: C_17  and  C_18
REMARK                            x       y       z     vdW  Elec       q    Type
REMARK                         _______ _______ _______ _____ _____    ______ ____
ROOT
ATOM      1  C   UNL     1     -11.144  -1.835  11.223  0.00  0.00    +0.000 C 
ATOM      2  C   UNL     1      -9.644  -1.524  11.550  0.00  0.00    +0.000 C 
ATOM      3  C   UNL     1      -9.206  -1.701  13.152  0.00  0.00    +0.000 C 
ATOM      4  C   UNL     1      -9.812  -3.141  13.817  0.00  0.00    +0.000 C 
ATOM      5  O   UNL     1     -10.649  -3.521  12.775  0.00  0.00    +0.000 OA
ATOM      6  C   UNL     1     -11.706  -2.527  12.453  0.00  0.00    +0.000 C 
ATOM      7  N   UNL     1     -12.038  -1.479  13.548  0.00  0.00    +0.000 N 
ATOM      8  C   UNL     1     -11.951   0.004  13.678  0.00  0.00    +0.000 A 
ATOM      9  C   UNL     1     -12.398   1.104  12.900  0.00  0.00    +0.000 A 
ATOM     10  C   UNL     1     -12.297   2.439  13.378  0.00  0.00    +0.000 A 
ATOM     11  C   UNL     1     -11.729   2.755  14.595  0.00  0.00    +0.000 A 
ATOM     12  C   UNL     1     -11.248   1.758  15.384  0.00  0.00    +0.000 A 
ATOM     13  C   UNL     1     -11.393   0.418  14.981  0.00  0.00    +0.000 A 
ATOM     14  C   UNL     1     -11.241  -0.721  15.710  0.00  0.00    +0.000 A 
ATOM     15  C   UNL     1     -10.837  -0.799  17.057  0.00  0.00    +0.000 A 
ATOM     16  C   UNL     1     -11.498  -1.784  17.778  0.00  0.00    +0.000 A 
ATOM     17  C   UNL     1     -11.911  -2.854  16.897  0.00  0.00    +0.000 A 
ATOM     18  C   UNL     1     -11.194  -4.060  17.149  0.00  0.00    +0.000 A 
ATOM     19  C   UNL     1     -10.732  -4.720  18.304  0.00  0.00    +0.000 A 
ATOM     20  C   UNL     1      -9.900  -5.815  18.128  0.00  0.00    +0.000 A 
ATOM     21  C   UNL     1      -9.810  -6.412  16.870  0.00  0.00    +0.000 A 
ATOM     22  C   UNL     1     -10.518  -5.940  15.764  0.00  0.00    +0.000 A 
ATOM     23  C   UNL     1     -10.725  -4.567  15.880  0.00  0.00    +0.000 A 
ATOM     24  N   UNL     1     -10.657  -3.515  14.961  0.00  0.00    +0.000 N 
ATOM     25  C   UNL     1     -11.709  -2.838  15.471  0.00  0.00    +0.000 A 
ATOM     26  C   UNL     1     -11.825  -1.651  14.893  0.00  0.00    +0.000 A 
ATOM     27  C   UNL     1     -11.086  -1.687  19.142  0.00  0.00    +0.000 C 
ATOM     28  O   UNL     1     -11.441  -2.188  20.169  0.00  0.00    +0.000 OA
ATOM     29  N   UNL     1      -9.993  -0.803  19.084  0.00  0.00    +0.000 N 
ATOM     30  C   UNL     1      -9.618  -0.379  17.755  0.00  0.00    +0.000 C 
ATOM     31  H   UNL     1     -11.095  -2.513  10.360  0.00  0.00    +0.000 HD
ATOM     32  H   UNL     1      -9.109  -2.418  11.201  0.00  0.00    +0.000 HD
ATOM     33  H   UNL     1      -8.110  -1.789  13.175  0.00  0.00    +0.000 HD
ATOM     34  H   UNL     1      -9.402  -0.809  13.744  0.00  0.00    +0.000 HD
ATOM     35  H   UNL     1      -8.945  -3.807  13.904  0.00  0.00    +0.000 HD
ATOM     36  H   UNL     1     -12.923   0.972  11.972  0.00  0.00    +0.000 HD
ATOM     37  H   UNL     1     -12.713   3.243  12.776  0.00  0.00    +0.000 HD
ATOM     38  H   UNL     1     -11.712   3.780  14.969  0.00  0.00    +0.000 HD
ATOM     39  H   UNL     1     -10.882   1.978  16.392  0.00  0.00    +0.000 HD
ATOM     40  H   UNL     1     -10.929  -4.341  19.301  0.00  0.00    +0.000 HD
ATOM     41  H   UNL     1      -9.371  -6.221  18.976  0.00  0.00    +0.000 HD
ATOM     42  H   UNL     1      -9.262  -7.358  16.768  0.00  0.00    +0.000 HD
ATOM     43  H   UNL     1     -11.488  -6.507  15.719  0.00  0.00    +0.000 HD
ATOM     44  H   UNL     1      -9.418  -0.683  19.926  0.00  0.00    +0.000 HD
ATOM     45  H   UNL     1      -8.774  -1.017  17.439  0.00  0.00    +0.000 HD
ATOM     46  H   UNL     1      -9.333   0.670  17.711  0.00  0.00    +0.000 HD
ENDROOT
BRANCH   6  47
ATOM     47  C   UNL     1     -12.650  -3.667  11.977  0.00  0.00    +0.000 C 
ATOM     48  H   UNL     1     -12.625  -4.619  12.485  0.00  0.00    +0.000 HD
ATOM     49  H   UNL     1     -12.612  -3.811  10.893  0.00  0.00    +0.000 HD
ATOM     50  H   UNL     1     -13.695  -3.308  12.131  0.00  0.00    +0.000 HD
ENDBRANCH   6  47
BRANCH   2  51
ATOM     51  N   UNL     1      -9.146  -0.470  10.569  0.00  0.00    +0.000 N 
ATOM     52  C   UNL     1      -8.557   0.635  11.243  0.00  0.00    +0.000 C 
ATOM     53  O   UNL     1      -9.083   1.145  12.227  0.00  0.00    +0.000 OA
BRANCH  51  54
ATOM     54  C   UNL     1      -8.542  -0.897   9.309  0.00  0.00    +0.000 C 
ATOM     55  H   UNL     1      -8.527  -1.976   9.217  0.00  0.00    +0.000 HD
ATOM     56  H   UNL     1      -7.535  -0.489   9.184  0.00  0.00    +0.000 HD
ATOM     57  H   UNL     1      -9.124  -0.469   8.474  0.00  0.00    +0.000 HD
ENDBRANCH  51  54
BRANCH  52  58
ATOM     58  C   UNL     1      -7.137   1.107  10.816  0.00  0.00    +0.000 C 
ATOM     59  H   UNL     1      -6.965   0.818   9.779  0.00  0.00    +0.000 HD
ATOM     60  H   UNL     1      -7.045   2.187  10.901  0.00  0.00    +0.000 HD
BRANCH  58  61
ATOM     61  C   UNL     1      -6.071   0.414  11.685  0.00  0.00    +0.000 C 
ATOM     62  H   UNL     1      -5.654   1.116  12.408  0.00  0.00    +0.000 HD
ATOM     63  H   UNL     1      -6.522  -0.428  12.222  0.00  0.00    +0.000 HD
BRANCH  61  64
ATOM     64  C   UNL     1      -4.918  -0.150  10.885  0.00  0.00    +0.000 C 
ATOM     65  O   UNL     1      -4.860  -0.224   9.670  0.00  0.00    +0.000 OA
BRANCH  64  66
ATOM     66  O   UNL     1      -3.910  -0.591  11.685  0.00  0.00    +0.000 OA
ATOM     67  H   UNL     1      -3.410  -1.345  11.312  0.00  0.00    +0.000 HD
ENDBRANCH  64  66
ENDBRANCH  61  64
ENDBRANCH  58  61
ENDBRANCH  52  58
ENDBRANCH   2  51
BRANCH   1  68
ATOM     68  O   UNL     1     -11.942  -0.736  10.766  0.00  0.00    +0.000 OA
BRANCH  68  69
ATOM     69  C   UNL     1     -12.584  -0.899   9.505  0.00  0.00    +0.000 C 
ATOM     70  H   UNL     1     -12.797  -1.952   9.323  0.00  0.00    +0.000 HD
ATOM     71  H   UNL     1     -11.920  -0.532   8.719  0.00  0.00    +0.000 HD
ATOM     72  H   UNL     1     -13.479  -0.282   9.417  0.00  0.00    +0.000 HD
ENDBRANCH  68  69
ENDBRANCH   1  68
TORSDOF 9
ENDMDL
MODEL 7
REMARK VINA RESULT:    -5.973      2.767      4.373
REMARK INTER + INTRA:          -9.703
REMARK INTER:                  -9.422
REMARK INTRA:                  -0.281
REMARK UNBOUND:                -1.285
REMARK  Name = 
REMARK  9 active torsions:
REMARK  status: ('A' for Active; 'I' for Inactive)
REMARK    1  A    between atoms: C_1  and  O_2
REMARK    2  A    between atoms: O_2  and  C_3
REMARK    3  A    between atoms: C_4  and  N_5
REMARK    4  A    between atoms: N_5  and  C_6
REMARK    5  A    between atoms: C_7  and  C_9
REMARK    6  A    between atoms: C_9  and  C_10
REMARK    7  A    between atoms: C_10  and  C_11
REMARK    8  A    between atoms: C_11  and  O_13
REMARK    9  A    between atoms: C_17  and  C_18
REMARK                            x       y       z     vdW  Elec       q    Type
REMARK                         _______ _______ _______ _____ _____    ______ ____
ROOT
ATOM      1  C   UNL     1     -10.843  -0.754  16.577  0.00  0.00    +0.000 C 
ATOM      2  C   UNL     1      -9.674   0.280  16.457  0.00  0.00    +0.000 C 
ATOM      3  C   UNL     1      -9.280   1.086  17.866  0.00  0.00    +0.000 C 
ATOM      4  C   UNL     1      -9.186   0.031  19.193  0.00  0.00    +0.000 C 
ATOM      5  O   UNL     1      -9.702  -1.111  18.593  0.00  0.00    +0.000 OA
ATOM      6  C   UNL     1     -11.081  -0.948  18.064  0.00  0.00    +0.000 C 
ATOM      7  N   UNL     1     -11.912   0.237  18.628  0.00  0.00    +0.000 N 
ATOM      8  C   UNL     1     -12.524   1.479  18.076  0.00  0.00    +0.000 A 
ATOM      9  C   UNL     1     -13.389   1.770  16.990  0.00  0.00    +0.000 A 
ATOM     10  C   UNL     1     -13.938   3.068  16.806  0.00  0.00    +0.000 A 
ATOM     11  C   UNL     1     -13.638   4.129  17.636  0.00  0.00    +0.000 A 
ATOM     12  C   UNL     1     -12.790   3.937  18.681  0.00  0.00    +0.000 A 
ATOM     13  C   UNL     1     -12.282   2.651  18.940  0.00  0.00    +0.000 A 
ATOM     14  C   UNL     1     -11.658   2.182  20.055  0.00  0.00    +0.000 A 
ATOM     15  C   UNL     1     -11.329   2.930  21.202  0.00  0.00    +0.000 A 
ATOM     16  C   UNL     1     -11.494   2.228  22.388  0.00  0.00    +0.000 A 
ATOM     17  C   UNL     1     -11.326   0.811  22.156  0.00  0.00    +0.000 A 
ATOM     18  C   UNL     1     -10.146   0.306  22.778  0.00  0.00    +0.000 A 
ATOM     19  C   UNL     1      -9.489   0.538  24.001  0.00  0.00    +0.000 A 
ATOM     20  C   UNL     1      -8.238  -0.035  24.177  0.00  0.00    +0.000 A 
ATOM     21  C   UNL     1      -7.823  -1.051  23.314  0.00  0.00    +0.000 A 
ATOM     22  C   UNL     1      -8.615  -1.510  22.262  0.00  0.00    +0.000 A 
ATOM     23  C   UNL     1      -9.437  -0.485  21.799  0.00  0.00    +0.000 A 
ATOM     24  N   UNL     1      -9.817  -0.078  20.516  0.00  0.00    +0.000 N 
ATOM     25  C   UNL     1     -11.085   0.236  20.858  0.00  0.00    +0.000 A 
ATOM     26  C   UNL     1     -11.708   0.829  19.849  0.00  0.00    +0.000 A 
ATOM     27  C   UNL     1     -11.239   3.123  23.471  0.00  0.00    +0.000 C 
ATOM     28  O   UNL     1     -11.372   3.070  24.659  0.00  0.00    +0.000 OA
ATOM     29  N   UNL     1     -10.675   4.244  22.835  0.00  0.00    +0.000 N 
ATOM     30  C   UNL     1     -10.474   4.103  21.411  0.00  0.00    +0.000 C 
ATOM     31  H   UNL     1     -10.447  -1.664  16.105  0.00  0.00    +0.000 HD
ATOM     32  H   UNL     1      -8.770  -0.347  16.446  0.00  0.00    +0.000 HD
ATOM     33  H   UNL     1      -8.269   1.496  17.727  0.00  0.00    +0.000 HD
ATOM     34  H   UNL     1      -9.893   1.970  18.031  0.00  0.00    +0.000 HD
ATOM     35  H   UNL     1      -8.114  -0.072  19.404  0.00  0.00    +0.000 HD
ATOM     36  H   UNL     1     -13.749   1.006  16.325  0.00  0.00    +0.000 HD
ATOM     37  H   UNL     1     -14.648   3.227  15.998  0.00  0.00    +0.000 HD
ATOM     38  H   UNL     1     -14.113   5.104  17.513  0.00  0.00    +0.000 HD
ATOM     39  H   UNL     1     -12.615   4.739  19.406  0.00  0.00    +0.000 HD
ATOM     40  H   UNL     1      -9.885   1.217  24.747  0.00  0.00    +0.000 HD
ATOM     41  H   UNL     1      -7.623   0.278  25.005  0.00  0.00    +0.000 HD
ATOM     42  H   UNL     1      -6.897  -1.595  23.541  0.00  0.00    +0.000 HD
ATOM     43  H   UNL     1      -9.212  -2.383  22.646  0.00  0.00    +0.000 HD
ATOM     44  H   UNL     1     -10.261   4.979  23.420  0.00  0.00    +0.000 HD
ATOM     45  H   UNL     1      -9.418   3.822  21.262  0.00  0.00    +0.000 HD
ATOM     46  H   UNL     1     -10.703   5.013  20.861  0.00  0.00    +0.000 HD
ENDROOT
BRANCH   6  47
ATOM     47  C   UNL     1     -11.371  -2.454  18.316  0.00  0.00    +0.000 C 
ATOM     48  H   UNL     1     -11.396  -3.134  17.477  0.00  0.00    +0.000 HD
ATOM     49  H   UNL     1     -12.244  -2.607  18.957  0.00  0.00    +0.000 HD
ATOM     50  H   UNL     1     -10.540  -2.843  18.952  0.00  0.00    +0.000 HD
ENDBRANCH   6  47
BRANCH   2  51
ATOM     51  N   UNL     1      -9.670   0.842  15.041  0.00  0.00    +0.000 N 
ATOM     52  C   UNL     1      -9.044  -0.049  14.126  0.00  0.00    +0.000 C 
ATOM     53  O   UNL     1      -7.987  -0.609  14.393  0.00  0.00    +0.000 OA
BRANCH  51  54
ATOM     54  C   UNL     1     -10.830   1.595  14.569  0.00  0.00    +0.000 C 
ATOM     55  H   UNL     1     -11.498   0.976  13.983  0.00  0.00    +0.000 HD
ATOM     56  H   UNL     1     -10.535   2.481  14.001  0.00  0.00    +0.000 HD
ATOM     57  H   UNL     1     -11.375   1.990  15.443  0.00  0.00    +0.000 HD
ENDBRANCH  51  54
BRANCH  52  58
ATOM     58  C   UNL     1      -9.798  -0.440  12.821  0.00  0.00    +0.000 C 
ATOM     59  H   UNL     1     -10.828  -0.692  13.071  0.00  0.00    +0.000 HD
ATOM     60  H   UNL     1      -9.798   0.384  12.112  0.00  0.00    +0.000 HD
BRANCH  58  61
ATOM     61  C   UNL     1      -9.144  -1.684  12.191  0.00  0.00    +0.000 C 
ATOM     62  H   UNL     1      -9.583  -1.890  11.214  0.00  0.00    +0.000 HD
ATOM     63  H   UNL     1      -8.067  -1.515  12.073  0.00  0.00    +0.000 HD
BRANCH  61  64
ATOM     64  C   UNL     1      -9.298  -2.933  13.029  0.00  0.00    +0.000 C 
ATOM     65  O   UNL     1     -10.352  -3.463  13.334  0.00  0.00    +0.000 OA
BRANCH  64  66
ATOM     66  O   UNL     1      -8.097  -3.427  13.433  0.00  0.00    +0.000 OA
ATOM     67  H   UNL     1      -8.163  -4.098  14.143  0.00  0.00    +0.000 HD
ENDBRANCH  64  66
ENDBRANCH  61  64
ENDBRANCH  58  61
ENDBRANCH  52  58
ENDBRANCH   2  51
BRANCH   1  68
ATOM     68  O   UNL     1     -12.035  -0.462  15.835  0.00  0.00    +0.000 OA
BRANCH  68  69
ATOM     69  C   UNL     1     -12.608  -1.542  15.104  0.00  0.00    +0.000 C 
ATOM     70  H   UNL     1     -12.897  -1.212  14.106  0.00  0.00    +0.000 HD
ATOM     71  H   UNL     1     -13.498  -1.894  15.631  0.00  0.00    +0.000 HD
ATOM     72  H   UNL     1     -11.949  -2.410  15.070  0.00  0.00    +0.000 HD
ENDBRANCH  68  69
ENDBRANCH   1  68
TORSDOF 9
ENDMDL
MODEL 8
REMARK VINA RESULT:    -5.870      3.353      7.293
REMARK INTER + INTRA:          -9.558
REMARK INTER:                  -8.627
REMARK INTRA:                  -0.930
REMARK UNBOUND:                -1.285
REMARK  Name = 
REMARK  9 active torsions:
REMARK  status: ('A' for Active; 'I' for Inactive)
REMARK    1  A    between atoms: C_1  and  O_2
REMARK    2  A    between atoms: O_2  and  C_3
REMARK    3  A    between atoms: C_4  and  N_5
REMARK    4  A    between atoms: N_5  and  C_6
REMARK    5  A    between atoms: C_7  and  C_9
REMARK    6  A    between atoms: C_9  and  C_10
REMARK    7  A    between atoms: C_10  and  C_11
REMARK    8  A    between atoms: C_11  and  O_13
REMARK    9  A    between atoms: C_17  and  C_18
REMARK                            x       y       z     vdW  Elec       q    Type
REMARK                         _______ _______ _______ _____ _____    ______ ____
ROOT
ATOM      1  C   UNL     1     -13.188   3.975  16.281  0.00  0.00    +0.000 C 
ATOM      2  C   UNL     1     -14.509   3.149  16.440  0.00  0.00    +0.000 C 
ATOM      3  C   UNL     1     -14.330   1.633  17.118  0.00  0.00    +0.000 C 
ATOM      4  C   UNL     1     -13.323   1.666  18.484  0.00  0.00    +0.000 C 
ATOM      5  O   UNL     1     -12.854   2.969  18.371  0.00  0.00    +0.000 OA
ATOM      6  C   UNL     1     -12.137   3.248  17.100  0.00  0.00    +0.000 C 
ATOM      7  N   UNL     1     -11.605   2.020  16.313  0.00  0.00    +0.000 N 
ATOM      8  C   UNL     1     -11.862   1.404  14.979  0.00  0.00    +0.000 A 
ATOM      9  C   UNL     1     -11.884   1.884  13.645  0.00  0.00    +0.000 A 
ATOM     10  C   UNL     1     -12.011   0.998  12.540  0.00  0.00    +0.000 A 
ATOM     11  C   UNL     1     -12.161  -0.365  12.691  0.00  0.00    +0.000 A 
ATOM     12  C   UNL     1     -12.182  -0.898  13.942  0.00  0.00    +0.000 A 
ATOM     13  C   UNL     1     -11.988  -0.064  15.059  0.00  0.00    +0.000 A 
ATOM     14  C   UNL     1     -11.704  -0.403  16.346  0.00  0.00    +0.000 A 
ATOM     15  C   UNL     1     -11.597  -1.711  16.858  0.00  0.00    +0.000 A 
ATOM     16  C   UNL     1     -10.588  -1.857  17.799  0.00  0.00    +0.000 A 
ATOM     17  C   UNL     1     -10.352  -0.601  18.476  0.00  0.00    +0.000 A 
ATOM     18  C   UNL     1     -10.747  -0.651  19.845  0.00  0.00    +0.000 A 
ATOM     19  C   UNL     1     -10.673  -1.616  20.868  0.00  0.00    +0.000 A 
ATOM     20  C   UNL     1     -11.341  -1.347  22.053  0.00  0.00    +0.000 A 
ATOM     21  C   UNL     1     -11.773  -0.047  22.316  0.00  0.00    +0.000 A 
ATOM     22  C   UNL     1     -11.573   1.005  21.421  0.00  0.00    +0.000 A 
ATOM     23  C   UNL     1     -11.547   0.522  20.115  0.00  0.00    +0.000 A 
ATOM     24  N   UNL     1     -12.087   0.996  18.915  0.00  0.00    +0.000 N 
ATOM     25  C   UNL     1     -11.038   0.623  18.152  0.00  0.00    +0.000 A 
ATOM     26  C   UNL     1     -11.308   0.799  16.866  0.00  0.00    +0.000 A 
ATOM     27  C   UNL     1     -10.509  -3.238  18.153  0.00  0.00    +0.000 C 
ATOM     28  O   UNL     1      -9.748  -3.904  18.794  0.00  0.00    +0.000 OA
ATOM     29  N   UNL     1     -11.673  -3.783  17.581  0.00  0.00    +0.000 N 
ATOM     30  C   UNL     1     -12.546  -2.826  16.941  0.00  0.00    +0.000 C 
ATOM     31  H   UNL     1     -13.433   4.957  16.709  0.00  0.00    +0.000 HD
ATOM     32  H   UNL     1     -14.992   3.596  17.321  0.00  0.00    +0.000 HD
ATOM     33  H   UNL     1     -15.323   1.325  17.476  0.00  0.00    +0.000 HD
ATOM     34  H   UNL     1     -14.077   0.870  16.385  0.00  0.00    +0.000 HD
ATOM     35  H   UNL     1     -13.996   1.551  19.343  0.00  0.00    +0.000 HD
ATOM     36  H   UNL     1     -11.701   2.915  13.404  0.00  0.00    +0.000 HD
ATOM     37  H   UNL     1     -11.956   1.405  11.533  0.00  0.00    +0.000 HD
ATOM     38  H   UNL     1     -12.199  -1.035  11.830  0.00  0.00    +0.000 HD
ATOM     39  H   UNL     1     -12.202  -1.984  14.081  0.00  0.00    +0.000 HD
ATOM     40  H   UNL     1     -10.202  -2.580  20.716  0.00  0.00    +0.000 HD
ATOM     41  H   UNL     1     -11.475  -2.136  22.777  0.00  0.00    +0.000 HD
ATOM     42  H   UNL     1     -12.174   0.190  23.310  0.00  0.00    +0.000 HD
ATOM     43  H   UNL     1     -10.606   1.506  21.702  0.00  0.00    +0.000 HD
ATOM     44  H   UNL     1     -11.930  -4.747  17.823  0.00  0.00    +0.000 HD
ATOM     45  H   UNL     1     -13.341  -2.581  17.666  0.00  0.00    +0.000 HD
ATOM     46  H   UNL     1     -12.982  -3.203  16.018  0.00  0.00    +0.000 HD
ENDROOT
BRANCH   6  47
ATOM     47  C   UNL     1     -11.258   4.313  17.814  0.00  0.00    +0.000 C 
ATOM     48  H   UNL     1     -10.242   4.466  17.483  0.00  0.00    +0.000 HD
ATOM     49  H   UNL     1     -11.294   4.218  18.904  0.00  0.00    +0.000 HD
ATOM     50  H   UNL     1     -11.746   5.302  17.647  0.00  0.00    +0.000 HD
ENDBRANCH   6  47
BRANCH   2  51
ATOM     51  N   UNL     1     -15.470   3.555  15.329  0.00  0.00    +0.000 N 
ATOM     52  C   UNL     1     -15.988   2.421  14.646  0.00  0.00    +0.000 C 
ATOM     53  O   UNL     1     -15.268   1.489  14.304  0.00  0.00    +0.000 OA
BRANCH  51  54
ATOM     54  C   UNL     1     -16.366   4.689  15.540  0.00  0.00    +0.000 C 
ATOM     55  H   UNL     1     -16.614   5.183  14.608  0.00  0.00    +0.000 HD
ATOM     56  H   UNL     1     -15.952   5.407  16.254  0.00  0.00    +0.000 HD
ATOM     57  H   UNL     1     -17.293   4.324  16.015  0.00  0.00    +0.000 HD
ENDBRANCH  51  54
BRANCH  52  58
ATOM     58  C   UNL     1     -17.529   2.290  14.468  0.00  0.00    +0.000 C 
ATOM     59  H   UNL     1     -17.979   3.278  14.548  0.00  0.00    +0.000 HD
ATOM     60  H   UNL     1     -17.772   1.868  13.495  0.00  0.00    +0.000 HD
BRANCH  58  61
ATOM     61  C   UNL     1     -18.113   1.410  15.589  0.00  0.00    +0.000 C 
ATOM     62  H   UNL     1     -17.385   0.660  15.902  0.00  0.00    +0.000 HD
ATOM     63  H   UNL     1     -18.377   2.034  16.450  0.00  0.00    +0.000 HD
BRANCH  61  64
ATOM     64  C   UNL     1     -19.372   0.677  15.182  0.00  0.00    +0.000 C 
ATOM     65  O   UNL     1     -20.338   1.169  14.628  0.00  0.00    +0.000 OA
BRANCH  64  66
ATOM     66  O   UNL     1     -19.322  -0.642  15.512  0.00  0.00    +0.000 OA
ATOM     67  H   UNL     1     -18.652  -1.150  15.011  0.00  0.00    +0.000 HD
ENDBRANCH  64  66
ENDBRANCH  61  64
ENDBRANCH  58  61
ENDBRANCH  52  58
ENDBRANCH   2  51
BRANCH   1  68
ATOM     68  O   UNL     1     -12.774   4.267  14.940  0.00  0.00    +0.000 OA
BRANCH  68  69
ATOM     69  C   UNL     1     -12.617   5.644  14.610  0.00  0.00    +0.000 C 
ATOM     70  H   UNL     1     -11.568   5.931  14.669  0.00  0.00    +0.000 HD
ATOM     71  H   UNL     1     -13.189   6.246  15.321  0.00  0.00    +0.000 HD
ATOM     72  H   UNL     1     -13.050   5.885  13.639  0.00  0.00    +0.000 HD
ENDBRANCH  68  69
ENDBRANCH   1  68
TORSDOF 9
ENDMDL
MODEL 9
REMARK VINA RESULT:    -5.842      5.894     10.794
REMARK INTER + INTRA:          -9.518
REMARK INTER:                  -8.399
REMARK INTRA:                  -1.120
REMARK UNBOUND:                -1.285
REMARK  Name = 
REMARK  9 active torsions:
REMARK  status: ('A' for Active; 'I' for Inactive)
REMARK    1  A    between atoms: C_1  and  O_2
REMARK    2  A    between atoms: O_2  and  C_3
REMARK    3  A    between atoms: C_4  and  N_5
REMARK    4  A    between atoms: N_5  and  C_6
REMARK    5  A    between atoms: C_7  and  C_9
REMARK    6  A    between atoms: C_9  and  C_10
REMARK    7  A    between atoms: C_10  and  C_11
REMARK    8  A    between atoms: C_11  and  O_13
REMARK    9  A    between atoms: C_17  and  C_18
REMARK                            x       y       z     vdW  Elec       q    Type
REMARK                         _______ _______ _______ _____ _____    ______ ____
ROOT
ATOM      1  C   UNL     1      -9.767   0.544  15.145  0.00  0.00    +0.000 C 
ATOM      2  C   UNL     1      -9.531  -1.004  15.145  0.00  0.00    +0.000 C 
ATOM      3  C   UNL     1      -9.115  -1.667  13.669  0.00  0.00    +0.000 C 
ATOM      4  C   UNL     1      -7.927  -0.750  12.876  0.00  0.00    +0.000 C 
ATOM      5  O   UNL     1      -7.920   0.359  13.714  0.00  0.00    +0.000 OA
ATOM      6  C   UNL     1      -9.231   1.050  13.817  0.00  0.00    +0.000 C 
ATOM      7  N   UNL     1     -10.259   0.773  12.688  0.00  0.00    +0.000 N 
ATOM      8  C   UNL     1     -11.613   0.156  12.595  0.00  0.00    +0.000 A 
ATOM      9  C   UNL     1     -12.846   0.343  13.273  0.00  0.00    +0.000 A 
ATOM     10  C   UNL     1     -14.035  -0.306  12.842  0.00  0.00    +0.000 A 
ATOM     11  C   UNL     1     -14.063  -1.181  11.776  0.00  0.00    +0.000 A 
ATOM     12  C   UNL     1     -12.914  -1.437  11.095  0.00  0.00    +0.000 A 
ATOM     13  C   UNL     1     -11.730  -0.761  11.444  0.00  0.00    +0.000 A 
ATOM     14  C   UNL     1     -10.564  -0.655  10.751  0.00  0.00    +0.000 A 
ATOM     15  C   UNL     1     -10.269  -1.270   9.518  0.00  0.00    +0.000 A 
ATOM     16  C   UNL     1      -9.523  -0.470   8.664  0.00  0.00    +0.000 A 
ATOM     17  C   UNL     1      -8.715   0.455   9.427  0.00  0.00    +0.000 A 
ATOM     18  C   UNL     1      -7.324   0.163   9.318  0.00  0.00    +0.000 A 
ATOM     19  C   UNL     1      -6.475  -0.265   8.280  0.00  0.00    +0.000 A 
ATOM     20  C   UNL     1      -5.175  -0.616   8.615  0.00  0.00    +0.000 A 
ATOM     21  C   UNL     1      -4.664  -0.239   9.858  0.00  0.00    +0.000 A 
ATOM     22  C   UNL     1      -5.417   0.470  10.794  0.00  0.00    +0.000 A 
ATOM     23  C   UNL     1      -6.768   0.164  10.652  0.00  0.00    +0.000 A 
ATOM     24  N   UNL     1      -7.790  -0.076  11.576  0.00  0.00    +0.000 N 
ATOM     25  C   UNL     1      -8.750   0.552  10.863  0.00  0.00    +0.000 A 
ATOM     26  C   UNL     1      -9.940   0.366  11.417  0.00  0.00    +0.000 A 
ATOM     27  C   UNL     1      -9.389  -1.156   7.419  0.00  0.00    +0.000 C 
ATOM     28  O   UNL     1      -8.975  -0.865   6.335  0.00  0.00    +0.000 OA
ATOM     29  N   UNL     1      -9.852  -2.451   7.715  0.00  0.00    +0.000 N 
ATOM     30  C   UNL     1     -10.206  -2.673   9.098  0.00  0.00    +0.000 C 
ATOM     31  H   UNL     1      -9.169   0.907  15.992  0.00  0.00    +0.000 HD
ATOM     32  H   UNL     1      -8.531  -1.116  15.589  0.00  0.00    +0.000 HD
ATOM     33  H   UNL     1      -8.659  -2.646  13.877  0.00  0.00    +0.000 HD
ATOM     34  H   UNL     1      -9.981  -1.915  13.059  0.00  0.00    +0.000 HD
ATOM     35  H   UNL     1      -7.002  -1.332  12.967  0.00  0.00    +0.000 HD
ATOM     36  H   UNL     1     -12.958   1.057  14.068  0.00  0.00    +0.000 HD
ATOM     37  H   UNL     1     -14.969  -0.080  13.351  0.00  0.00    +0.000 HD
ATOM     38  H   UNL     1     -14.995  -1.626  11.424  0.00  0.00    +0.000 HD
ATOM     39  H   UNL     1     -12.933  -2.052  10.189  0.00  0.00    +0.000 HD
ATOM     40  H   UNL     1      -6.835  -0.417   7.268  0.00  0.00    +0.000 HD
ATOM     41  H   UNL     1      -4.563  -1.132   7.893  0.00  0.00    +0.000 HD
ATOM     42  H   UNL     1      -3.597  -0.395  10.063  0.00  0.00    +0.000 HD
ATOM     43  H   UNL     1      -5.217   1.564  10.627  0.00  0.00    +0.000 HD
ATOM     44  H   UNL     1      -9.716  -3.189   7.015  0.00  0.00    +0.000 HD
ATOM     45  H   UNL     1      -9.341  -3.163   9.577  0.00  0.00    +0.000 HD
ATOM     46  H   UNL     1     -11.097  -3.287   9.213  0.00  0.00    +0.000 HD
ENDROOT
BRANCH   6  47
ATOM     47  C   UNL     1      -8.511   2.405  14.071  0.00  0.00    +0.000 C 
ATOM     48  H   UNL     1      -9.072   3.324  13.985  0.00  0.00    +0.000 HD
ATOM     49  H   UNL     1      -7.566   2.481  13.524  0.00  0.00    +0.000 HD
ATOM     50  H   UNL     1      -8.169   2.397  15.133  0.00  0.00    +0.000 HD
ENDBRANCH   6  47
BRANCH   2  51
ATOM     51  N   UNL     1     -10.412  -1.626  16.221  0.00  0.00    +0.000 N 
ATOM     52  C   UNL     1     -11.213  -2.678  15.696  0.00  0.00    +0.000 C 
ATOM     53  O   UNL     1     -11.810  -2.564  14.631  0.00  0.00    +0.000 OA
BRANCH  51  54
ATOM     54  C   UNL     1      -9.884  -1.786  17.573  0.00  0.00    +0.000 C 
ATOM     55  H   UNL     1      -9.060  -2.489  17.601  0.00  0.00    +0.000 HD
ATOM     56  H   UNL     1     -10.663  -2.082  18.281  0.00  0.00    +0.000 HD
ATOM     57  H   UNL     1      -9.534  -0.803  17.935  0.00  0.00    +0.000 HD
ENDBRANCH  51  54
BRANCH  52  58
ATOM     58  C   UNL     1     -11.205  -4.059  16.414  0.00  0.00    +0.000 C 
ATOM     59  H   UNL     1     -10.362  -4.095  17.103  0.00  0.00    +0.000 HD
ATOM     60  H   UNL     1     -12.125  -4.210  16.973  0.00  0.00    +0.000 HD
BRANCH  58  61
ATOM     61  C   UNL     1     -11.021  -5.186  15.380  0.00  0.00    +0.000 C 
ATOM     62  H   UNL     1     -11.636  -6.047  15.643  0.00  0.00    +0.000 HD
ATOM     63  H   UNL     1     -11.311  -4.827  14.386  0.00  0.00    +0.000 HD
BRANCH  61  64
ATOM     64  C   UNL     1      -9.592  -5.669  15.267  0.00  0.00    +0.000 C 
ATOM     65  O   UNL     1      -9.082  -6.554  15.932  0.00  0.00    +0.000 OA
BRANCH  64  66
ATOM     66  O   UNL     1      -8.898  -4.990  14.314  0.00  0.00    +0.000 OA
ATOM     67  H   UNL     1      -9.302  -5.035  13.424  0.00  0.00    +0.000 HD
ENDBRANCH  64  66
ENDBRANCH  61  64
ENDBRANCH  58  61
ENDBRANCH  52  58
ENDBRANCH   2  51
BRANCH   1  68
ATOM     68  O   UNL     1     -11.098   0.989  15.436  0.00  0.00    +0.000 OA
BRANCH  68  69
ATOM     69  C   UNL     1     -11.244   1.875  16.541  0.00  0.00    +0.000 C 
ATOM     70  H   UNL     1     -10.270   2.109  16.970  0.00  0.00    +0.000 HD
ATOM     71  H   UNL     1     -11.859   1.391  17.304  0.00  0.00    +0.000 HD
ATOM     72  H   UNL     1     -11.798   2.776  16.275  0.00  0.00    +0.000 HD
ENDBRANCH  68  69
ENDBRANCH   1  68
TORSDOF 9
ENDMDL
