MODEL 1
REMARK VINA RESULT:    -8.335      0.000      0.000
REMARK INTER + INTRA:         -11.215
REMARK INTER:                 -10.772
REMARK INTRA:                  -0.443
REMARK UNBOUND:                -0.443
REMARK  Name = 
REMARK  7 active torsions:
REMARK  status: ('A' for Active; 'I' for Inactive)
REMARK    1  A    between atoms: N_2  and  C_4
REMARK    2  A    between atoms: C_7  and  S_8
REMARK    3  A    between atoms: S_8  and  N_11
REMARK    4  A    between atoms: C_14  and  O_15
REMARK    5  A    between atoms: C_16  and  O_17
REMARK    6  A    between atoms: C_23  and  O_24
REMARK    7  A    between atoms: C_25  and  O_26
REMARK                            x       y       z     vdW  Elec       q    Type
REMARK                         _______ _______ _______ _____ _____    ______ ____
ROOT
ATOM      1  N   UNL     1      -9.286  -3.325  19.868  0.00  0.00    +0.000 N 
ATOM      2  C   UNL     1      -8.109  -3.906  20.322  0.00  0.00    +0.000 A 
ATOM      3  C   UNL     1      -7.278  -4.958  19.903  0.00  0.00    +0.000 A 
ATOM      4  C   UNL     1      -5.963  -4.892  20.351  0.00  0.00    +0.000 A 
ATOM      5  C   UNL     1      -5.520  -3.844  21.149  0.00  0.00    +0.000 A 
ATOM      6  C   UNL     1      -6.427  -3.030  21.809  0.00  0.00    +0.000 A 
ATOM      7  C   UNL     1      -7.775  -3.157  21.448  0.00  0.00    +0.000 A 
ATOM      8  C   UNL     1      -9.032  -2.814  22.000  0.00  0.00    +0.000 A 
ATOM      9  C   UNL     1      -9.546  -2.618  23.300  0.00  0.00    +0.000 A 
ATOM     10  C   UNL     1     -10.816  -2.059  23.456  0.00  0.00    +0.000 A 
ATOM     11  C   UNL     1     -11.435  -1.515  22.345  0.00  0.00    +0.000 A 
ATOM     12  C   UNL     1     -10.946  -1.738  21.053  0.00  0.00    +0.000 A 
ATOM     13  C   UNL     1      -9.854  -2.587  20.893  0.00  0.00    +0.000 A 
ATOM     14  H   UNL     1      -7.611  -5.727  19.217  0.00  0.00    +0.000 HD
ATOM     15  H   UNL     1      -6.097  -2.280  22.521  0.00  0.00    +0.000 HD
ATOM     16  H   UNL     1      -8.985  -2.962  24.167  0.00  0.00    +0.000 HD
ATOM     17  H   UNL     1     -11.250  -1.986  24.448  0.00  0.00    +0.000 HD
ENDROOT
BRANCH   1  18
ATOM     18  S   UNL     1     -10.099  -3.873  18.468  0.00  0.00    +0.000 S 
ATOM     19  O   UNL     1      -9.610  -3.028  17.390  0.00  0.00    +0.000 OA
ATOM     20  O   UNL     1     -11.513  -3.889  18.809  0.00  0.00    +0.000 OA
BRANCH  18  24
ATOM     21  C   UNL     1      -9.445  -8.214  17.242  0.00  0.00    +0.000 A 
ATOM     22  C   UNL     1      -8.848  -7.183  16.508  0.00  0.00    +0.000 A 
ATOM     23  C   UNL     1      -9.007  -5.863  16.926  0.00  0.00    +0.000 A 
ATOM     24  C   UNL     1      -9.688  -5.566  18.115  0.00  0.00    +0.000 A 
ATOM     25  C   UNL     1     -10.285  -6.602  18.848  0.00  0.00    +0.000 A 
ATOM     26  C   UNL     1     -10.171  -7.932  18.410  0.00  0.00    +0.000 A 
ATOM     27  H   UNL     1      -8.290  -7.387  15.597  0.00  0.00    +0.000 HD
ATOM     28  H   UNL     1      -8.593  -5.062  16.316  0.00  0.00    +0.000 HD
ATOM     29  H   UNL     1     -10.897  -6.392  19.724  0.00  0.00    +0.000 HD
ATOM     30  H   UNL     1     -10.676  -8.723  18.966  0.00  0.00    +0.000 HD
BRANCH  21  32
ATOM     31  O   UNL     1      -9.896  -9.879  15.691  0.00  0.00    +0.000 OA
ATOM     32  N   UNL     1      -9.340  -9.608  16.763  0.00  0.00    +0.000 N 
ATOM     33  O   UNL     1      -8.727 -10.403  17.465  0.00  0.00    +0.000 OA
ENDBRANCH  21  32
ENDBRANCH  18  24
ENDBRANCH   1  18
BRANCH   4  34
ATOM     34  O   UNL     1      -5.049  -5.842  19.988  0.00  0.00    +0.000 OA
ATOM     35  H   UNL     1      -4.262  -5.361  19.667  0.00  0.00    +0.000 HD
ENDBRANCH   4  34
BRANCH   5  36
ATOM     36  O   UNL     1      -4.183  -3.630  21.305  0.00  0.00    +0.000 OA
ATOM     37  H   UNL     1      -4.126  -3.007  22.059  0.00  0.00    +0.000 HD
ENDBRANCH   5  36
BRANCH  11  38
ATOM     38  O   UNL     1     -12.534  -0.706  22.469  0.00  0.00    +0.000 OA
ATOM     39  H   UNL     1     -13.260  -1.236  22.841  0.00  0.00    +0.000 HD
ENDBRANCH  11  38
BRANCH  12  40
ATOM     40  O   UNL     1     -11.444  -0.993  20.022  0.00  0.00    +0.000 OA
ATOM     41  H   UNL     1     -12.385  -0.852  20.257  0.00  0.00    +0.000 HD
ENDBRANCH  12  40
TORSDOF 7
ENDMDL
MODEL 2
REMARK VINA RESULT:    -8.034      3.097      6.506
REMARK INTER + INTRA:         -10.825
REMARK INTER:                 -10.453
REMARK INTRA:                  -0.372
REMARK UNBOUND:                -0.443
REMARK  Name = 
REMARK  7 active torsions:
REMARK  status: ('A' for Active; 'I' for Inactive)
REMARK    1  A    between atoms: N_2  and  C_4
REMARK    2  A    between atoms: C_7  and  S_8
REMARK    3  A    between atoms: S_8  and  N_11
REMARK    4  A    between atoms: C_14  and  O_15
REMARK    5  A    between atoms: C_16  and  O_17
REMARK    6  A    between atoms: C_23  and  O_24
REMARK    7  A    between atoms: C_25  and  O_26
REMARK                            x       y       z     vdW  Elec       q    Type
REMARK                         _______ _______ _______ _____ _____    ______ ____
ROOT
ATOM      1  N   UNL     1     -10.441  -4.316  17.012  0.00  0.00    +0.000 N 
ATOM      2  C   UNL     1     -11.000  -3.329  17.814  0.00  0.00    +0.000 A 
ATOM      3  C   UNL     1     -11.393  -3.226  19.159  0.00  0.00    +0.000 A 
ATOM      4  C   UNL     1     -11.445  -1.932  19.666  0.00  0.00    +0.000 A 
ATOM      5  C   UNL     1     -11.119  -0.831  18.882  0.00  0.00    +0.000 A 
ATOM      6  C   UNL     1     -11.072  -0.941  17.500  0.00  0.00    +0.000 A 
ATOM      7  C   UNL     1     -11.126  -2.233  16.964  0.00  0.00    +0.000 A 
ATOM      8  C   UNL     1     -11.411  -2.823  15.709  0.00  0.00    +0.000 A 
ATOM      9  C   UNL     1     -12.185  -2.475  14.581  0.00  0.00    +0.000 A 
ATOM     10  C   UNL     1     -12.052  -3.218  13.406  0.00  0.00    +0.000 A 
ATOM     11  C   UNL     1     -11.013  -4.126  13.316  0.00  0.00    +0.000 A 
ATOM     12  C   UNL     1     -10.268  -4.498  14.441  0.00  0.00    +0.000 A 
ATOM     13  C   UNL     1     -10.640  -3.988  15.682  0.00  0.00    +0.000 A 
ATOM     14  H   UNL     1     -11.567  -4.093  19.785  0.00  0.00    +0.000 HD
ATOM     15  H   UNL     1     -10.929  -0.068  16.871  0.00  0.00    +0.000 HD
ATOM     16  H   UNL     1     -12.924  -1.680  14.649  0.00  0.00    +0.000 HD
ATOM     17  H   UNL     1     -12.706  -3.009  12.565  0.00  0.00    +0.000 HD
ENDROOT
BRANCH   1  18
ATOM     18  S   UNL     1     -10.056  -5.871  17.608  0.00  0.00    +0.000 S 
ATOM     19  O   UNL     1      -9.926  -6.708  16.426  0.00  0.00    +0.000 OA
ATOM     20  O   UNL     1     -11.060  -6.171  18.617  0.00  0.00    +0.000 OA
BRANCH  18  24
ATOM     21  C   UNL     1      -6.014  -5.358  19.651  0.00  0.00    +0.000 A 
ATOM     22  C   UNL     1      -7.177  -4.901  20.279  0.00  0.00    +0.000 A 
ATOM     23  C   UNL     1      -8.413  -5.115  19.672  0.00  0.00    +0.000 A 
ATOM     24  C   UNL     1      -8.508  -5.853  18.484  0.00  0.00    +0.000 A 
ATOM     25  C   UNL     1      -7.340  -6.310  17.857  0.00  0.00    +0.000 A 
ATOM     26  C   UNL     1      -6.085  -6.058  18.436  0.00  0.00    +0.000 A 
ATOM     27  H   UNL     1      -7.135  -4.351  21.216  0.00  0.00    +0.000 HD
ATOM     28  H   UNL     1      -9.309  -4.702  20.134  0.00  0.00    +0.000 HD
ATOM     29  H   UNL     1      -7.377  -6.804  16.887  0.00  0.00    +0.000 HD
ATOM     30  H   UNL     1      -5.182  -6.382  17.917  0.00  0.00    +0.000 HD
BRANCH  21  32
ATOM     31  O   UNL     1      -4.509  -3.923  20.679  0.00  0.00    +0.000 OA
ATOM     32  N   UNL     1      -4.695  -5.071  20.254  0.00  0.00    +0.000 N 
ATOM     33  O   UNL     1      -3.874  -5.979  20.278  0.00  0.00    +0.000 OA
ENDBRANCH  21  32
ENDBRANCH  18  24
ENDBRANCH   1  18
BRANCH   4  34
ATOM     34  O   UNL     1     -11.786  -1.701  20.970  0.00  0.00    +0.000 OA
ATOM     35  H   UNL     1     -11.538  -0.777  21.161  0.00  0.00    +0.000 HD
ENDBRANCH   4  34
BRANCH   5  36
ATOM     36  O   UNL     1     -10.869   0.371  19.473  0.00  0.00    +0.000 OA
ATOM     37  H   UNL     1     -11.422   0.363  20.281  0.00  0.00    +0.000 HD
ENDBRANCH   5  36
BRANCH  11  38
ATOM     38  O   UNL     1     -10.649  -4.673  12.113  0.00  0.00    +0.000 OA
ATOM     39  H   UNL     1     -11.178  -4.249  11.415  0.00  0.00    +0.000 HD
ENDBRANCH  11  38
BRANCH  12  40
ATOM     40  O   UNL     1      -9.114  -5.205  14.263  0.00  0.00    +0.000 OA
ATOM     41  H   UNL     1      -8.531  -4.907  14.992  0.00  0.00    +0.000 HD
ENDBRANCH  12  40
TORSDOF 7
ENDMDL
MODEL 3
REMARK VINA RESULT:    -7.856      2.834      3.976
REMARK INTER + INTRA:         -10.595
REMARK INTER:                 -10.091
REMARK INTRA:                  -0.504
REMARK UNBOUND:                -0.443
REMARK  Name = 
REMARK  7 active torsions:
REMARK  status: ('A' for Active; 'I' for Inactive)
REMARK    1  A    between atoms: N_2  and  C_4
REMARK    2  A    between atoms: C_7  and  S_8
REMARK    3  A    between atoms: S_8  and  N_11
REMARK    4  A    between atoms: C_14  and  O_15
REMARK    5  A    between atoms: C_16  and  O_17
REMARK    6  A    between atoms: C_23  and  O_24
REMARK    7  A    between atoms: C_25  and  O_26
REMARK                            x       y       z     vdW  Elec       q    Type
REMARK                         _______ _______ _______ _____ _____    ______ ____
ROOT
ATOM      1  N   UNL     1      -9.225  -2.411  20.759  0.00  0.00    +0.000 N 
ATOM      2  C   UNL     1      -8.657  -3.595  20.306  0.00  0.00    +0.000 A 
ATOM      3  C   UNL     1      -8.880  -4.472  19.231  0.00  0.00    +0.000 A 
ATOM      4  C   UNL     1      -7.791  -5.259  18.870  0.00  0.00    +0.000 A 
ATOM      5  C   UNL     1      -6.574  -5.162  19.534  0.00  0.00    +0.000 A 
ATOM      6  C   UNL     1      -6.497  -4.552  20.777  0.00  0.00    +0.000 A 
ATOM      7  C   UNL     1      -7.625  -3.842  21.207  0.00  0.00    +0.000 A 
ATOM      8  C   UNL     1      -8.134  -3.348  22.433  0.00  0.00    +0.000 A 
ATOM      9  C   UNL     1      -8.014  -3.703  23.793  0.00  0.00    +0.000 A 
ATOM     10  C   UNL     1      -8.496  -2.832  24.772  0.00  0.00    +0.000 A 
ATOM     11  C   UNL     1      -8.874  -1.557  24.389  0.00  0.00    +0.000 A 
ATOM     12  C   UNL     1      -9.026  -1.215  23.041  0.00  0.00    +0.000 A 
ATOM     13  C   UNL     1      -8.861  -2.209  22.079  0.00  0.00    +0.000 A 
ATOM     14  H   UNL     1      -9.805  -4.483  18.668  0.00  0.00    +0.000 HD
ATOM     15  H   UNL     1      -5.579  -4.568  21.356  0.00  0.00    +0.000 HD
ATOM     16  H   UNL     1      -7.612  -4.675  24.071  0.00  0.00    +0.000 HD
ATOM     17  H   UNL     1      -8.485  -3.138  25.813  0.00  0.00    +0.000 HD
ENDROOT
BRANCH   1  18
ATOM     18  S   UNL     1     -10.535  -1.657  19.961  0.00  0.00    +0.000 S 
ATOM     19  O   UNL     1     -10.187  -0.247  19.908  0.00  0.00    +0.000 OA
ATOM     20  O   UNL     1     -11.733  -2.096  20.661  0.00  0.00    +0.000 OA
BRANCH  18  24
ATOM     21  C   UNL     1     -11.304  -2.850  15.629  0.00  0.00    +0.000 A 
ATOM     22  C   UNL     1     -10.256  -1.976  15.938  0.00  0.00    +0.000 A 
ATOM     23  C   UNL     1      -9.993  -1.664  17.270  0.00  0.00    +0.000 A 
ATOM     24  C   UNL     1     -10.714  -2.278  18.304  0.00  0.00    +0.000 A 
ATOM     25  C   UNL     1     -11.764  -3.154  17.991  0.00  0.00    +0.000 A 
ATOM     26  C   UNL     1     -12.068  -3.438  16.650  0.00  0.00    +0.000 A 
ATOM     27  H   UNL     1      -9.662  -1.506  15.157  0.00  0.00    +0.000 HD
ATOM     28  H   UNL     1      -9.218  -0.935  17.501  0.00  0.00    +0.000 HD
ATOM     29  H   UNL     1     -12.399  -3.573  18.770  0.00  0.00    +0.000 HD
ATOM     30  H   UNL     1     -12.913  -4.087  16.419  0.00  0.00    +0.000 HD
BRANCH  21  32
ATOM     31  O   UNL     1     -11.668  -2.159  13.445  0.00  0.00    +0.000 OA
ATOM     32  N   UNL     1     -11.632  -3.127  14.215  0.00  0.00    +0.000 N 
ATOM     33  O   UNL     1     -11.862  -4.290  13.905  0.00  0.00    +0.000 OA
ENDBRANCH  21  32
ENDBRANCH  18  24
ENDBRANCH   1  18
BRANCH   4  34
ATOM     34  O   UNL     1      -7.872  -6.131  17.821  0.00  0.00    +0.000 OA
ATOM     35  H   UNL     1      -8.717  -5.943  17.369  0.00  0.00    +0.000 HD
ENDBRANCH   4  34
BRANCH   5  36
ATOM     36  O   UNL     1      -5.452  -5.693  18.972  0.00  0.00    +0.000 OA
ATOM     37  H   UNL     1      -4.984  -6.116  19.722  0.00  0.00    +0.000 HD
ENDBRANCH   5  36
BRANCH  11  38
ATOM     38  O   UNL     1      -9.079  -0.569  25.315  0.00  0.00    +0.000 OA
ATOM     39  H   UNL     1      -9.250   0.263  24.839  0.00  0.00    +0.000 HD
ENDBRANCH  11  38
BRANCH  12  40
ATOM     40  O   UNL     1      -9.164   0.102  22.707  0.00  0.00    +0.000 OA
ATOM     41  H   UNL     1      -9.941   0.404  23.224  0.00  0.00    +0.000 HD
ENDBRANCH  12  40
TORSDOF 7
ENDMDL
MODEL 4
REMARK VINA RESULT:    -7.780      3.369      5.894
REMARK INTER + INTRA:         -10.497
REMARK INTER:                  -9.829
REMARK INTRA:                  -0.668
REMARK UNBOUND:                -0.443
REMARK  Name = 
REMARK  7 active torsions:
REMARK  status: ('A' for Active; 'I' for Inactive)
REMARK    1  A    between atoms: N_2  and  C_4
REMARK    2  A    between atoms: C_7  and  S_8
REMARK    3  A    between atoms: S_8  and  N_11
REMARK    4  A    between atoms: C_14  and  O_15
REMARK    5  A    between atoms: C_16  and  O_17
REMARK    6  A    between atoms: C_23  and  O_24
REMARK    7  A    between atoms: C_25  and  O_26
REMARK                            x       y       z     vdW  Elec       q    Type
REMARK                         _______ _______ _______ _____ _____    ______ ____
ROOT
ATOM      1  N   UNL     1     -10.273  -4.236  18.336  0.00  0.00    +0.000 N 
ATOM      2  C   UNL     1      -9.256  -3.798  19.174  0.00  0.00    +0.000 A 
ATOM      3  C   UNL     1      -8.881  -2.571  19.746  0.00  0.00    +0.000 A 
ATOM      4  C   UNL     1      -8.105  -2.663  20.896  0.00  0.00    +0.000 A 
ATOM      5  C   UNL     1      -7.745  -3.894  21.432  0.00  0.00    +0.000 A 
ATOM      6  C   UNL     1      -7.840  -5.049  20.669  0.00  0.00    +0.000 A 
ATOM      7  C   UNL     1      -8.527  -4.951  19.452  0.00  0.00    +0.000 A 
ATOM      8  C   UNL     1      -8.622  -5.697  18.253  0.00  0.00    +0.000 A 
ATOM      9  C   UNL     1      -7.782  -6.584  17.546  0.00  0.00    +0.000 A 
ATOM     10  C   UNL     1      -8.308  -7.321  16.482  0.00  0.00    +0.000 A 
ATOM     11  C   UNL     1      -9.679  -7.322  16.298  0.00  0.00    +0.000 A 
ATOM     12  C   UNL     1     -10.508  -6.419  16.973  0.00  0.00    +0.000 A 
ATOM     13  C   UNL     1      -9.918  -5.458  17.790  0.00  0.00    +0.000 A 
ATOM     14  H   UNL     1      -9.232  -1.618  19.368  0.00  0.00    +0.000 HD
ATOM     15  H   UNL     1      -7.459  -5.997  21.034  0.00  0.00    +0.000 HD
ATOM     16  H   UNL     1      -6.723  -6.642  17.785  0.00  0.00    +0.000 HD
ATOM     17  H   UNL     1      -7.648  -7.938  15.881  0.00  0.00    +0.000 HD
ENDROOT
BRANCH   1  18
ATOM     18  S   UNL     1     -11.477  -3.186  17.726  0.00  0.00    +0.000 S 
ATOM     19  O   UNL     1     -11.475  -2.044  18.626  0.00  0.00    +0.000 OA
ATOM     20  O   UNL     1     -12.673  -4.000  17.570  0.00  0.00    +0.000 OA
BRANCH  18  24
ATOM     21  C   UNL     1     -10.060  -2.126  13.525  0.00  0.00    +0.000 A 
ATOM     22  C   UNL     1     -11.005  -3.141  13.709  0.00  0.00    +0.000 A 
ATOM     23  C   UNL     1     -11.474  -3.418  14.992  0.00  0.00    +0.000 A 
ATOM     24  C   UNL     1     -11.071  -2.637  16.084  0.00  0.00    +0.000 A 
ATOM     25  C   UNL     1     -10.124  -1.620  15.897  0.00  0.00    +0.000 A 
ATOM     26  C   UNL     1      -9.608  -1.365  14.616  0.00  0.00    +0.000 A 
ATOM     27  H   UNL     1     -11.356  -3.744  12.875  0.00  0.00    +0.000 HD
ATOM     28  H   UNL     1     -12.161  -4.250  15.136  0.00  0.00    +0.000 HD
ATOM     29  H   UNL     1      -9.724  -1.060  16.741  0.00  0.00    +0.000 HD
ATOM     30  H   UNL     1      -8.841  -0.600  14.491  0.00  0.00    +0.000 HD
BRANCH  21  32
ATOM     31  O   UNL     1     -10.218  -2.178  11.212  0.00  0.00    +0.000 OA
ATOM     32  N   UNL     1      -9.505  -1.878  12.179  0.00  0.00    +0.000 N 
ATOM     33  O   UNL     1      -8.376  -1.408  12.109  0.00  0.00    +0.000 OA
ENDBRANCH  21  32
ENDBRANCH  18  24
ENDBRANCH   1  18
BRANCH   4  34
ATOM     34  O   UNL     1      -7.700  -1.541  21.562  0.00  0.00    +0.000 OA
ATOM     35  H   UNL     1      -6.954  -1.170  21.053  0.00  0.00    +0.000 HD
ENDBRANCH   4  34
BRANCH   5  36
ATOM     36  O   UNL     1      -7.271  -3.966  22.708  0.00  0.00    +0.000 OA
ATOM     37  H   UNL     1      -8.074  -3.918  23.266  0.00  0.00    +0.000 HD
ENDBRANCH   5  36
BRANCH  11  38
ATOM     38  O   UNL     1     -10.284  -8.232  15.471  0.00  0.00    +0.000 OA
ATOM     39  H   UNL     1     -11.120  -7.847  15.156  0.00  0.00    +0.000 HD
ENDBRANCH  11  38
BRANCH  12  40
ATOM     40  O   UNL     1     -11.859  -6.615  16.941  0.00  0.00    +0.000 OA
ATOM     41  H   UNL     1     -12.132  -6.576  17.882  0.00  0.00    +0.000 HD
ENDBRANCH  12  40
TORSDOF 7
ENDMDL
MODEL 5
REMARK VINA RESULT:    -7.751      1.097      4.352
REMARK INTER + INTRA:         -10.459
REMARK INTER:                 -10.721
REMARK INTRA:                   0.261
REMARK UNBOUND:                -0.443
REMARK  Name = 
REMARK  7 active torsions:
REMARK  status: ('A' for Active; 'I' for Inactive)
REMARK    1  A    between atoms: N_2  and  C_4
REMARK    2  A    between atoms: C_7  and  S_8
REMARK    3  A    between atoms: S_8  and  N_11
REMARK    4  A    between atoms: C_14  and  O_15
REMARK    5  A    between atoms: C_16  and  O_17
REMARK    6  A    between atoms: C_23  and  O_24
REMARK    7  A    between atoms: C_25  and  O_26
REMARK                            x       y       z     vdW  Elec       q    Type
REMARK                         _______ _______ _______ _____ _____    ______ ____
ROOT
ATOM      1  N   UNL     1      -8.752  -3.946  20.239  0.00  0.00    +0.000 N 
ATOM      2  C   UNL     1      -9.110  -3.024  21.213  0.00  0.00    +0.000 A 
ATOM      3  C   UNL     1     -10.119  -2.057  21.363  0.00  0.00    +0.000 A 
ATOM      4  C   UNL     1     -10.411  -1.700  22.675  0.00  0.00    +0.000 A 
ATOM      5  C   UNL     1      -9.744  -2.278  23.750  0.00  0.00    +0.000 A 
ATOM      6  C   UNL     1      -8.549  -2.954  23.556  0.00  0.00    +0.000 A 
ATOM      7  C   UNL     1      -8.184  -3.230  22.232  0.00  0.00    +0.000 A 
ATOM      8  C   UNL     1      -7.003  -3.583  21.535  0.00  0.00    +0.000 A 
ATOM      9  C   UNL     1      -5.619  -3.387  21.727  0.00  0.00    +0.000 A 
ATOM     10  C   UNL     1      -4.712  -4.085  20.926  0.00  0.00    +0.000 A 
ATOM     11  C   UNL     1      -5.192  -5.105  20.125  0.00  0.00    +0.000 A 
ATOM     12  C   UNL     1      -6.563  -5.279  19.907  0.00  0.00    +0.000 A 
ATOM     13  C   UNL     1      -7.447  -4.353  20.457  0.00  0.00    +0.000 A 
ATOM     14  H   UNL     1     -10.688  -1.672  20.526  0.00  0.00    +0.000 HD
ATOM     15  H   UNL     1      -7.962  -3.313  24.395  0.00  0.00    +0.000 HD
ATOM     16  H   UNL     1      -5.266  -2.650  22.445  0.00  0.00    +0.000 HD
ATOM     17  H   UNL     1      -3.651  -3.873  21.011  0.00  0.00    +0.000 HD
ENDROOT
BRANCH   1  18
ATOM     18  S   UNL     1      -9.616  -4.115  18.773  0.00  0.00    +0.000 S 
ATOM     19  O   UNL     1      -8.993  -3.177  17.854  0.00  0.00    +0.000 OA
ATOM     20  O   UNL     1     -11.022  -3.981  19.123  0.00  0.00    +0.000 OA
BRANCH  18  24
ATOM     21  C   UNL     1      -9.623  -8.241  16.835  0.00  0.00    +0.000 A 
ATOM     22  C   UNL     1      -8.960  -7.177  16.214  0.00  0.00    +0.000 A 
ATOM     23  C   UNL     1      -8.914  -5.935  16.843  0.00  0.00    +0.000 A 
ATOM     24  C   UNL     1      -9.455  -5.763  18.125  0.00  0.00    +0.000 A 
ATOM     25  C   UNL     1     -10.119  -6.831  18.746  0.00  0.00    +0.000 A 
ATOM     26  C   UNL     1     -10.212  -8.074  18.099  0.00  0.00    +0.000 A 
ATOM     27  H   UNL     1      -8.508  -7.291  15.231  0.00  0.00    +0.000 HD
ATOM     28  H   UNL     1      -8.452  -5.096  16.325  0.00  0.00    +0.000 HD
ATOM     29  H   UNL     1     -10.627  -6.699  19.700  0.00  0.00    +0.000 HD
ATOM     30  H   UNL     1     -10.767  -8.883  18.575  0.00  0.00    +0.000 HD
BRANCH  21  32
ATOM     31  O   UNL     1      -9.524  -9.546  14.921  0.00  0.00    +0.000 OA
ATOM     32  N   UNL     1      -9.736  -9.540  16.141  0.00  0.00    +0.000 N 
ATOM     33  O   UNL     1     -10.047 -10.516  16.812  0.00  0.00    +0.000 OA
ENDBRANCH  21  32
ENDBRANCH  18  24
ENDBRANCH   1  18
BRANCH   4  34
ATOM     34  O   UNL     1     -11.392  -0.791  22.955  0.00  0.00    +0.000 OA
ATOM     35  H   UNL     1     -12.066  -0.888  22.255  0.00  0.00    +0.000 HD
ENDBRANCH   4  34
BRANCH   5  36
ATOM     36  O   UNL     1     -10.254  -2.158  25.008  0.00  0.00    +0.000 OA
ATOM     37  H   UNL     1     -11.162  -1.818  24.868  0.00  0.00    +0.000 HD
ENDBRANCH   5  36
BRANCH  11  38
ATOM     38  O   UNL     1      -4.344  -6.009  19.542  0.00  0.00    +0.000 OA
ATOM     39  H   UNL     1      -4.612  -6.121  18.613  0.00  0.00    +0.000 HD
ENDBRANCH  11  38
BRANCH  12  40
ATOM     40  O   UNL     1      -6.995  -6.430  19.312  0.00  0.00    +0.000 OA
ATOM     41  H   UNL     1      -7.516  -6.123  18.540  0.00  0.00    +0.000 HD
ENDBRANCH  12  40
TORSDOF 7
ENDMDL
MODEL 6
REMARK VINA RESULT:    -7.637      3.601      5.716
REMARK INTER + INTRA:         -10.313
REMARK INTER:                  -9.702
REMARK INTRA:                  -0.610
REMARK UNBOUND:                -0.443
REMARK  Name = 
REMARK  7 active torsions:
REMARK  status: ('A' for Active; 'I' for Inactive)
REMARK    1  A    between atoms: N_2  and  C_4
REMARK    2  A    between atoms: C_7  and  S_8
REMARK    3  A    between atoms: S_8  and  N_11
REMARK    4  A    between atoms: C_14  and  O_15
REMARK    5  A    between atoms: C_16  and  O_17
REMARK    6  A    between atoms: C_23  and  O_24
REMARK    7  A    between atoms: C_25  and  O_26
REMARK                            x       y       z     vdW  Elec       q    Type
REMARK                         _______ _______ _______ _____ _____    ______ ____
ROOT
ATOM      1  N   UNL     1     -10.310  -3.367  15.853  0.00  0.00    +0.000 N 
ATOM      2  C   UNL     1     -10.964  -2.993  17.021  0.00  0.00    +0.000 A 
ATOM      3  C   UNL     1     -11.805  -3.625  17.952  0.00  0.00    +0.000 A 
ATOM      4  C   UNL     1     -11.836  -3.045  19.215  0.00  0.00    +0.000 A 
ATOM      5  C   UNL     1     -11.075  -1.923  19.518  0.00  0.00    +0.000 A 
ATOM      6  C   UNL     1     -10.537  -1.143  18.504  0.00  0.00    +0.000 A 
ATOM      7  C   UNL     1     -10.591  -1.664  17.205  0.00  0.00    +0.000 A 
ATOM      8  C   UNL     1     -10.481  -1.167  15.884  0.00  0.00    +0.000 A 
ATOM      9  C   UNL     1     -10.716   0.069  15.246  0.00  0.00    +0.000 A 
ATOM     10  C   UNL     1     -10.276   0.256  13.934  0.00  0.00    +0.000 A 
ATOM     11  C   UNL     1      -9.435  -0.693  13.381  0.00  0.00    +0.000 A 
ATOM     12  C   UNL     1      -9.228  -1.933  13.996  0.00  0.00    +0.000 A 
ATOM     13  C   UNL     1      -9.948  -2.231  15.151  0.00  0.00    +0.000 A 
ATOM     14  H   UNL     1     -12.333  -4.545  17.731  0.00  0.00    +0.000 HD
ATOM     15  H   UNL     1     -10.036  -0.205  18.721  0.00  0.00    +0.000 HD
ATOM     16  H   UNL     1     -11.293   0.843  15.749  0.00  0.00    +0.000 HD
ATOM     17  H   UNL     1     -10.531   1.171  13.410  0.00  0.00    +0.000 HD
ENDROOT
BRANCH   1  18
ATOM     18  S   UNL     1     -10.423  -4.945  15.205  0.00  0.00    +0.000 S 
ATOM     19  O   UNL     1      -9.385  -5.013  14.190  0.00  0.00    +0.000 OA
ATOM     20  O   UNL     1     -11.821  -5.128  14.844  0.00  0.00    +0.000 OA
BRANCH  18  24
ATOM     21  C   UNL     1      -9.303  -8.320  18.057  0.00  0.00    +0.000 A 
ATOM     22  C   UNL     1      -8.504  -7.174  17.982  0.00  0.00    +0.000 A 
ATOM     23  C   UNL     1      -8.887  -6.124  17.150  0.00  0.00    +0.000 A 
ATOM     24  C   UNL     1     -10.102  -6.171  16.453  0.00  0.00    +0.000 A 
ATOM     25  C   UNL     1     -10.901  -7.321  16.530  0.00  0.00    +0.000 A 
ATOM     26  C   UNL     1     -10.500  -8.405  17.328  0.00  0.00    +0.000 A 
ATOM     27  H   UNL     1      -7.570  -7.099  18.534  0.00  0.00    +0.000 HD
ATOM     28  H   UNL     1      -8.229  -5.262  17.048  0.00  0.00    +0.000 HD
ATOM     29  H   UNL     1     -11.803  -7.422  15.927  0.00  0.00    +0.000 HD
ATOM     30  H   UNL     1     -11.109  -9.310  17.346  0.00  0.00    +0.000 HD
BRANCH  21  32
ATOM     31  O   UNL     1      -8.664 -10.537  18.295  0.00  0.00    +0.000 OA
ATOM     32  N   UNL     1      -8.865  -9.465  18.882  0.00  0.00    +0.000 N 
ATOM     33  O   UNL     1      -8.746  -9.282  20.087  0.00  0.00    +0.000 OA
ENDBRANCH  21  32
ENDBRANCH  18  24
ENDBRANCH   1  18
BRANCH   4  34
ATOM     34  O   UNL     1     -12.594  -3.584  20.217  0.00  0.00    +0.000 OA
ATOM     35  H   UNL     1     -13.186  -2.873  20.529  0.00  0.00    +0.000 HD
ENDBRANCH   4  34
BRANCH   5  36
ATOM     36  O   UNL     1     -10.874  -1.570  20.819  0.00  0.00    +0.000 OA
ATOM     37  H   UNL     1     -10.493  -0.669  20.768  0.00  0.00    +0.000 HD
ENDBRANCH   5  36
BRANCH  11  38
ATOM     38  O   UNL     1      -8.743  -0.442  12.226  0.00  0.00    +0.000 OA
ATOM     39  H   UNL     1      -8.615   0.520  12.152  0.00  0.00    +0.000 HD
ENDBRANCH  11  38
BRANCH  12  40
ATOM     40  O   UNL     1      -8.217  -2.732  13.545  0.00  0.00    +0.000 OA
ATOM     41  H   UNL     1      -7.443  -2.134  13.485  0.00  0.00    +0.000 HD
ENDBRANCH  12  40
TORSDOF 7
ENDMDL
MODEL 7
REMARK VINA RESULT:    -7.585      2.305      6.834
REMARK INTER + INTRA:         -10.245
REMARK INTER:                  -9.657
REMARK INTRA:                  -0.587
REMARK UNBOUND:                -0.443
REMARK  Name = 
REMARK  7 active torsions:
REMARK  status: ('A' for Active; 'I' for Inactive)
REMARK    1  A    between atoms: N_2  and  C_4
REMARK    2  A    between atoms: C_7  and  S_8
REMARK    3  A    between atoms: S_8  and  N_11
REMARK    4  A    between atoms: C_14  and  O_15
REMARK    5  A    between atoms: C_16  and  O_17
REMARK    6  A    between atoms: C_23  and  O_24
REMARK    7  A    between atoms: C_25  and  O_26
REMARK                            x       y       z     vdW  Elec       q    Type
REMARK                         _______ _______ _______ _____ _____    ______ ____
ROOT
ATOM      1  N   UNL     1     -10.035  -3.821  18.770  0.00  0.00    +0.000 N 
ATOM      2  C   UNL     1      -8.993  -3.503  19.631  0.00  0.00    +0.000 A 
ATOM      3  C   UNL     1      -8.523  -2.336  20.257  0.00  0.00    +0.000 A 
ATOM      4  C   UNL     1      -7.768  -2.540  21.407  0.00  0.00    +0.000 A 
ATOM      5  C   UNL     1      -7.515  -3.818  21.892  0.00  0.00    +0.000 A 
ATOM      6  C   UNL     1      -7.696  -4.928  21.080  0.00  0.00    +0.000 A 
ATOM      7  C   UNL     1      -8.362  -4.723  19.864  0.00  0.00    +0.000 A 
ATOM      8  C   UNL     1      -8.507  -5.408  18.634  0.00  0.00    +0.000 A 
ATOM      9  C   UNL     1      -7.736  -6.330  17.894  0.00  0.00    +0.000 A 
ATOM     10  C   UNL     1      -8.311  -6.975  16.797  0.00  0.00    +0.000 A 
ATOM     11  C   UNL     1      -9.676  -6.856  16.605  0.00  0.00    +0.000 A 
ATOM     12  C   UNL     1     -10.434  -5.918  17.313  0.00  0.00    +0.000 A 
ATOM     13  C   UNL     1      -9.775  -5.043  18.174  0.00  0.00    +0.000 A 
ATOM     14  H   UNL     1      -8.793  -1.343  19.919  0.00  0.00    +0.000 HD
ATOM     15  H   UNL     1      -7.398  -5.918  21.406  0.00  0.00    +0.000 HD
ATOM     16  H   UNL     1      -6.687  -6.484  18.136  0.00  0.00    +0.000 HD
ATOM     17  H   UNL     1      -7.698  -7.618  16.173  0.00  0.00    +0.000 HD
ENDROOT
BRANCH   1  18
ATOM     18  S   UNL     1     -11.143  -2.651  18.199  0.00  0.00    +0.000 S 
ATOM     19  O   UNL     1     -12.354  -3.393  17.891  0.00  0.00    +0.000 OA
ATOM     20  O   UNL     1     -10.443  -1.916  17.157  0.00  0.00    +0.000 OA
BRANCH  18  24
ATOM     21  C   UNL     1     -11.565   0.399  21.561  0.00  0.00    +0.000 A 
ATOM     22  C   UNL     1     -11.179   0.816  20.283  0.00  0.00    +0.000 A 
ATOM     23  C   UNL     1     -11.109  -0.115  19.249  0.00  0.00    +0.000 A 
ATOM     24  C   UNL     1     -11.500  -1.445  19.457  0.00  0.00    +0.000 A 
ATOM     25  C   UNL     1     -11.886  -1.861  20.739  0.00  0.00    +0.000 A 
ATOM     26  C   UNL     1     -11.914  -0.940  21.800  0.00  0.00    +0.000 A 
ATOM     27  H   UNL     1     -10.898   1.848  20.086  0.00  0.00    +0.000 HD
ATOM     28  H   UNL     1     -10.748   0.203  18.272  0.00  0.00    +0.000 HD
ATOM     29  H   UNL     1     -12.106  -2.907  20.951  0.00  0.00    +0.000 HD
ATOM     30  H   UNL     1     -12.176  -1.285  22.801  0.00  0.00    +0.000 HD
BRANCH  21  32
ATOM     31  O   UNL     1     -12.621   1.993  22.873  0.00  0.00    +0.000 OA
ATOM     32  N   UNL     1     -11.571   1.367  22.677  0.00  0.00    +0.000 N 
ATOM     33  O   UNL     1     -10.536   1.498  23.319  0.00  0.00    +0.000 OA
ENDBRANCH  21  32
ENDBRANCH  18  24
ENDBRANCH   1  18
BRANCH   4  34
ATOM     34  O   UNL     1      -7.279  -1.484  22.123  0.00  0.00    +0.000 OA
ATOM     35  H   UNL     1      -7.811  -0.706  21.868  0.00  0.00    +0.000 HD
ENDBRANCH   4  34
BRANCH   5  36
ATOM     36  O   UNL     1      -7.059  -3.982  23.166  0.00  0.00    +0.000 OA
ATOM     37  H   UNL     1      -7.759  -3.584  23.724  0.00  0.00    +0.000 HD
ENDBRANCH   5  36
BRANCH  11  38
ATOM     38  O   UNL     1     -10.345  -7.678  15.737  0.00  0.00    +0.000 OA
ATOM     39  H   UNL     1      -9.718  -8.345  15.405  0.00  0.00    +0.000 HD
ENDBRANCH  11  38
BRANCH  12  40
ATOM     40  O   UNL     1     -11.796  -6.001  17.266  0.00  0.00    +0.000 OA
ATOM     41  H   UNL     1     -11.983  -6.962  17.312  0.00  0.00    +0.000 HD
ENDBRANCH  12  40
TORSDOF 7
ENDMDL
MODEL 8
REMARK VINA RESULT:    -7.531      3.229      6.005
REMARK INTER + INTRA:         -10.175
REMARK INTER:                  -9.675
REMARK INTRA:                  -0.499
REMARK UNBOUND:                -0.443
REMARK  Name = 
REMARK  7 active torsions:
REMARK  status: ('A' for Active; 'I' for Inactive)
REMARK    1  A    between atoms: N_2  and  C_4
REMARK    2  A    between atoms: C_7  and  S_8
REMARK    3  A    between atoms: S_8  and  N_11
REMARK    4  A    between atoms: C_14  and  O_15
REMARK    5  A    between atoms: C_16  and  O_17
REMARK    6  A    between atoms: C_23  and  O_24
REMARK    7  A    between atoms: C_25  and  O_26
REMARK                            x       y       z     vdW  Elec       q    Type
REMARK                         _______ _______ _______ _____ _____    ______ ____
ROOT
ATOM      1  N   UNL     1     -11.111  -4.550  16.962  0.00  0.00    +0.000 N 
ATOM      2  C   UNL     1     -10.967  -4.169  15.634  0.00  0.00    +0.000 A 
ATOM      3  C   UNL     1     -10.511  -4.781  14.454  0.00  0.00    +0.000 A 
ATOM      4  C   UNL     1     -10.987  -4.223  13.272  0.00  0.00    +0.000 A 
ATOM      5  C   UNL     1     -11.860  -3.142  13.281  0.00  0.00    +0.000 A 
ATOM      6  C   UNL     1     -12.012  -2.368  14.422  0.00  0.00    +0.000 A 
ATOM      7  C   UNL     1     -11.445  -2.862  15.604  0.00  0.00    +0.000 A 
ATOM      8  C   UNL     1     -11.072  -2.346  16.868  0.00  0.00    +0.000 A 
ATOM      9  C   UNL     1     -10.672  -1.089  17.369  0.00  0.00    +0.000 A 
ATOM     10  C   UNL     1     -10.591  -0.898  18.750  0.00  0.00    +0.000 A 
ATOM     11  C   UNL     1     -11.114  -1.873  19.580  0.00  0.00    +0.000 A 
ATOM     12  C   UNL     1     -11.478  -3.132  19.090  0.00  0.00    +0.000 A 
ATOM     13  C   UNL     1     -11.235  -3.418  17.749  0.00  0.00    +0.000 A 
ATOM     14  H   UNL     1      -9.895  -5.672  14.458  0.00  0.00    +0.000 HD
ATOM     15  H   UNL     1     -12.603  -1.458  14.410  0.00  0.00    +0.000 HD
ATOM     16  H   UNL     1     -10.367  -0.300  16.685  0.00  0.00    +0.000 HD
ATOM     17  H   UNL     1     -10.202   0.038  19.138  0.00  0.00    +0.000 HD
ENDROOT
BRANCH   1  18
ATOM     18  S   UNL     1     -10.685  -6.109  17.520  0.00  0.00    +0.000 S 
ATOM     19  O   UNL     1     -10.634  -6.939  16.327  0.00  0.00    +0.000 OA
ATOM     20  O   UNL     1     -11.620  -6.417  18.592  0.00  0.00    +0.000 OA
BRANCH  18  24
ATOM     21  C   UNL     1      -6.538  -5.585  19.338  0.00  0.00    +0.000 A 
ATOM     22  C   UNL     1      -7.675  -5.252  20.082  0.00  0.00    +0.000 A 
ATOM     23  C   UNL     1      -8.939  -5.470  19.539  0.00  0.00    +0.000 A 
ATOM     24  C   UNL     1      -9.083  -6.094  18.292  0.00  0.00    +0.000 A 
ATOM     25  C   UNL     1      -7.942  -6.428  17.548  0.00  0.00    +0.000 A 
ATOM     26  C   UNL     1      -6.662  -6.168  18.066  0.00  0.00    +0.000 A 
ATOM     27  H   UNL     1      -7.593  -4.792  21.064  0.00  0.00    +0.000 HD
ATOM     28  H   UNL     1      -9.818  -5.151  20.096  0.00  0.00    +0.000 HD
ATOM     29  H   UNL     1      -8.024  -6.828  16.538  0.00  0.00    +0.000 HD
ATOM     30  H   UNL     1      -5.784  -6.393  17.460  0.00  0.00    +0.000 HD
BRANCH  21  32
ATOM     31  O   UNL     1      -4.364  -6.206  19.854  0.00  0.00    +0.000 OA
ATOM     32  N   UNL     1      -5.195  -5.289  19.880  0.00  0.00    +0.000 N 
ATOM     33  O   UNL     1      -5.002  -4.167  20.330  0.00  0.00    +0.000 OA
ENDBRANCH  21  32
ENDBRANCH  18  24
ENDBRANCH   1  18
BRANCH   4  34
ATOM     34  O   UNL     1     -10.639  -4.746  12.059  0.00  0.00    +0.000 OA
ATOM     35  H   UNL     1     -11.354  -4.507  11.439  0.00  0.00    +0.000 HD
ENDBRANCH   4  34
BRANCH   5  36
ATOM     36  O   UNL     1     -12.555  -2.823  12.152  0.00  0.00    +0.000 OA
ATOM     37  H   UNL     1     -13.413  -3.283  12.259  0.00  0.00    +0.000 HD
ENDBRANCH   5  36
BRANCH  11  38
ATOM     38  O   UNL     1     -11.329  -1.631  20.912  0.00  0.00    +0.000 OA
ATOM     39  H   UNL     1     -10.703  -0.945  21.200  0.00  0.00    +0.000 HD
ENDBRANCH  11  38
BRANCH  12  40
ATOM     40  O   UNL     1     -12.203  -3.966  19.891  0.00  0.00    +0.000 OA
ATOM     41  H   UNL     1     -12.507  -3.394  20.627  0.00  0.00    +0.000 HD
ENDBRANCH  12  40
TORSDOF 7
ENDMDL
MODEL 9
REMARK VINA RESULT:    -7.461      2.333      3.149
REMARK INTER + INTRA:         -10.085
REMARK INTER:                  -9.640
REMARK INTRA:                  -0.445
REMARK UNBOUND:                -0.443
REMARK  Name = 
REMARK  7 active torsions:
REMARK  status: ('A' for Active; 'I' for Inactive)
REMARK    1  A    between atoms: N_2  and  C_4
REMARK    2  A    between atoms: C_7  and  S_8
REMARK    3  A    between atoms: S_8  and  N_11
REMARK    4  A    between atoms: C_14  and  O_15
REMARK    5  A    between atoms: C_16  and  O_17
REMARK    6  A    between atoms: C_23  and  O_24
REMARK    7  A    between atoms: C_25  and  O_26
REMARK                            x       y       z     vdW  Elec       q    Type
REMARK                         _______ _______ _______ _____ _____    ______ ____
ROOT
ATOM      1  N   UNL     1     -10.044  -4.590  17.481  0.00  0.00    +0.000 N 
ATOM      2  C   UNL     1      -9.346  -5.256  18.480  0.00  0.00    +0.000 A 
ATOM      3  C   UNL     1      -9.173  -6.596  18.867  0.00  0.00    +0.000 A 
ATOM      4  C   UNL     1      -8.022  -6.859  19.602  0.00  0.00    +0.000 A 
ATOM      5  C   UNL     1      -7.114  -5.854  19.913  0.00  0.00    +0.000 A 
ATOM      6  C   UNL     1      -7.480  -4.520  19.815  0.00  0.00    +0.000 A 
ATOM      7  C   UNL     1      -8.692  -4.240  19.171  0.00  0.00    +0.000 A 
ATOM      8  C   UNL     1      -9.599  -3.156  19.098  0.00  0.00    +0.000 A 
ATOM      9  C   UNL     1      -9.960  -2.080  19.938  0.00  0.00    +0.000 A 
ATOM     10  C   UNL     1     -10.759  -1.054  19.429  0.00  0.00    +0.000 A 
ATOM     11  C   UNL     1     -10.987  -1.013  18.066  0.00  0.00    +0.000 A 
ATOM     12  C   UNL     1     -10.662  -2.093  17.238  0.00  0.00    +0.000 A 
ATOM     13  C   UNL     1     -10.165  -3.254  17.824  0.00  0.00    +0.000 A 
ATOM     14  H   UNL     1      -9.844  -7.386  18.552  0.00  0.00    +0.000 HD
ATOM     15  H   UNL     1      -6.822  -3.729  20.160  0.00  0.00    +0.000 HD
ATOM     16  H   UNL     1      -9.673  -2.087  20.987  0.00  0.00    +0.000 HD
ATOM     17  H   UNL     1     -11.110  -0.271  20.093  0.00  0.00    +0.000 HD
ENDROOT
BRANCH   1  18
ATOM     18  S   UNL     1     -10.998  -5.412  16.325  0.00  0.00    +0.000 S 
ATOM     19  O   UNL     1     -10.852  -4.646  15.099  0.00  0.00    +0.000 OA
ATOM     20  O   UNL     1     -12.307  -5.581  16.938  0.00  0.00    +0.000 OA
BRANCH  18  24
ATOM     21  C   UNL     1      -9.267  -9.624  16.119  0.00  0.00    +0.000 A 
ATOM     22  C   UNL     1     -10.564  -9.424  16.602  0.00  0.00    +0.000 A 
ATOM     23  C   UNL     1     -11.105  -8.140  16.606  0.00  0.00    +0.000 A 
ATOM     24  C   UNL     1     -10.394  -7.063  16.058  0.00  0.00    +0.000 A 
ATOM     25  C   UNL     1      -9.093  -7.266  15.575  0.00  0.00    +0.000 A 
ATOM     26  C   UNL     1      -8.521  -8.548  15.610  0.00  0.00    +0.000 A 
ATOM     27  H   UNL     1     -11.150 -10.247  17.007  0.00  0.00    +0.000 HD
ATOM     28  H   UNL     1     -12.091  -7.982  17.041  0.00  0.00    +0.000 HD
ATOM     29  H   UNL     1      -8.484  -6.432  15.229  0.00  0.00    +0.000 HD
ATOM     30  H   UNL     1      -7.493  -8.684  15.271  0.00  0.00    +0.000 HD
BRANCH  21  32
ATOM     31  O   UNL     1      -8.289 -11.468  15.109  0.00  0.00    +0.000 OA
ATOM     32  N   UNL     1      -8.662 -10.971  16.179  0.00  0.00    +0.000 N 
ATOM     33  O   UNL     1      -8.586 -11.509  17.277  0.00  0.00    +0.000 OA
ENDBRANCH  21  32
ENDBRANCH  18  24
ENDBRANCH   1  18
BRANCH   4  34
ATOM     34  O   UNL     1      -7.726  -8.129  20.013  0.00  0.00    +0.000 OA
ATOM     35  H   UNL     1      -8.151  -8.733  19.375  0.00  0.00    +0.000 HD
ENDBRANCH   4  34
BRANCH   5  36
ATOM     36  O   UNL     1      -5.862  -6.181  20.343  0.00  0.00    +0.000 OA
ATOM     37  H   UNL     1      -5.707  -5.587  21.106  0.00  0.00    +0.000 HD
ENDBRANCH   5  36
BRANCH  11  38
ATOM     38  O   UNL     1     -11.510   0.103  17.466  0.00  0.00    +0.000 OA
ATOM     39  H   UNL     1     -11.420   0.849  18.084  0.00  0.00    +0.000 HD
ENDBRANCH  11  38
BRANCH  12  40
ATOM     40  O   UNL     1     -10.684  -1.915  15.884  0.00  0.00    +0.000 OA
ATOM     41  H   UNL     1      -9.841  -2.308  15.573  0.00  0.00    +0.000 HD
ENDBRANCH  12  40
TORSDOF 7
ENDMDL
