REMARK  Name = 
REMARK  6 active torsions:
REMARK  status: ('A' for Active; 'I' for Inactive)
REMARK    1  A    between atoms: C_2  and  C_3
REMARK    2  A    between atoms: C_10  and  N_11
REMARK    3  A    between atoms: N_11  and  C_12
REMARK    4  A    between atoms: C_12  and  C_13
REMARK    5  A    between atoms: C_20  and  N_21
REMARK    6  A    between atoms: N_21  and  C_22
REMARK                            x       y       z     vdW  Elec       q    Type
REMARK                         _______ _______ _______ _____ _____    ______ ____
ROOT
ATOM      1  C   UNL     1      -1.229  -3.042   0.488  0.00  0.00    +0.000 A 
ATOM      2  C   UNL     1      -0.427  -4.169   0.469  0.00  0.00    +0.000 A 
ATOM      3  N   UNL     1       0.919  -4.141   0.495  0.00  0.00    +0.000 NA
ATOM      4  C   UNL     1       1.541  -2.949   0.540  0.00  0.00    +0.000 A 
ATOM      5  C   UNL     1       2.934  -2.913   0.536  0.00  0.00    +0.000 A 
ATOM      6  F   UNL     1       3.630  -4.063   0.514  0.00  0.00    +0.000 F 
ATOM      7  C   UNL     1       3.659  -1.725   0.550  0.00  0.00    +0.000 A 
ATOM      8  C   UNL     1       3.005  -0.503   0.613  0.00  0.00    +0.000 A 
ATOM      9  C   UNL     1       1.604  -0.524   0.621  0.00  0.00    +0.000 A 
ATOM     10  C   UNL     1       0.835  -1.726   0.578  0.00  0.00    +0.000 A 
ATOM     11  C   UNL     1      -0.605  -1.783   0.558  0.00  0.00    +0.000 A 
ATOM     12  H   UNL     1      -0.852  -5.171   0.439  0.00  0.00    +0.000 HD
ATOM     13  H   UNL     1       4.745  -1.775   0.543  0.00  0.00    +0.000 HD
ATOM     14  H   UNL     1       1.088   0.429   0.632  0.00  0.00    +0.000 HD
ENDROOT
BRANCH   1  16
ATOM     15  N   UNL     1      -3.781  -3.487   0.427  0.00  0.00    +0.000 NA
ATOM     16  C   UNL     1      -2.646  -3.256   0.475  0.00  0.00    +0.000 C 
ENDBRANCH   1  16
BRANCH   8  17
ATOM     17  N   UNL     1       3.778   0.656   0.608  0.00  0.00    +0.000 N 
ATOM     18  H   UNL     1       4.255   0.777  -0.282  0.00  0.00    +0.000 HD
BRANCH  17  19
ATOM     19  C   UNL     1       3.248   1.927   1.115  0.00  0.00    +0.000 C 
ATOM     20  H   UNL     1       4.117   2.553   1.355  0.00  0.00    +0.000 HD
ATOM     21  H   UNL     1       2.744   1.757   2.075  0.00  0.00    +0.000 HD
BRANCH  19  22
ATOM     22  C   UNL     1       2.360   2.745   0.222  0.00  0.00    +0.000 A 
ATOM     23  C   UNL     1       2.641   3.325  -1.000  0.00  0.00    +0.000 A 
ATOM     24  N   UNL     1       1.504   3.999  -1.352  0.00  0.00    +0.000 N 
ATOM     25  C   UNL     1       0.586   3.808  -0.359  0.00  0.00    +0.000 A 
ATOM     26  N   UNL     1       1.061   3.040   0.593  0.00  0.00    +0.000 NA
ATOM     27  H   UNL     1       3.528   3.332  -1.618  0.00  0.00    +0.000 HD
ATOM     28  H   UNL     1       1.365   4.553  -2.186  0.00  0.00    +0.000 HD
ATOM     29  H   UNL     1      -0.400   4.254  -0.384  0.00  0.00    +0.000 HD
ENDBRANCH  19  22
ENDBRANCH  17  19
ENDBRANCH   8  17
BRANCH  11  30
ATOM     30  N   UNL     1      -1.362  -0.578   0.666  0.00  0.00    +0.000 N 
ATOM     31  H   UNL     1      -0.797   0.249   0.845  0.00  0.00    +0.000 HD
BRANCH  30  32
ATOM     32  C   UNL     1      -2.543  -0.172   0.005  0.00  0.00    +0.000 A 
ATOM     33  C   UNL     1      -3.390   0.739   0.659  0.00  0.00    +0.000 A 
ATOM     34  C   UNL     1      -4.538   1.229   0.037  0.00  0.00    +0.000 A 
ATOM     35  C   UNL     1      -4.841   0.813  -1.256  0.00  0.00    +0.000 A 
ATOM     36  F   UNL     1      -5.932   1.310  -1.855  0.00  0.00    +0.000 F 
ATOM     37  C   UNL     1      -4.013  -0.089  -1.920  0.00  0.00    +0.000 A 
ATOM     38 CL   UNL     1      -4.372  -0.585  -3.532  0.00  0.00    +0.000 Cl
ATOM     39  C   UNL     1      -2.862  -0.577  -1.297  0.00  0.00    +0.000 A 
ATOM     40  H   UNL     1      -3.158   1.063   1.673  0.00  0.00    +0.000 HD
ATOM     41  H   UNL     1      -5.192   1.931   0.543  0.00  0.00    +0.000 HD
ATOM     42  H   UNL     1      -2.209  -1.257  -1.838  0.00  0.00    +0.000 HD
ENDBRANCH  30  32
ENDBRANCH  11  30
TORSDOF 6
