REMARK  Name = 
REMARK  8 active torsions:
REMARK  status: ('A' for Active; 'I' for Inactive)
REMARK    1  A    between atoms: C_4  and  O_5
REMARK    2  A    between atoms: C_6  and  O_7
REMARK    3  A    between atoms: C_13  and  O_14
REMARK    4  A    between atoms: C_15  and  O_16
REMARK    5  A    between atoms: N_19  and  C_20
REMARK    6  A    between atoms: C_20  and  C_21
REMARK    7  A    between atoms: C_24  and  S_25
REMARK    8  A    between atoms: S_25  and  C_28
REMARK                            x       y       z     vdW  Elec       q    Type
REMARK                         _______ _______ _______ _____ _____    ______ ____
ROOT
ATOM      1  O   UNL     1      -2.431   0.867   2.500  0.00  0.00    +0.000 OA
ATOM      2  C   UNL     1      -1.204   0.789   2.400  0.00  0.00    +0.000 A 
ATOM      3  C   UNL     1      -0.443   2.059   2.340  0.00  0.00    +0.000 A 
ATOM      4  C   UNL     1      -1.136   3.285   2.322  0.00  0.00    +0.000 A 
ATOM      5  C   UNL     1      -0.439   4.485   2.253  0.00  0.00    +0.000 A 
ATOM      6  C   UNL     1       0.939   4.494   2.208  0.00  0.00    +0.000 A 
ATOM      7  C   UNL     1       1.631   3.279   2.222  0.00  0.00    +0.000 A 
ATOM      8  C   UNL     1       0.961   2.033   2.284  0.00  0.00    +0.000 A 
ATOM      9  C   UNL     1       1.667   0.732   2.282  0.00  0.00    +0.000 A 
ATOM     10  C   UNL     1       3.083   0.649   2.264  0.00  0.00    +0.000 A 
ATOM     11  C   UNL     1       3.729  -0.580   2.248  0.00  0.00    +0.000 A 
ATOM     12  C   UNL     1       2.989  -1.746   2.256  0.00  0.00    +0.000 A 
ATOM     13  C   UNL     1       1.605  -1.703   2.292  0.00  0.00    +0.000 A 
ATOM     14  C   UNL     1       0.919  -0.475   2.294  0.00  0.00    +0.000 A 
ATOM     15  N   UNL     1      -0.515  -0.424   2.331  0.00  0.00    +0.000 N 
ATOM     16  H   UNL     1       1.478   5.438   2.157  0.00  0.00    +0.000 HD
ATOM     17  H   UNL     1       2.714   3.346   2.177  0.00  0.00    +0.000 HD
ATOM     18  H   UNL     1       3.695   1.543   2.264  0.00  0.00    +0.000 HD
ATOM     19  H   UNL     1       1.100  -2.658   2.334  0.00  0.00    +0.000 HD
ENDROOT
BRANCH  15  20
ATOM     20  C   UNL     1      -1.334  -1.647   2.242  0.00  0.00    +0.000 C 
ATOM     21  H   UNL     1      -2.288  -1.483   2.760  0.00  0.00    +0.000 HD
ATOM     22  H   UNL     1      -0.877  -2.474   2.792  0.00  0.00    +0.000 HD
BRANCH  20  23
ATOM     23  C   UNL     1      -1.632  -2.033   0.802  0.00  0.00    +0.000 A 
ATOM     24  C   UNL     1      -0.782  -2.892   0.089  0.00  0.00    +0.000 A 
ATOM     25  C   UNL     1      -0.953  -3.092  -1.281  0.00  0.00    +0.000 A 
ATOM     26  C   UNL     1      -1.993  -2.439  -1.942  0.00  0.00    +0.000 A 
ATOM     27  C   UNL     1      -2.920  -1.673  -1.234  0.00  0.00    +0.000 A 
ATOM     28  C   UNL     1      -2.731  -1.466   0.134  0.00  0.00    +0.000 A 
ATOM     29  H   UNL     1       0.048  -3.394   0.578  0.00  0.00    +0.000 HD
ATOM     30  H   UNL     1      -0.250  -3.720  -1.823  0.00  0.00    +0.000 HD
ATOM     31  H   UNL     1      -3.759  -1.201  -1.739  0.00  0.00    +0.000 HD
ATOM     32  H   UNL     1      -3.429  -0.827   0.673  0.00  0.00    +0.000 HD
BRANCH  26  33
ATOM     33  S   UNL     1      -2.067  -2.507  -3.716  0.00  0.00    +0.000 S 
ATOM     34  O   UNL     1      -1.448  -3.749  -4.137  0.00  0.00    +0.000 OA
ATOM     35  O   UNL     1      -3.428  -2.192  -4.116  0.00  0.00    +0.000 OA
BRANCH  33  36
ATOM     36  C   UNL     1      -1.021  -1.169  -4.259  0.00  0.00    +0.000 A 
ATOM     37  C   UNL     1       0.344  -1.397  -4.458  0.00  0.00    +0.000 A 
ATOM     38  C   UNL     1       1.168  -0.335  -4.828  0.00  0.00    +0.000 A 
ATOM     39  C   UNL     1       0.629   0.941  -5.011  0.00  0.00    +0.000 A 
ATOM     40  C   UNL     1      -0.739   1.156  -4.836  0.00  0.00    +0.000 A 
ATOM     41  C   UNL     1      -1.572   0.100  -4.462  0.00  0.00    +0.000 A 
ATOM     42  H   UNL     1       0.774  -2.386  -4.318  0.00  0.00    +0.000 HD
ATOM     43  H   UNL     1       2.233  -0.498  -4.976  0.00  0.00    +0.000 HD
ATOM     44  H   UNL     1       1.275   1.768  -5.297  0.00  0.00    +0.000 HD
ATOM     45  H   UNL     1      -1.156   2.149  -4.988  0.00  0.00    +0.000 HD
ATOM     46  H   UNL     1      -2.636   0.277  -4.324  0.00  0.00    +0.000 HD
ENDBRANCH  33  36
ENDBRANCH  26  33
ENDBRANCH  20  23
ENDBRANCH  15  20
BRANCH   4  47
ATOM     47  O   UNL     1      -2.506   3.397   2.362  0.00  0.00    +0.000 OA
ATOM     48  H   UNL     1      -2.871   2.485   2.441  0.00  0.00    +0.000 HD
ENDBRANCH   4  47
BRANCH   5  49
ATOM     49  O   UNL     1      -1.113   5.671   2.222  0.00  0.00    +0.000 OA
ATOM     50  H   UNL     1      -2.058   5.417   2.251  0.00  0.00    +0.000 HD
ENDBRANCH   5  49
BRANCH  11  51
ATOM     51  O   UNL     1       5.090  -0.692   2.232  0.00  0.00    +0.000 OA
ATOM     52  H   UNL     1       5.479   0.199   2.264  0.00  0.00    +0.000 HD
ENDBRANCH  11  51
BRANCH  12  53
ATOM     53  O   UNL     1       3.614  -2.959   2.241  0.00  0.00    +0.000 OA
ATOM     54  H   UNL     1       4.570  -2.748   2.231  0.00  0.00    +0.000 HD
ENDBRANCH  12  53
TORSDOF 8
