REMARK  Name = 
REMARK  8 active torsions:
REMARK  status: ('A' for Active; 'I' for Inactive)
REMARK    1  A    between atoms: N_1  and  C_2
REMARK    2  A    between atoms: C_2  and  C_3
REMARK    3  A    between atoms: C_2  and  C_24
REMARK    4  A    between atoms: C_3  and  O_4
REMARK    5  A    between atoms: O_4  and  C_5
REMARK    6  A    between atoms: C_9  and  C_10
REMARK    7  A    between atoms: C_16  and  C_17
REMARK    8  A    between atoms: C_24  and  C_25
REMARK                            x       y       z     vdW  Elec       q    Type
REMARK                         _______ _______ _______ _____ _____    ______ ____
ROOT
ATOM      1  O   UNL     1       0.159  -1.342  -0.322  0.00  0.00    +0.000 OA
ENDROOT
BRANCH   1   2
ATOM      2  C   UNL     1      -1.175  -1.376  -0.607  0.00  0.00    +0.000 A 
ATOM      3  C   UNL     1      -1.610  -2.391  -1.446  0.00  0.00    +0.000 A 
ATOM      4  N   UNL     1      -2.893  -2.550  -1.843  0.00  0.00    +0.000 NA
ATOM      5  C   UNL     1      -3.784  -1.639  -1.382  0.00  0.00    +0.000 A 
ATOM      6  C   UNL     1      -3.478  -0.576  -0.528  0.00  0.00    +0.000 A 
ATOM      7  C   UNL     1      -2.133  -0.481  -0.136  0.00  0.00    +0.000 A 
ATOM      8  H   UNL     1      -0.913  -3.127  -1.837  0.00  0.00    +0.000 HD
ATOM      9  H   UNL     1      -4.794  -1.795  -1.752  0.00  0.00    +0.000 HD
ATOM     10  H   UNL     1      -1.847   0.306   0.554  0.00  0.00    +0.000 HD
BRANCH   6  11
ATOM     11  C   UNL     1      -4.488   0.403  -0.064  0.00  0.00    +0.000 A 
ATOM     12  C   UNL     1      -5.825   0.029   0.164  0.00  0.00    +0.000 A 
ATOM     13  C   UNL     1      -6.799   0.938   0.602  0.00  0.00    +0.000 A 
ATOM     14  C   UNL     1      -6.389   2.252   0.830  0.00  0.00    +0.000 A 
ATOM     15  N   UNL     1      -7.069   3.357   1.260  0.00  0.00    +0.000 N 
ATOM     16  N   UNL     1      -6.314   4.462   1.372  0.00  0.00    +0.000 NA
ATOM     17  C   UNL     1      -5.083   4.060   0.990  0.00  0.00    +0.000 A 
ATOM     18  C   UNL     1      -5.085   2.679   0.633  0.00  0.00    +0.000 A 
ATOM     19  C   UNL     1      -4.131   1.751   0.171  0.00  0.00    +0.000 A 
ATOM     20  H   UNL     1      -6.137  -1.004   0.015  0.00  0.00    +0.000 HD
ATOM     21  H   UNL     1      -7.824   0.619   0.765  0.00  0.00    +0.000 HD
ATOM     22  H   UNL     1      -8.053   3.421   1.498  0.00  0.00    +0.000 HD
ATOM     23  H   UNL     1      -3.115   2.095  -0.007  0.00  0.00    +0.000 HD
BRANCH  17  24
ATOM     24  C   UNL     1      -3.889   4.971   0.968  0.00  0.00    +0.000 C 
ATOM     25  F   UNL     1      -4.158   6.245   1.359  0.00  0.00    +0.000 F 
ATOM     26  F   UNL     1      -2.896   4.518   1.783  0.00  0.00    +0.000 F 
ATOM     27  F   UNL     1      -3.343   5.055  -0.278  0.00  0.00    +0.000 F 
ENDBRANCH  17  24
ENDBRANCH   6  11
ENDBRANCH   1   2
BRANCH   1  28
ATOM     28  C   UNL     1       0.602  -0.278   0.533  0.00  0.00    +0.000 C 
ATOM     29  H   UNL     1       0.113  -0.360   1.513  0.00  0.00    +0.000 HD
ATOM     30  H   UNL     1       0.353   0.692   0.082  0.00  0.00    +0.000 HD
BRANCH  28  31
ATOM     31  C   UNL     1       2.128  -0.354   0.721  0.00  0.00    +0.000 C 
ATOM     32  H   UNL     1       2.433   0.485   1.358  0.00  0.00    +0.000 HD
BRANCH  31  33
ATOM     33  N   UNL     1       2.464  -1.593   1.453  0.00  0.00    +0.000 NA
ATOM     34  H   UNL     1       3.479  -1.648   1.557  0.00  0.00    +0.000 HD
ATOM     35  H   UNL     1       2.209  -2.390   0.868  0.00  0.00    +0.000 HD
ENDBRANCH  31  33
BRANCH  31  36
ATOM     36  C   UNL     1       2.841  -0.228  -0.647  0.00  0.00    +0.000 C 
ATOM     37  H   UNL     1       2.558   0.728  -1.109  0.00  0.00    +0.000 HD
ATOM     38  H   UNL     1       2.498  -1.010  -1.336  0.00  0.00    +0.000 HD
BRANCH  36  39
ATOM     39  C   UNL     1       4.333  -0.289  -0.543  0.00  0.00    +0.000 A 
ATOM     40  C   UNL     1       5.194   0.770  -0.334  0.00  0.00    +0.000 A 
ATOM     41  N   UNL     1       6.469   0.276  -0.261  0.00  0.00    +0.000 N 
ATOM     42  C   UNL     1       6.461  -1.090  -0.418  0.00  0.00    +0.000 A 
ATOM     43  C   UNL     1       7.516  -2.010  -0.394  0.00  0.00    +0.000 A 
ATOM     44  C   UNL     1       7.202  -3.361  -0.577  0.00  0.00    +0.000 A 
ATOM     45  C   UNL     1       5.888  -3.772  -0.786  0.00  0.00    +0.000 A 
ATOM     46  C   UNL     1       4.847  -2.838  -0.814  0.00  0.00    +0.000 A 
ATOM     47  C   UNL     1       5.137  -1.472  -0.619  0.00  0.00    +0.000 A 
ATOM     48  H   UNL     1       5.008   1.830  -0.218  0.00  0.00    +0.000 HD
ATOM     49  H   UNL     1       7.301   0.828  -0.102  0.00  0.00    +0.000 HD
ATOM     50  H   UNL     1       8.541  -1.695  -0.232  0.00  0.00    +0.000 HD
ATOM     51  H   UNL     1       7.997  -4.102  -0.556  0.00  0.00    +0.000 HD
ATOM     52  H   UNL     1       5.664  -4.827  -0.924  0.00  0.00    +0.000 HD
ATOM     53  H   UNL     1       3.827  -3.170  -0.975  0.00  0.00    +0.000 HD
ENDBRANCH  36  39
ENDBRANCH  31  36
ENDBRANCH  28  31
ENDBRANCH   1  28
TORSDOF 8
