
 OpenBabel01112422123D

 50 55  0  0  0  0  0  0  0  0999 V2000
    3.2588   -3.2307    0.3065 C   0  0  0  0  0  0  0  0  0  0  0  0
    4.6997   -3.0903    0.1566 N   0  0  0  0  0  0  0  0  0  0  0  0
    5.1297   -1.6976    0.0043 C   0  0  0  0  0  0  0  0  0  0  0  0
    4.8039   -0.8453    1.2367 C   0  0  0  0  0  0  0  0  0  0  0  0
    5.4282   -1.3846    2.5434 C   0  0  0  0  0  0  0  0  0  0  0  0
    6.8862   -1.3976    2.5857 N   0  0  0  0  0  0  0  0  0  0  0  0
    7.6573   -0.2863    3.0111 C   0  0  0  0  0  0  0  0  0  0  0  0
    7.2795    0.9547    3.5632 C   0  0  0  0  0  0  0  0  0  0  0  0
    8.2779    1.8673    3.9375 C   0  0  0  0  0  0  0  0  0  0  0  0
    9.6207    1.5651    3.7490 C   0  0  0  0  0  0  0  0  0  0  0  0
    9.9929    0.3602    3.1621 C   0  0  0  0  0  0  0  0  0  0  0  0
    9.0118   -0.5838    2.7896 C   0  0  0  0  0  0  0  0  0  0  0  0
    8.9817   -1.8222    2.1947 C   0  0  0  0  0  0  0  0  0  0  0  0
   10.1247   -2.5470    1.7566 C   0  0  0  0  0  0  0  0  0  0  0  0
    9.9131   -3.7185    1.0007 C   0  0  0  0  0  0  0  0  0  0  0  0
    8.5745   -4.0949    0.7142 C   0  0  0  0  0  0  0  0  0  0  0  0
    8.2463   -5.3204    0.1763 C   0  0  0  0  0  0  0  0  0  0  0  0
    7.8669   -5.7767   -1.1022 C   0  0  0  0  0  0  0  0  0  0  0  0
    7.2656   -7.0341   -1.2130 C   0  0  0  0  0  0  0  0  0  0  0  0
    7.1621   -7.8429   -0.0863 C   0  0  0  0  0  0  0  0  0  0  0  0
    7.3208   -7.2940    1.1920 C   0  0  0  0  0  0  0  0  0  0  0  0
    7.5635   -5.9161    1.2386 C   0  0  0  0  0  0  0  0  0  0  0  0
    6.8429   -4.8002    1.7661 N   0  0  0  0  0  0  0  0  0  0  0  0
    7.6391   -3.6755    1.6182 C   0  0  0  0  0  0  0  0  0  0  0  0
    7.7410   -2.3908    2.1274 C   0  0  0  0  0  0  0  0  0  0  0  0
   11.1673   -4.3420    0.7262 C   0  0  0  0  0  0  0  0  0  0  0  0
   11.4948   -5.4322    0.2768 O   0  0  0  0  0  0  0  0  0  0  0  0
   12.0644   -3.4185    1.1894 N   0  0  0  0  0  0  0  0  0  0  0  0
   11.5564   -2.3930    1.9124 C   0  0  0  0  0  0  0  0  0  0  0  0
   12.2696   -1.6200    2.5685 O   0  0  0  0  0  0  0  0  0  0  0  0
    3.0112   -4.2883    0.4308 H   0  0  0  0  0  0  0  0  0  0  0  0
    2.7253   -2.8448   -0.5653 H   0  0  0  0  0  0  0  0  0  0  0  0
    2.8934   -2.7264    1.2055 H   0  0  0  0  0  0  0  0  0  0  0  0
    5.0143   -3.6240   -0.6561 H   0  0  0  0  0  0  0  0  0  0  0  0
    4.6725   -1.2600   -0.8918 H   0  0  0  0  0  0  0  0  0  0  0  0
    6.2098   -1.6749   -0.1757 H   0  0  0  0  0  0  0  0  0  0  0  0
    3.7164   -0.7830    1.3559 H   0  0  0  0  0  0  0  0  0  0  0  0
    5.1251    0.1893    1.0527 H   0  0  0  0  0  0  0  0  0  0  0  0
    5.0719   -2.3944    2.7673 H   0  0  0  0  0  0  0  0  0  0  0  0
    5.0774   -0.7511    3.3657 H   0  0  0  0  0  0  0  0  0  0  0  0
    6.2335    1.2183    3.7259 H   0  0  0  0  0  0  0  0  0  0  0  0
    8.0126    2.8173    4.3864 H   0  0  0  0  0  0  0  0  0  0  0  0
   10.3956    2.2646    4.0536 H   0  0  0  0  0  0  0  0  0  0  0  0
   11.0447    0.1709    3.0193 H   0  0  0  0  0  0  0  0  0  0  0  0
    7.9325   -5.1089   -1.9533 H   0  0  0  0  0  0  0  0  0  0  0  0
    6.9294   -7.3904   -2.1811 H   0  0  0  0  0  0  0  0  0  0  0  0
    6.9597   -8.9051   -0.2021 H   0  0  0  0  0  0  0  0  0  0  0  0
    7.5470   -7.9453    2.0357 H   0  0  0  0  0  0  0  0  0  0  0  0
    5.9256   -4.8618    2.1848 H   0  0  0  0  0  0  0  0  0  0  0  0
   13.0531   -3.6222    1.2247 H   0  0  0  0  0  0  0  0  0  0  0  0
  1  2  1  0  0  0  0
  1 31  1  0  0  0  0
  1 32  1  0  0  0  0
  1 33  1  0  0  0  0
  2  3  1  0  0  0  0
  2 34  1  0  0  0  0
  3  4  1  0  0  0  0
  3 35  1  0  0  0  0
  3 36  1  0  0  0  0
  4  5  1  0  0  0  0
  4 37  1  0  0  0  0
  4 38  1  0  0  0  0
  5  6  1  0  0  0  0
  5 39  1  0  0  0  0
  5 40  1  0  0  0  0
  6  7  1  0  0  0  0
  6 25  1  0  0  0  0
  7  8  1  0  0  0  0
  7 12  2  0  0  0  0
  8  9  2  0  0  0  0
  8 41  1  0  0  0  0
  9 10  1  0  0  0  0
  9 42  1  0  0  0  0
 10 11  2  0  0  0  0
 10 43  1  0  0  0  0
 11 12  1  0  0  0  0
 11 44  1  0  0  0  0
 12 13  1  0  0  0  0
 13 14  1  0  0  0  0
 13 25  2  0  0  0  0
 14 15  2  0  0  0  0
 14 29  1  0  0  0  0
 15 16  1  0  0  0  0
 15 26  1  0  0  0  0
 16 17  1  0  0  0  0
 16 24  2  0  0  0  0
 17 18  1  0  0  0  0
 17 22  2  0  0  0  0
 18 19  2  0  0  0  0
 18 45  1  0  0  0  0
 19 20  1  0  0  0  0
 19 46  1  0  0  0  0
 20 21  2  0  0  0  0
 20 47  1  0  0  0  0
 21 22  1  0  0  0  0
 21 48  1  0  0  0  0
 22 23  1  0  0  0  0
 23 24  1  0  0  0  0
 23 49  1  0  0  0  0
 24 25  1  0  0  0  0
 26 27  2  0  0  0  0
 26 28  1  0  0  0  0
 28 29  1  0  0  0  0
 28 50  1  0  0  0  0
 29 30  2  0  0  0  0
M  END
$$$$
