REMARK  Name = 
REMARK  3 active torsions:
REMARK  status: ('A' for Active; 'I' for Inactive)
REMARK    1  A    between atoms: C_1  and  C_2
REMARK    2  A    between atoms: N_7  and  S_8
REMARK    3  A    between atoms: S_8  and  C_11
REMARK                            x       y       z     vdW  Elec       q    Type
REMARK                         _______ _______ _______ _____ _____    ______ ____
ROOT
ATOM      1  S   UNL     1       1.179  -0.616   0.595  0.00  0.00    +0.000 S 
ATOM      2  O   UNL     1       1.882  -1.829   0.965  0.00  0.00    +0.000 OA
ATOM      3  O   UNL     1       1.871   0.650   0.658  0.00  0.00    +0.000 OA
ENDROOT
BRANCH   1   4
ATOM      4  C   UNL     1      -0.292  -0.541   1.621  0.00  0.00    +0.000 A 
ATOM      5  C   UNL     1      -0.733  -1.780   2.123  0.00  0.00    +0.000 A 
ATOM      6  C   UNL     1      -1.819  -1.851   2.985  0.00  0.00    +0.000 A 
ATOM      7  C   UNL     1      -2.478  -0.686   3.354  0.00  0.00    +0.000 A 
ATOM      8  C   UNL     1      -2.045   0.565   2.886  0.00  0.00    +0.000 A 
ATOM      9  C   UNL     1      -2.711   1.726   3.290  0.00  0.00    +0.000 A 
ATOM     10  N   UNL     1      -2.372   2.977   2.920  0.00  0.00    +0.000 NA
ATOM     11  C   UNL     1      -1.304   3.086   2.114  0.00  0.00    +0.000 A 
ATOM     12  C   UNL     1      -0.575   2.001   1.644  0.00  0.00    +0.000 A 
ATOM     13  C   UNL     1      -0.929   0.679   2.018  0.00  0.00    +0.000 A 
ATOM     14  H   UNL     1      -0.215  -2.702   1.860  0.00  0.00    +0.000 HD
ATOM     15  H   UNL     1      -2.143  -2.811   3.380  0.00  0.00    +0.000 HD
ATOM     16  H   UNL     1      -3.328  -0.758   4.030  0.00  0.00    +0.000 HD
ATOM     17  H   UNL     1      -3.571   1.679   3.955  0.00  0.00    +0.000 HD
ATOM     18  H   UNL     1      -1.032   4.102   1.840  0.00  0.00    +0.000 HD
ATOM     19  H   UNL     1       0.265   2.221   0.998  0.00  0.00    +0.000 HD
ENDBRANCH   1   4
BRANCH   1  25
ATOM     20  C   UNL     1       1.625  -1.377  -1.968  0.00  0.00    +0.000 C 
ATOM     21  C   UNL     1       2.548  -0.229  -2.446  0.00  0.00    +0.000 C 
ATOM     22  N   UNL     1       1.828   0.903  -3.062  0.00  0.00    +0.000 NA
ATOM     23  C   UNL     1       0.784   1.395  -2.146  0.00  0.00    +0.000 C 
ATOM     24  C   UNL     1      -0.164   0.304  -1.604  0.00  0.00    +0.000 C 
ATOM     25  N   UNL     1       0.575  -0.855  -1.004  0.00  0.00    +0.000 NA
ATOM     26  H   UNL     1       2.234  -2.135  -1.462  0.00  0.00    +0.000 HD
ATOM     27  H   UNL     1       3.265  -0.619  -3.178  0.00  0.00    +0.000 HD
ATOM     28  H   UNL     1       3.149   0.142  -1.608  0.00  0.00    +0.000 HD
ATOM     29  H   UNL     1       1.390   0.585  -3.925  0.00  0.00    +0.000 HD
ATOM     30  H   UNL     1       0.188   2.144  -2.678  0.00  0.00    +0.000 HD
ATOM     31  H   UNL     1       1.264   1.932  -1.323  0.00  0.00    +0.000 HD
ATOM     32  H   UNL     1      -0.789  -0.077  -2.421  0.00  0.00    +0.000 HD
ATOM     33  H   UNL     1      -0.870   0.725  -0.886  0.00  0.00    +0.000 HD
BRANCH  20  34
ATOM     34  C   UNL     1       0.956  -2.093  -3.150  0.00  0.00    +0.000 C 
ATOM     35  H   UNL     1       1.715  -2.542  -3.801  0.00  0.00    +0.000 HD
ATOM     36  H   UNL     1       0.357  -1.422  -3.773  0.00  0.00    +0.000 HD
ATOM     37  H   UNL     1       0.295  -2.893  -2.801  0.00  0.00    +0.000 HD
ENDBRANCH  20  34
ENDBRANCH   1  25
TORSDOF 3
