
 OpenBabel01112422493D

 49 56  0  0  1  0  0  0  0  0999 V2000
    0.9174   -0.2647   -0.0623 O   0  0  0  0  0  0  0  0  0  0  0  0
    2.1258   -0.0812   -0.0246 C   0  0  0  0  0  0  0  0  0  0  0  0
    3.0369   -1.1084   -0.0702 N   0  0  0  0  0  0  0  0  0  0  0  0
    4.3641   -0.7630   -0.0001 C   0  0  0  0  0  0  0  0  0  0  0  0
    5.2662   -1.5892   -0.0161 O   0  0  0  0  0  0  0  0  0  0  0  0
    4.3133    0.6560    0.0925 C   0  0  0  0  0  0  0  0  0  0  0  0
    2.9569    1.0693    0.0768 C   0  0  0  0  0  0  0  0  0  0  0  0
    2.7814    2.4670    0.1542 C   0  0  0  0  0  0  0  0  0  0  0  0
    1.5649    3.1984    0.0624 C   0  0  0  0  0  0  0  0  0  0  0  0
    0.2009    2.8649   -0.1017 C   0  0  0  0  0  0  0  0  0  0  0  0
   -0.7780    3.8605   -0.2005 C   0  0  0  0  0  0  0  0  0  0  0  0
   -0.4335    5.2023   -0.1467 C   0  0  0  0  0  0  0  0  0  0  0  0
    0.8953    5.5917    0.0183 C   0  0  0  0  0  0  0  0  0  0  0  0
    1.8962    4.6062    0.1326 C   0  0  0  0  0  0  0  0  0  0  0  0
    3.2813    4.7872    0.2967 N   0  0  0  0  0  0  0  0  0  0  0  0
    3.7159    3.5016    0.2626 C   0  0  0  0  0  0  0  0  0  0  0  0
    5.0392    3.1000    0.2800 C   0  0  0  0  0  0  0  0  0  0  0  0
    5.2379    1.7184    0.1863 C   0  0  0  0  0  0  0  0  0  0  0  0
    6.6540    1.6459    0.1214 C   0  0  0  0  0  0  0  0  0  0  0  0
    7.6022    0.6078   -0.0353 C   0  0  0  0  0  0  0  0  0  0  0  0
    8.9717    0.8861   -0.1124 C   0  0  0  0  0  0  0  0  0  0  0  0
    9.4371    2.1884   -0.0186 C   0  0  0  0  0  0  0  0  0  0  0  0
    8.5518    3.2515    0.1561 C   0  0  0  0  0  0  0  0  0  0  0  0
    7.1666    2.9981    0.2140 C   0  0  0  0  0  0  0  0  0  0  0  0
    6.1147    3.9238    0.3256 N   0  0  0  0  0  0  0  0  0  0  0  0
    6.1950    5.3611    0.3540 C   0  0  2  0  0  0  0  0  0  0  0  0
    5.1530    5.8550    1.2030 O   0  0  0  0  0  0  0  0  0  0  0  0
    4.0143    6.0297    0.3552 C   0  0  1  0  0  0  0  0  0  0  0  0
    4.5333    6.4551   -1.0079 C   0  0  0  0  0  0  0  0  0  0  0  0
    6.0081    6.0713   -0.9846 C   0  0  2  0  0  0  0  0  0  0  0  0
    6.4557    5.3123   -2.2265 C   0  0  0  0  0  0  0  0  0  0  0  0
    6.2468    6.1204   -3.3814 O   0  0  0  0  0  0  0  0  0  0  0  0
    2.7441   -2.0695   -0.1303 H   0  0  0  0  0  0  0  0  0  0  0  0
   -0.1172    1.8292   -0.1633 H   0  0  0  0  0  0  0  0  0  0  0  0
   -1.8197    3.5744   -0.3273 H   0  0  0  0  0  0  0  0  0  0  0  0
   -1.2071    5.9613   -0.2351 H   0  0  0  0  0  0  0  0  0  0  0  0
    1.1387    6.6493    0.0512 H   0  0  0  0  0  0  0  0  0  0  0  0
    7.2877   -0.4276   -0.1174 H   0  0  0  0  0  0  0  0  0  0  0  0
    9.6756    0.0686   -0.2516 H   0  0  0  0  0  0  0  0  0  0  0  0
   10.5049    2.3845   -0.0861 H   0  0  0  0  0  0  0  0  0  0  0  0
    8.9455    4.2611    0.2302 H   0  0  0  0  0  0  0  0  0  0  0  0
    7.1492    5.6317    0.8163 H   0  0  0  0  0  0  0  0  0  0  0  0
    3.3639    6.7858    0.8043 H   0  0  0  0  0  0  0  0  0  0  0  0
    4.4477    7.5433   -1.1128 H   0  0  0  0  0  0  0  0  0  0  0  0
    3.9711    6.0101   -1.8365 H   0  0  0  0  0  0  0  0  0  0  0  0
    6.5702    7.0152   -0.9447 H   0  0  0  0  0  0  0  0  0  0  0  0
    7.5169    5.0515   -2.1772 H   0  0  0  0  0  0  0  0  0  0  0  0
    5.8811    4.3924   -2.3711 H   0  0  0  0  0  0  0  0  0  0  0  0
    6.7211    6.9605   -3.2594 H   0  0  0  0  0  0  0  0  0  0  0  0
  1  2  2  0  0  0  0
  2  3  1  0  0  0  0
  2  7  1  0  0  0  0
  3  4  1  0  0  0  0
  3 33  1  0  0  0  0
  4  5  2  0  0  0  0
  4  6  1  0  0  0  0
  6  7  1  0  0  0  0
  6 18  2  0  0  0  0
  7  8  2  0  0  0  0
  8  9  1  0  0  0  0
  8 16  1  0  0  0  0
  9 10  1  0  0  0  0
  9 14  2  0  0  0  0
 10 11  2  0  0  0  0
 10 34  1  0  0  0  0
 11 12  1  0  0  0  0
 11 35  1  0  0  0  0
 12 13  2  0  0  0  0
 12 36  1  0  0  0  0
 13 14  1  0  0  0  0
 13 37  1  0  0  0  0
 14 15  1  0  0  0  0
 15 16  1  0  0  0  0
 15 28  1  0  0  0  0
 16 17  2  0  0  0  0
 17 18  1  0  0  0  0
 17 25  1  0  0  0  0
 18 19  1  0  0  0  0
 19 20  1  0  0  0  0
 19 24  2  0  0  0  0
 20 21  2  0  0  0  0
 20 38  1  0  0  0  0
 21 22  1  0  0  0  0
 21 39  1  0  0  0  0
 22 23  2  0  0  0  0
 22 40  1  0  0  0  0
 23 24  1  0  0  0  0
 23 41  1  0  0  0  0
 24 25  1  0  0  0  0
 25 26  1  0  0  0  0
 26 27  1  0  0  0  0
 26 30  1  0  0  0  0
 26 42  1  1  0  0  0
 27 28  1  0  0  0  0
 28 29  1  0  0  0  0
 28 43  1  1  0  0  0
 29 30  1  0  0  0  0
 29 44  1  0  0  0  0
 29 45  1  0  0  0  0
 30 31  1  0  0  0  0
 30 46  1  1  0  0  0
 31 32  1  0  0  0  0
 31 47  1  0  0  0  0
 31 48  1  0  0  0  0
 32 49  1  0  0  0  0
M  END
$$$$
