REMARK  Name = 
REMARK  6 active torsions:
REMARK  status: ('A' for Active; 'I' for Inactive)
REMARK    1  A    between atoms: O_1  and  C_2
REMARK    2  A    between atoms: C_8  and  O_9
REMARK    3  A    between atoms: C_10  and  O_11
REMARK    4  A    between atoms: N_13  and  C_14
REMARK    5  A    between atoms: C_14  and  C_15
REMARK    6  A    between atoms: C_24  and  O_25
REMARK                            x       y       z     vdW  Elec       q    Type
REMARK                         _______ _______ _______ _____ _____    ______ ____
ROOT
ATOM      1  C   UNL     1      -3.918   0.380  -0.831  0.00  0.00    +0.000 A 
ATOM      2  C   UNL     1      -3.277  -0.859  -0.854  0.00  0.00    +0.000 A 
ATOM      3  C   UNL     1      -1.869  -0.909  -0.779  0.00  0.00    +0.000 A 
ATOM      4  C   UNL     1      -0.929  -1.981  -0.769  0.00  0.00    +0.000 A 
ATOM      5  C   UNL     1      -1.058  -3.384  -0.891  0.00  0.00    +0.000 A 
ATOM      6  C   UNL     1       0.071  -4.204  -0.787  0.00  0.00    +0.000 A 
ATOM      7  C   UNL     1       1.305  -3.635  -0.516  0.00  0.00    +0.000 A 
ATOM      8  C   UNL     1       1.456  -2.252  -0.385  0.00  0.00    +0.000 A 
ATOM      9  C   UNL     1       0.338  -1.429  -0.568  0.00  0.00    +0.000 A 
ATOM     10  N   UNL     1       0.194  -0.055  -0.621  0.00  0.00    +0.000 N 
ATOM     11  C   UNL     1      -1.149   0.288  -0.682  0.00  0.00    +0.000 A 
ATOM     12  C   UNL     1      -1.788   1.543  -0.677  0.00  0.00    +0.000 A 
ATOM     13  C   UNL     1      -3.185   1.559  -0.749  0.00  0.00    +0.000 A 
ATOM     14  H   UNL     1      -3.841  -1.782  -0.919  0.00  0.00    +0.000 HD
ATOM     15  H   UNL     1      -2.034  -3.825  -1.073  0.00  0.00    +0.000 HD
ATOM     16  H   UNL     1      -0.045  -5.277  -0.901  0.00  0.00    +0.000 HD
ATOM     17  H   UNL     1      -1.215   2.459  -0.602  0.00  0.00    +0.000 HD
ENDROOT
BRANCH  10  18
ATOM     18  C   UNL     1       1.303   0.889  -0.777  0.00  0.00    +0.000 C 
ATOM     19  H   UNL     1       0.971   1.616  -1.530  0.00  0.00    +0.000 HD
ATOM     20  H   UNL     1       2.157   0.361  -1.212  0.00  0.00    +0.000 HD
BRANCH  18  21
ATOM     21  C   UNL     1       1.712   1.633   0.474  0.00  0.00    +0.000 A 
ATOM     22  C   UNL     1       1.289   1.280   1.762  0.00  0.00    +0.000 A 
ATOM     23  C   UNL     1       1.645   2.060   2.867  0.00  0.00    +0.000 A 
ATOM     24  C   UNL     1       2.447   3.185   2.696  0.00  0.00    +0.000 A 
ATOM     25 BR   UNL     1       2.863   4.278   4.180  0.00  0.00    +0.000 Br
ATOM     26  C   UNL     1       2.932   3.517   1.435  0.00  0.00    +0.000 A 
ATOM     27  C   UNL     1       2.569   2.741   0.332  0.00  0.00    +0.000 A 
ATOM     28  H   UNL     1       0.667   0.403   1.928  0.00  0.00    +0.000 HD
ATOM     29  H   UNL     1       1.284   1.783   3.852  0.00  0.00    +0.000 HD
ATOM     30  H   UNL     1       3.578   4.379   1.298  0.00  0.00    +0.000 HD
ATOM     31  H   UNL     1       2.953   3.014  -0.650  0.00  0.00    +0.000 HD
ENDBRANCH  18  21
ENDBRANCH  10  18
BRANCH   1  32
ATOM     32  O   UNL     1      -5.285   0.441  -0.878  0.00  0.00    +0.000 OA
ATOM     33  H   UNL     1      -5.645  -0.456  -0.825  0.00  0.00    +0.000 HD
ENDBRANCH   1  32
BRANCH   7  34
ATOM     34  O   UNL     1       2.431  -4.403  -0.373  0.00  0.00    +0.000 OA
ATOM     35  H   UNL     1       2.207  -5.312  -0.638  0.00  0.00    +0.000 HD
ENDBRANCH   7  34
BRANCH   8  36
ATOM     36  O   UNL     1       2.689  -1.743  -0.061  0.00  0.00    +0.000 OA
ATOM     37  H   UNL     1       3.236  -2.534   0.117  0.00  0.00    +0.000 HD
ENDBRANCH   8  36
BRANCH  13  38
ATOM     38  O   UNL     1      -3.853   2.754  -0.733  0.00  0.00    +0.000 OA
ATOM     39  H   UNL     1      -3.209   3.475  -0.659  0.00  0.00    +0.000 HD
ENDBRANCH  13  38
TORSDOF 6
