MODEL 1
REMARK VINA RESULT:    -7.679      0.000      0.000
REMARK INTER + INTRA:         -10.757
REMARK INTER:                 -10.822
REMARK INTRA:                   0.065
REMARK UNBOUND:                 0.065
REMARK  Name = 
REMARK  10 active torsions:
REMARK  status: ('A' for Active; 'I' for Inactive)
REMARK    1  A    between atoms: C_1  and  O_2
REMARK    2  A    between atoms: O_2  and  C_3
REMARK    3  A    between atoms: C_4  and  N_5
REMARK    4  A    between atoms: N_5  and  C_6
REMARK    5  A    between atoms: C_7  and  O_9
REMARK    6  A    between atoms: O_9  and  C_10
REMARK    7  A    between atoms: C_10  and  C_11
REMARK    8  A    between atoms: C_10  and  C_12
REMARK    9  A    between atoms: C_10  and  C_13
REMARK   10  A    between atoms: C_17  and  C_18
REMARK                            x       y       z     vdW  Elec       q    Type
REMARK                         _______ _______ _______ _____ _____    ______ ____
ROOT
ATOM      1  C   UNL     1      -9.921  -7.098  17.138  0.00  0.00    +0.000 C 
ATOM      2  C   UNL     1     -10.037  -8.179  18.270  0.00  0.00    +0.000 C 
ATOM      3  C   UNL     1      -9.462  -7.742  19.630  0.00  0.00    +0.000 C 
ATOM      4  C   UNL     1      -9.186  -6.268  19.707  0.00  0.00    +0.000 C 
ATOM      5  O   UNL     1     -10.404  -5.699  19.150  0.00  0.00    +0.000 OA
ATOM      6  C   UNL     1     -10.436  -5.712  17.683  0.00  0.00    +0.000 C 
ATOM      7  N   UNL     1      -9.701  -4.478  17.263  0.00  0.00    +0.000 N 
ATOM      8  C   UNL     1     -10.287  -3.392  16.555  0.00  0.00    +0.000 A 
ATOM      9  C   UNL     1     -10.660  -3.321  15.209  0.00  0.00    +0.000 A 
ATOM     10  C   UNL     1     -11.303  -2.164  14.767  0.00  0.00    +0.000 A 
ATOM     11  C   UNL     1     -11.628  -1.140  15.652  0.00  0.00    +0.000 A 
ATOM     12  C   UNL     1     -11.262  -1.198  17.008  0.00  0.00    +0.000 A 
ATOM     13  C   UNL     1     -10.502  -2.285  17.471  0.00  0.00    +0.000 A 
ATOM     14  C   UNL     1      -9.715  -2.523  18.640  0.00  0.00    +0.000 A 
ATOM     15  C   UNL     1      -9.909  -2.124  19.974  0.00  0.00    +0.000 A 
ATOM     16  C   UNL     1      -8.960  -2.641  20.907  0.00  0.00    +0.000 A 
ATOM     17  C   UNL     1      -8.015  -3.505  20.316  0.00  0.00    +0.000 A 
ATOM     18  C   UNL     1      -7.292  -4.513  21.091  0.00  0.00    +0.000 A 
ATOM     19  C   UNL     1      -6.397  -4.321  22.156  0.00  0.00    +0.000 A 
ATOM     20  C   UNL     1      -5.191  -3.765  21.750  0.00  0.00    +0.000 A 
ATOM     21  C   UNL     1      -4.775  -3.936  20.429  0.00  0.00    +0.000 A 
ATOM     22  C   UNL     1      -5.473  -4.810  19.553  0.00  0.00    +0.000 A 
ATOM     23  C   UNL     1      -6.765  -5.278  19.976  0.00  0.00    +0.000 A 
ATOM     24  N   UNL     1      -7.964  -5.576  19.183  0.00  0.00    +0.000 N 
ATOM     25  C   UNL     1      -8.226  -4.244  19.118  0.00  0.00    +0.000 A 
ATOM     26  C   UNL     1      -9.112  -3.725  18.233  0.00  0.00    +0.000 A 
ATOM     27  C   UNL     1      -9.506  -2.745  22.228  0.00  0.00    +0.000 C 
ATOM     28  O   UNL     1      -9.103  -3.167  23.307  0.00  0.00    +0.000 OA
ATOM     29  N   UNL     1     -10.875  -2.506  22.000  0.00  0.00    +0.000 N 
ATOM     30  C   UNL     1     -11.194  -1.928  20.686  0.00  0.00    +0.000 C 
ATOM     31  H   UNL     1     -10.554  -7.425  16.301  0.00  0.00    +0.000 HD
ATOM     32  H   UNL     1     -11.122  -8.288  18.428  0.00  0.00    +0.000 HD
ATOM     33  H   UNL     1      -8.641  -8.322  20.048  0.00  0.00    +0.000 HD
ATOM     34  H   UNL     1     -10.293  -7.921  20.337  0.00  0.00    +0.000 HD
ATOM     35  H   UNL     1      -9.226  -6.027  20.773  0.00  0.00    +0.000 HD
ATOM     36  H   UNL     1     -10.428  -4.122  14.516  0.00  0.00    +0.000 HD
ATOM     37  H   UNL     1     -11.547  -2.064  13.709  0.00  0.00    +0.000 HD
ATOM     38  H   UNL     1     -12.135  -0.255  15.272  0.00  0.00    +0.000 HD
ATOM     39  H   UNL     1     -11.451  -0.339  17.647  0.00  0.00    +0.000 HD
ATOM     40  H   UNL     1      -6.737  -4.285  23.183  0.00  0.00    +0.000 HD
ATOM     41  H   UNL     1      -4.610  -3.180  22.458  0.00  0.00    +0.000 HD
ATOM     42  H   UNL     1      -3.925  -3.355  20.070  0.00  0.00    +0.000 HD
ATOM     43  H   UNL     1      -5.171  -4.870  18.510  0.00  0.00    +0.000 HD
ATOM     44  H   UNL     1     -11.386  -3.342  22.273  0.00  0.00    +0.000 HD
ATOM     45  H   UNL     1     -11.432  -0.881  20.834  0.00  0.00    +0.000 HD
ATOM     46  H   UNL     1     -12.009  -2.503  20.240  0.00  0.00    +0.000 HD
ENDROOT
BRANCH   6  47
ATOM     47  C   UNL     1     -11.951  -5.581  17.396  0.00  0.00    +0.000 C 
ATOM     48  H   UNL     1     -12.337  -4.625  17.767  0.00  0.00    +0.000 HD
ATOM     49  H   UNL     1     -12.536  -6.375  17.867  0.00  0.00    +0.000 HD
ATOM     50  H   UNL     1     -12.155  -5.586  16.317  0.00  0.00    +0.000 HD
ENDBRANCH   6  47
BRANCH   2  51
ATOM     51  N   UNL     1      -9.541  -9.520  17.910  0.00  0.00    +0.000 N 
ATOM     52  C   UNL     1     -10.080 -10.183  16.816  0.00  0.00    +0.000 C 
ATOM     53  O   UNL     1     -10.755  -9.646  15.957  0.00  0.00    +0.000 OA
BRANCH  51  54
ATOM     54  C   UNL     1      -8.767 -10.262  18.899  0.00  0.00    +0.000 C 
ATOM     55  H   UNL     1      -7.697 -10.128  18.732  0.00  0.00    +0.000 HD
ATOM     56  H   UNL     1      -9.000 -11.327  18.851  0.00  0.00    +0.000 HD
ATOM     57  H   UNL     1      -9.041  -9.888  19.893  0.00  0.00    +0.000 HD
ENDBRANCH  51  54
BRANCH  52  58
ATOM     58  O   UNL     1      -9.811 -11.513  16.875  0.00  0.00    +0.000 OA
BRANCH  58  59
ATOM     59  C   UNL     1      -8.785 -12.139  16.070  0.00  0.00    +0.000 C 
BRANCH  59  60
ATOM     60  C   UNL     1      -8.035 -11.090  15.248  0.00  0.00    +0.000 C 
ATOM     61  H   UNL     1      -8.728 -10.333  14.864  0.00  0.00    +0.000 HD
ATOM     62  H   UNL     1      -7.546 -11.532  14.374  0.00  0.00    +0.000 HD
ATOM     63  H   UNL     1      -7.270 -10.586  15.847  0.00  0.00    +0.000 HD
ENDBRANCH  59  60
BRANCH  59  64
ATOM     64  C   UNL     1      -7.818 -12.753  17.092  0.00  0.00    +0.000 C 
ATOM     65  H   UNL     1      -8.353 -13.403  17.795  0.00  0.00    +0.000 HD
ATOM     66  H   UNL     1      -7.343 -11.974  17.700  0.00  0.00    +0.000 HD
ATOM     67  H   UNL     1      -7.031 -13.340  16.608  0.00  0.00    +0.000 HD
ENDBRANCH  59  64
BRANCH  59  68
ATOM     68  C   UNL     1      -9.354 -13.263  15.198  0.00  0.00    +0.000 C 
ATOM     69  H   UNL     1      -9.857 -14.019  15.814  0.00  0.00    +0.000 HD
ATOM     70  H   UNL     1      -8.566 -13.757  14.620  0.00  0.00    +0.000 HD
ATOM     71  H   UNL     1     -10.095 -12.890  14.484  0.00  0.00    +0.000 HD
ENDBRANCH  59  68
ENDBRANCH  58  59
ENDBRANCH  52  58
ENDBRANCH   2  51
BRANCH   1  72
ATOM     72  O   UNL     1      -8.560  -7.089  16.672  0.00  0.00    +0.000 OA
BRANCH  72  73
ATOM     73  C   UNL     1      -8.445  -7.209  15.258  0.00  0.00    +0.000 C 
ATOM     74  H   UNL     1      -7.479  -6.803  14.950  0.00  0.00    +0.000 HD
ATOM     75  H   UNL     1      -9.226  -6.610  14.785  0.00  0.00    +0.000 HD
ATOM     76  H   UNL     1      -8.511  -8.246  14.911  0.00  0.00    +0.000 HD
ENDBRANCH  72  73
ENDBRANCH   1  72
TORSDOF 10
ENDMDL
MODEL 2
REMARK VINA RESULT:    -6.872      5.789      9.039
REMARK INTER + INTRA:          -9.619
REMARK INTER:                  -9.782
REMARK INTRA:                   0.163
REMARK UNBOUND:                 0.065
REMARK  Name = 
REMARK  10 active torsions:
REMARK  status: ('A' for Active; 'I' for Inactive)
REMARK    1  A    between atoms: C_1  and  O_2
REMARK    2  A    between atoms: O_2  and  C_3
REMARK    3  A    between atoms: C_4  and  N_5
REMARK    4  A    between atoms: N_5  and  C_6
REMARK    5  A    between atoms: C_7  and  O_9
REMARK    6  A    between atoms: O_9  and  C_10
REMARK    7  A    between atoms: C_10  and  C_11
REMARK    8  A    between atoms: C_10  and  C_12
REMARK    9  A    between atoms: C_10  and  C_13
REMARK   10  A    between atoms: C_17  and  C_18
REMARK                            x       y       z     vdW  Elec       q    Type
REMARK                         _______ _______ _______ _____ _____    ______ ____
ROOT
ATOM      1  C   UNL     1     -11.028   0.696  20.265  0.00  0.00    +0.000 C 
ATOM      2  C   UNL     1     -11.144  -0.518  21.254  0.00  0.00    +0.000 C 
ATOM      3  C   UNL     1     -11.073  -0.136  22.744  0.00  0.00    +0.000 C 
ATOM      4  C   UNL     1     -11.223   1.339  22.982  0.00  0.00    +0.000 C 
ATOM      5  O   UNL     1     -12.363   1.670  22.139  0.00  0.00    +0.000 OA
ATOM      6  C   UNL     1     -12.011   1.839  20.724  0.00  0.00    +0.000 C 
ATOM      7  N   UNL     1     -11.544   3.255  20.601  0.00  0.00    +0.000 N 
ATOM      8  C   UNL     1     -12.192   4.253  19.822  0.00  0.00    +0.000 A 
ATOM      9  C   UNL     1     -12.212   4.407  18.432  0.00  0.00    +0.000 A 
ATOM     10  C   UNL     1     -13.000   5.426  17.896  0.00  0.00    +0.000 A 
ATOM     11  C   UNL     1     -13.798   6.222  18.713  0.00  0.00    +0.000 A 
ATOM     12  C   UNL     1     -13.791   6.078  20.111  0.00  0.00    +0.000 A 
ATOM     13  C   UNL     1     -12.919   5.151  20.704  0.00  0.00    +0.000 A 
ATOM     14  C   UNL     1     -12.424   4.958  22.032  0.00  0.00    +0.000 A 
ATOM     15  C   UNL     1     -13.053   5.125  23.278  0.00  0.00    +0.000 A 
ATOM     16  C   UNL     1     -12.273   4.731  24.409  0.00  0.00    +0.000 A 
ATOM     17  C   UNL     1     -11.016   4.198  24.057  0.00  0.00    +0.000 A 
ATOM     18  C   UNL     1     -10.278   3.299  24.943  0.00  0.00    +0.000 A 
ATOM     19  C   UNL     1      -9.770   3.558  26.227  0.00  0.00    +0.000 A 
ATOM     20  C   UNL     1      -8.690   4.431  26.209  0.00  0.00    +0.000 A 
ATOM     21  C   UNL     1      -7.918   4.535  25.051  0.00  0.00    +0.000 A 
ATOM     22  C   UNL     1      -8.114   3.640  23.964  0.00  0.00    +0.000 A 
ATOM     23  C   UNL     1      -9.301   2.829  23.978  0.00  0.00    +0.000 A 
ATOM     24  N   UNL     1     -10.134   2.361  22.864  0.00  0.00    +0.000 N 
ATOM     25  C   UNL     1     -10.710   3.591  22.807  0.00  0.00    +0.000 A 
ATOM     26  C   UNL     1     -11.443   3.995  21.741  0.00  0.00    +0.000 A 
ATOM     27  C   UNL     1     -13.094   4.332  25.513  0.00  0.00    +0.000 C 
ATOM     28  O   UNL     1     -12.886   3.882  26.636  0.00  0.00    +0.000 OA
ATOM     29  N   UNL     1     -14.371   4.267  24.924  0.00  0.00    +0.000 N 
ATOM     30  C   UNL     1     -14.482   4.918  23.610  0.00  0.00    +0.000 C 
ATOM     31  H   UNL     1     -11.316   0.339  19.267  0.00  0.00    +0.000 HD
ATOM     32  H   UNL     1     -12.165  -0.900  21.093  0.00  0.00    +0.000 HD
ATOM     33  H   UNL     1     -10.265  -0.555  23.341  0.00  0.00    +0.000 HD
ATOM     34  H   UNL     1     -11.980  -0.596  23.176  0.00  0.00    +0.000 HD
ATOM     35  H   UNL     1     -11.597   1.424  24.006  0.00  0.00    +0.000 HD
ATOM     36  H   UNL     1     -11.608   3.780  17.786  0.00  0.00    +0.000 HD
ATOM     37  H   UNL     1     -12.982   5.601  16.820  0.00  0.00    +0.000 HD
ATOM     38  H   UNL     1     -14.405   7.003  18.258  0.00  0.00    +0.000 HD
ATOM     39  H   UNL     1     -14.357   6.779  20.720  0.00  0.00    +0.000 HD
ATOM     40  H   UNL     1     -10.360   3.380  27.116  0.00  0.00    +0.000 HD
ATOM     41  H   UNL     1      -8.485   5.041  27.086  0.00  0.00    +0.000 HD
ATOM     42  H   UNL     1      -7.188   5.341  24.981  0.00  0.00    +0.000 HD
ATOM     43  H   UNL     1      -7.548   3.788  23.047  0.00  0.00    +0.000 HD
ATOM     44  H   UNL     1     -14.697   3.307  24.993  0.00  0.00    +0.000 HD
ATOM     45  H   UNL     1     -15.016   5.851  23.746  0.00  0.00    +0.000 HD
ATOM     46  H   UNL     1     -14.974   4.229  22.920  0.00  0.00    +0.000 HD
ENDROOT
BRANCH   6  47
ATOM     47  C   UNL     1     -13.381   1.644  20.031  0.00  0.00    +0.000 C 
ATOM     48  H   UNL     1     -14.177   1.508  20.771  0.00  0.00    +0.000 HD
ATOM     49  H   UNL     1     -13.395   0.773  19.372  0.00  0.00    +0.000 HD
ATOM     50  H   UNL     1     -13.665   2.530  19.449  0.00  0.00    +0.000 HD
ENDBRANCH   6  47
BRANCH   2  51
ATOM     51  N   UNL     1     -10.237  -1.646  20.970  0.00  0.00    +0.000 N 
ATOM     52  C   UNL     1      -8.980  -1.684  21.558  0.00  0.00    +0.000 C 
ATOM     53  O   UNL     1      -8.647  -0.994  22.503  0.00  0.00    +0.000 OA
BRANCH  51  54
ATOM     54  C   UNL     1     -10.529  -2.498  19.822  0.00  0.00    +0.000 C 
ATOM     55  H   UNL     1      -9.949  -2.185  18.953  0.00  0.00    +0.000 HD
ATOM     56  H   UNL     1     -11.590  -2.456  19.570  0.00  0.00    +0.000 HD
ATOM     57  H   UNL     1     -10.274  -3.529  20.093  0.00  0.00    +0.000 HD
ENDBRANCH  51  54
BRANCH  52  58
ATOM     58  O   UNL     1      -8.161  -2.540  20.892  0.00  0.00    +0.000 OA
BRANCH  58  59
ATOM     59  C   UNL     1      -7.437  -3.602  21.555  0.00  0.00    +0.000 C 
BRANCH  59  60
ATOM     60  C   UNL     1      -8.090  -3.941  22.895  0.00  0.00    +0.000 C 
ATOM     61  H   UNL     1      -9.109  -4.314  22.745  0.00  0.00    +0.000 HD
ATOM     62  H   UNL     1      -8.177  -3.060  23.539  0.00  0.00    +0.000 HD
ATOM     63  H   UNL     1      -7.519  -4.703  23.436  0.00  0.00    +0.000 HD
ENDBRANCH  59  60
BRANCH  59  64
ATOM     64  C   UNL     1      -7.581  -4.808  20.614  0.00  0.00    +0.000 C 
ATOM     65  H   UNL     1      -6.636  -5.361  20.540  0.00  0.00    +0.000 HD
ATOM     66  H   UNL     1      -7.824  -4.483  19.595  0.00  0.00    +0.000 HD
ATOM     67  H   UNL     1      -8.360  -5.498  20.952  0.00  0.00    +0.000 HD
ENDBRANCH  59  64
BRANCH  59  68
ATOM     68  C   UNL     1      -5.948  -3.271  21.701  0.00  0.00    +0.000 C 
ATOM     69  H   UNL     1      -5.516  -3.783  22.570  0.00  0.00    +0.000 HD
ATOM     70  H   UNL     1      -5.790  -2.194  21.819  0.00  0.00    +0.000 HD
ATOM     71  H   UNL     1      -5.372  -3.589  20.826  0.00  0.00    +0.000 HD
ENDBRANCH  59  68
ENDBRANCH  58  59
ENDBRANCH  52  58
ENDBRANCH   2  51
BRANCH   1  72
ATOM     72  O   UNL     1      -9.645   1.086  20.203  0.00  0.00    +0.000 OA
BRANCH  72  73
ATOM     73  C   UNL     1      -9.114   1.077  18.881  0.00  0.00    +0.000 C 
ATOM     74  H   UNL     1      -9.778   1.653  18.234  0.00  0.00    +0.000 HD
ATOM     75  H   UNL     1      -9.095   0.049  18.512  0.00  0.00    +0.000 HD
ATOM     76  H   UNL     1      -8.110   1.511  18.823  0.00  0.00    +0.000 HD
ENDBRANCH  72  73
ENDBRANCH   1  72
TORSDOF 10
ENDMDL
MODEL 3
REMARK VINA RESULT:    -6.858      4.383      8.349
REMARK INTER + INTRA:          -9.599
REMARK INTER:                  -9.201
REMARK INTRA:                  -0.398
REMARK UNBOUND:                 0.065
REMARK  Name = 
REMARK  10 active torsions:
REMARK  status: ('A' for Active; 'I' for Inactive)
REMARK    1  A    between atoms: C_1  and  O_2
REMARK    2  A    between atoms: O_2  and  C_3
REMARK    3  A    between atoms: C_4  and  N_5
REMARK    4  A    between atoms: N_5  and  C_6
REMARK    5  A    between atoms: C_7  and  O_9
REMARK    6  A    between atoms: O_9  and  C_10
REMARK    7  A    between atoms: C_10  and  C_11
REMARK    8  A    between atoms: C_10  and  C_12
REMARK    9  A    between atoms: C_10  and  C_13
REMARK   10  A    between atoms: C_17  and  C_18
REMARK                            x       y       z     vdW  Elec       q    Type
REMARK                         _______ _______ _______ _____ _____    ______ ____
ROOT
ATOM      1  C   UNL     1     -10.261  -1.552  20.070  0.00  0.00    +0.000 C 
ATOM      2  C   UNL     1      -9.838  -0.961  18.678  0.00  0.00    +0.000 C 
ATOM      3  C   UNL     1      -9.999   0.566  18.559  0.00  0.00    +0.000 C 
ATOM      4  C   UNL     1     -10.228   1.240  19.881  0.00  0.00    +0.000 C 
ATOM      5  O   UNL     1      -9.212   0.621  20.719  0.00  0.00    +0.000 OA
ATOM      6  C   UNL     1      -9.599  -0.703  21.221  0.00  0.00    +0.000 C 
ATOM      7  N   UNL     1     -10.411  -0.436  22.449  0.00  0.00    +0.000 N 
ATOM      8  C   UNL     1     -10.040  -0.834  23.764  0.00  0.00    +0.000 A 
ATOM      9  C   UNL     1     -10.064  -2.111  24.334  0.00  0.00    +0.000 A 
ATOM     10  C   UNL     1      -9.562  -2.261  25.628  0.00  0.00    +0.000 A 
ATOM     11  C   UNL     1      -8.990  -1.189  26.305  0.00  0.00    +0.000 A 
ATOM     12  C   UNL     1      -8.956   0.099  25.744  0.00  0.00    +0.000 A 
ATOM     13  C   UNL     1      -9.563   0.326  24.498  0.00  0.00    +0.000 A 
ATOM     14  C   UNL     1      -9.988   1.496  23.795  0.00  0.00    +0.000 A 
ATOM     15  C   UNL     1      -9.419   2.779  23.721  0.00  0.00    +0.000 A 
ATOM     16  C   UNL     1     -10.070   3.681  22.825  0.00  0.00    +0.000 A 
ATOM     17  C   UNL     1     -11.151   3.094  22.135  0.00  0.00    +0.000 A 
ATOM     18  C   UNL     1     -11.634   3.617  20.858  0.00  0.00    +0.000 A 
ATOM     19  C   UNL     1     -12.188   4.878  20.582  0.00  0.00    +0.000 A 
ATOM     20  C   UNL     1     -13.454   5.039  21.129  0.00  0.00    +0.000 A 
ATOM     21  C   UNL     1     -14.230   3.909  21.390  0.00  0.00    +0.000 A 
ATOM     22  C   UNL     1     -13.817   2.624  20.945  0.00  0.00    +0.000 A 
ATOM     23  C   UNL     1     -12.463   2.486  20.483  0.00  0.00    +0.000 A 
ATOM     24  N   UNL     1     -11.541   1.349  20.593  0.00  0.00    +0.000 N 
ATOM     25  C   UNL     1     -11.297   1.701  21.883  0.00  0.00    +0.000 A 
ATOM     26  C   UNL     1     -10.694   0.860  22.759  0.00  0.00    +0.000 A 
ATOM     27  C   UNL     1      -9.171   4.676  22.318  0.00  0.00    +0.000 C 
ATOM     28  O   UNL     1      -9.255   5.597  21.512  0.00  0.00    +0.000 OA
ATOM     29  N   UNL     1      -7.921   4.191  22.749  0.00  0.00    +0.000 N 
ATOM     30  C   UNL     1      -7.983   3.141  23.776  0.00  0.00    +0.000 C 
ATOM     31  H   UNL     1      -9.895  -2.587  20.115  0.00  0.00    +0.000 HD
ATOM     32  H   UNL     1      -8.754  -1.150  18.623  0.00  0.00    +0.000 HD
ATOM     33  H   UNL     1     -10.672   0.950  17.794  0.00  0.00    +0.000 HD
ATOM     34  H   UNL     1      -9.004   0.910  18.223  0.00  0.00    +0.000 HD
ATOM     35  H   UNL     1      -9.885   2.268  19.738  0.00  0.00    +0.000 HD
ATOM     36  H   UNL     1     -10.491  -2.957  23.807  0.00  0.00    +0.000 HD
ATOM     37  H   UNL     1      -9.628  -3.236  26.112  0.00  0.00    +0.000 HD
ATOM     38  H   UNL     1      -8.603  -1.345  27.310  0.00  0.00    +0.000 HD
ATOM     39  H   UNL     1      -8.586   0.930  26.341  0.00  0.00    +0.000 HD
ATOM     40  H   UNL     1     -11.569   5.717  20.290  0.00  0.00    +0.000 HD
ATOM     41  H   UNL     1     -13.805   6.038  21.373  0.00  0.00    +0.000 HD
ATOM     42  H   UNL     1     -15.141   4.026  21.977  0.00  0.00    +0.000 HD
ATOM     43  H   UNL     1     -14.404   1.752  21.224  0.00  0.00    +0.000 HD
ATOM     44  H   UNL     1      -7.362   3.997  21.922  0.00  0.00    +0.000 HD
ATOM     45  H   UNL     1      -7.703   3.587  24.724  0.00  0.00    +0.000 HD
ATOM     46  H   UNL     1      -7.334   2.317  23.472  0.00  0.00    +0.000 HD
ENDROOT
BRANCH   6  47
ATOM     47  C   UNL     1      -8.227  -1.319  21.586  0.00  0.00    +0.000 C 
ATOM     48  H   UNL     1      -8.031  -2.216  20.988  0.00  0.00    +0.000 HD
ATOM     49  H   UNL     1      -8.164  -1.606  22.638  0.00  0.00    +0.000 HD
ATOM     50  H   UNL     1      -7.405  -0.626  21.360  0.00  0.00    +0.000 HD
ENDBRANCH   6  47
BRANCH   2  51
ATOM     51  N   UNL     1     -10.429  -1.633  17.506  0.00  0.00    +0.000 N 
ATOM     52  C   UNL     1     -10.062  -2.938  17.204  0.00  0.00    +0.000 C 
ATOM     53  O   UNL     1      -9.485  -3.681  17.975  0.00  0.00    +0.000 OA
BRANCH  51  54
ATOM     54  C   UNL     1     -11.096  -0.814  16.501  0.00  0.00    +0.000 C 
ATOM     55  H   UNL     1     -11.075   0.239  16.784  0.00  0.00    +0.000 HD
ATOM     56  H   UNL     1     -12.136  -1.125  16.378  0.00  0.00    +0.000 HD
ATOM     57  H   UNL     1     -10.574  -0.957  15.548  0.00  0.00    +0.000 HD
ENDBRANCH  51  54
BRANCH  52  58
ATOM     58  O   UNL     1     -10.374  -3.241  15.916  0.00  0.00    +0.000 OA
BRANCH  58  59
ATOM     59  C   UNL     1     -10.886  -4.534  15.521  0.00  0.00    +0.000 C 
BRANCH  59  60
ATOM     60  C   UNL     1     -11.870  -5.062  16.565  0.00  0.00    +0.000 C 
ATOM     61  H   UNL     1     -11.335  -5.517  17.405  0.00  0.00    +0.000 HD
ATOM     62  H   UNL     1     -12.519  -5.842  16.154  0.00  0.00    +0.000 HD
ATOM     63  H   UNL     1     -12.507  -4.261  16.954  0.00  0.00    +0.000 HD
ENDBRANCH  59  60
BRANCH  59  64
ATOM     64  C   UNL     1     -11.647  -4.260  14.215  0.00  0.00    +0.000 C 
ATOM     65  H   UNL     1     -11.764  -5.181  13.630  0.00  0.00    +0.000 HD
ATOM     66  H   UNL     1     -11.092  -3.563  13.576  0.00  0.00    +0.000 HD
ATOM     67  H   UNL     1     -12.641  -3.841  14.403  0.00  0.00    +0.000 HD
ENDBRANCH  59  64
BRANCH  59  68
ATOM     68  C   UNL     1      -9.758  -5.528  15.230  0.00  0.00    +0.000 C 
ATOM     69  H   UNL     1     -10.127  -6.379  14.644  0.00  0.00    +0.000 HD
ATOM     70  H   UNL     1      -9.315  -5.911  16.155  0.00  0.00    +0.000 HD
ATOM     71  H   UNL     1      -8.950  -5.070  14.650  0.00  0.00    +0.000 HD
ENDBRANCH  59  68
ENDBRANCH  58  59
ENDBRANCH  52  58
ENDBRANCH   2  51
BRANCH   1  72
ATOM     72  O   UNL     1     -11.698  -1.599  20.113  0.00  0.00    +0.000 OA
BRANCH  72  73
ATOM     73  C   UNL     1     -12.217  -2.921  20.227  0.00  0.00    +0.000 C 
ATOM     74  H   UNL     1     -11.434  -3.571  20.620  0.00  0.00    +0.000 HD
ATOM     75  H   UNL     1     -12.487  -3.284  19.234  0.00  0.00    +0.000 HD
ATOM     76  H   UNL     1     -13.085  -2.981  20.893  0.00  0.00    +0.000 HD
ENDBRANCH  72  73
ENDBRANCH   1  72
TORSDOF 10
ENDMDL
MODEL 4
REMARK VINA RESULT:    -6.744      4.435      7.956
REMARK INTER + INTRA:          -9.439
REMARK INTER:                  -8.890
REMARK INTRA:                  -0.549
REMARK UNBOUND:                 0.065
REMARK  Name = 
REMARK  10 active torsions:
REMARK  status: ('A' for Active; 'I' for Inactive)
REMARK    1  A    between atoms: C_1  and  O_2
REMARK    2  A    between atoms: O_2  and  C_3
REMARK    3  A    between atoms: C_4  and  N_5
REMARK    4  A    between atoms: N_5  and  C_6
REMARK    5  A    between atoms: C_7  and  O_9
REMARK    6  A    between atoms: O_9  and  C_10
REMARK    7  A    between atoms: C_10  and  C_11
REMARK    8  A    between atoms: C_10  and  C_12
REMARK    9  A    between atoms: C_10  and  C_13
REMARK   10  A    between atoms: C_17  and  C_18
REMARK                            x       y       z     vdW  Elec       q    Type
REMARK                         _______ _______ _______ _____ _____    ______ ____
ROOT
ATOM      1  C   UNL     1     -10.883  -3.170  14.177  0.00  0.00    +0.000 C 
ATOM      2  C   UNL     1     -11.564  -3.374  15.577  0.00  0.00    +0.000 C 
ATOM      3  C   UNL     1     -12.237  -2.114  16.149  0.00  0.00    +0.000 C 
ATOM      4  C   UNL     1     -12.393  -1.017  15.135  0.00  0.00    +0.000 C 
ATOM      5  O   UNL     1     -12.920  -1.736  13.986  0.00  0.00    +0.000 OA
ATOM      6  C   UNL     1     -11.887  -2.434  13.211  0.00  0.00    +0.000 C 
ATOM      7  N   UNL     1     -11.332  -1.405  12.278  0.00  0.00    +0.000 N 
ATOM      8  C   UNL     1     -11.428  -1.466  10.860  0.00  0.00    +0.000 A 
ATOM      9  C   UNL     1     -10.727  -2.285   9.968  0.00  0.00    +0.000 A 
ATOM     10  C   UNL     1     -11.065  -2.220   8.615  0.00  0.00    +0.000 A 
ATOM     11  C   UNL     1     -12.114  -1.420   8.174  0.00  0.00    +0.000 A 
ATOM     12  C   UNL     1     -12.830  -0.595   9.059  0.00  0.00    +0.000 A 
ATOM     13  C   UNL     1     -12.443  -0.530  10.408  0.00  0.00    +0.000 A 
ATOM     14  C   UNL     1     -12.707   0.382  11.477  0.00  0.00    +0.000 A 
ATOM     15  C   UNL     1     -13.870   1.100  11.804  0.00  0.00    +0.000 A 
ATOM     16  C   UNL     1     -13.802   1.845  13.021  0.00  0.00    +0.000 A 
ATOM     17  C   UNL     1     -12.578   1.682  13.702  0.00  0.00    +0.000 A 
ATOM     18  C   UNL     1     -12.455   1.912  15.141  0.00  0.00    +0.000 A 
ATOM     19  C   UNL     1     -12.655   3.103  15.858  0.00  0.00    +0.000 A 
ATOM     20  C   UNL     1     -11.663   4.046  15.619  0.00  0.00    +0.000 A 
ATOM     21  C   UNL     1     -10.404   3.616  15.197  0.00  0.00    +0.000 A 
ATOM     22  C   UNL     1     -10.076   2.233  15.179  0.00  0.00    +0.000 A 
ATOM     23  C   UNL     1     -11.154   1.294  15.328  0.00  0.00    +0.000 A 
ATOM     24  N   UNL     1     -11.332  -0.037  14.735  0.00  0.00    +0.000 N 
ATOM     25  C   UNL     1     -11.718   0.556  13.574  0.00  0.00    +0.000 A 
ATOM     26  C   UNL     1     -11.778  -0.123  12.403  0.00  0.00    +0.000 A 
ATOM     27  C   UNL     1     -15.095   2.024  13.613  0.00  0.00    +0.000 C 
ATOM     28  O   UNL     1     -15.517   2.531  14.647  0.00  0.00    +0.000 OA
ATOM     29  N   UNL     1     -15.895   1.159  12.842  0.00  0.00    +0.000 N 
ATOM     30  C   UNL     1     -15.279   0.693  11.591  0.00  0.00    +0.000 C 
ATOM     31  H   UNL     1     -10.645  -4.165  13.777  0.00  0.00    +0.000 HD
ATOM     32  H   UNL     1     -12.383  -4.084  15.378  0.00  0.00    +0.000 HD
ATOM     33  H   UNL     1     -11.875  -1.728  17.101  0.00  0.00    +0.000 HD
ATOM     34  H   UNL     1     -13.266  -2.447  16.380  0.00  0.00    +0.000 HD
ATOM     35  H   UNL     1     -13.229  -0.413  15.497  0.00  0.00    +0.000 HD
ATOM     36  H   UNL     1      -9.920  -2.925  10.304  0.00  0.00    +0.000 HD
ATOM     37  H   UNL     1     -10.490  -2.804   7.896  0.00  0.00    +0.000 HD
ATOM     38  H   UNL     1     -12.354  -1.400   7.112  0.00  0.00    +0.000 HD
ATOM     39  H   UNL     1     -13.580   0.086   8.662  0.00  0.00    +0.000 HD
ATOM     40  H   UNL     1     -13.626   3.368  16.256  0.00  0.00    +0.000 HD
ATOM     41  H   UNL     1     -11.894   5.102  15.735  0.00  0.00    +0.000 HD
ATOM     42  H   UNL     1      -9.690   4.359  14.844  0.00  0.00    +0.000 HD
ATOM     43  H   UNL     1      -9.114   1.921  14.778  0.00  0.00    +0.000 HD
ATOM     44  H   UNL     1     -16.271   0.448  13.464  0.00  0.00    +0.000 HD
ATOM     45  H   UNL     1     -15.747   1.229  10.772  0.00  0.00    +0.000 HD
ATOM     46  H   UNL     1     -15.394  -0.390  11.527  0.00  0.00    +0.000 HD
ENDROOT
BRANCH   6  47
ATOM     47  C   UNL     1     -12.722  -3.487  12.444  0.00  0.00    +0.000 C 
ATOM     48  H   UNL     1     -13.475  -3.940  13.098  0.00  0.00    +0.000 HD
ATOM     49  H   UNL     1     -12.107  -4.297  12.043  0.00  0.00    +0.000 HD
ATOM     50  H   UNL     1     -13.283  -3.029  11.618  0.00  0.00    +0.000 HD
ENDBRANCH   6  47
BRANCH   2  51
ATOM     51  N   UNL     1     -10.714  -4.012  16.601  0.00  0.00    +0.000 N 
ATOM     52  C   UNL     1     -10.717  -5.394  16.734  0.00  0.00    +0.000 C 
ATOM     53  O   UNL     1     -11.167  -6.160  15.902  0.00  0.00    +0.000 OA
BRANCH  51  54
ATOM     54  C   UNL     1     -10.174  -3.179  17.669  0.00  0.00    +0.000 C 
ATOM     55  H   UNL     1      -9.121  -3.408  17.841  0.00  0.00    +0.000 HD
ATOM     56  H   UNL     1     -10.725  -3.339  18.598  0.00  0.00    +0.000 HD
ATOM     57  H   UNL     1     -10.287  -2.131  17.371  0.00  0.00    +0.000 HD
ENDBRANCH  51  54
BRANCH  52  58
ATOM     58  O   UNL     1     -10.216  -5.763  17.942  0.00  0.00    +0.000 OA
BRANCH  58  59
ATOM     59  C   UNL     1      -9.168  -6.751  18.084  0.00  0.00    +0.000 C 
BRANCH  59  60
ATOM     60  C   UNL     1      -8.144  -6.610  16.958  0.00  0.00    +0.000 C 
ATOM     61  H   UNL     1      -8.292  -5.669  16.416  0.00  0.00    +0.000 HD
ATOM     62  H   UNL     1      -8.240  -7.410  16.218  0.00  0.00    +0.000 HD
ATOM     63  H   UNL     1      -7.120  -6.627  17.346  0.00  0.00    +0.000 HD
ENDBRANCH  59  60
BRANCH  59  64
ATOM     64  C   UNL     1      -8.491  -6.400  19.418  0.00  0.00    +0.000 C 
ATOM     65  H   UNL     1      -9.239  -6.153  20.182  0.00  0.00    +0.000 HD
ATOM     66  H   UNL     1      -7.858  -5.511  19.314  0.00  0.00    +0.000 HD
ATOM     67  H   UNL     1      -7.873  -7.223  19.790  0.00  0.00    +0.000 HD
ENDBRANCH  59  64
BRANCH  59  68
ATOM     68  C   UNL     1      -9.734  -8.171  18.182  0.00  0.00    +0.000 C 
ATOM     69  H   UNL     1     -10.786  -8.195  17.873  0.00  0.00    +0.000 HD
ATOM     70  H   UNL     1      -9.664  -8.558  19.203  0.00  0.00    +0.000 HD
ATOM     71  H   UNL     1      -9.196  -8.869  17.532  0.00  0.00    +0.000 HD
ENDBRANCH  59  68
ENDBRANCH  58  59
ENDBRANCH  52  58
ENDBRANCH   2  51
BRANCH   1  72
ATOM     72  O   UNL     1      -9.639  -2.479  14.387  0.00  0.00    +0.000 OA
BRANCH  72  73
ATOM     73  C   UNL     1      -8.651  -2.784  13.409  0.00  0.00    +0.000 C 
ATOM     74  H   UNL     1      -8.130  -1.863  13.138  0.00  0.00    +0.000 HD
ATOM     75  H   UNL     1      -9.143  -3.166  12.512  0.00  0.00    +0.000 HD
ATOM     76  H   UNL     1      -7.910  -3.509  13.763  0.00  0.00    +0.000 HD
ENDBRANCH  72  73
ENDBRANCH   1  72
TORSDOF 10
ENDMDL
MODEL 5
REMARK VINA RESULT:    -6.682      3.727      5.737
REMARK INTER + INTRA:          -9.352
REMARK INTER:                  -8.952
REMARK INTRA:                  -0.399
REMARK UNBOUND:                 0.065
REMARK  Name = 
REMARK  10 active torsions:
REMARK  status: ('A' for Active; 'I' for Inactive)
REMARK    1  A    between atoms: C_1  and  O_2
REMARK    2  A    between atoms: O_2  and  C_3
REMARK    3  A    between atoms: C_4  and  N_5
REMARK    4  A    between atoms: N_5  and  C_6
REMARK    5  A    between atoms: C_7  and  O_9
REMARK    6  A    between atoms: O_9  and  C_10
REMARK    7  A    between atoms: C_10  and  C_11
REMARK    8  A    between atoms: C_10  and  C_12
REMARK    9  A    between atoms: C_10  and  C_13
REMARK   10  A    between atoms: C_17  and  C_18
REMARK                            x       y       z     vdW  Elec       q    Type
REMARK                         _______ _______ _______ _____ _____    ______ ____
ROOT
ATOM      1  C   UNL     1     -11.193  -3.041  15.966  0.00  0.00    +0.000 C 
ATOM      2  C   UNL     1     -10.793  -3.370  17.449  0.00  0.00    +0.000 C 
ATOM      3  C   UNL     1      -9.986  -2.263  18.152  0.00  0.00    +0.000 C 
ATOM      4  C   UNL     1     -10.001  -0.959  17.407  0.00  0.00    +0.000 C 
ATOM      5  O   UNL     1     -11.410  -0.813  17.075  0.00  0.00    +0.000 OA
ATOM      6  C   UNL     1     -11.816  -1.595  15.902  0.00  0.00    +0.000 C 
ATOM      7  N   UNL     1     -11.477  -0.739  14.722  0.00  0.00    +0.000 N 
ATOM      8  C   UNL     1     -12.431  -0.209  13.810  0.00  0.00    +0.000 A 
ATOM      9  C   UNL     1     -13.147  -0.868  12.805  0.00  0.00    +0.000 A 
ATOM     10  C   UNL     1     -14.100  -0.140  12.092  0.00  0.00    +0.000 A 
ATOM     11  C   UNL     1     -14.383   1.183  12.417  0.00  0.00    +0.000 A 
ATOM     12  C   UNL     1     -13.676   1.858  13.426  0.00  0.00    +0.000 A 
ATOM     13  C   UNL     1     -12.620   1.206  14.084  0.00  0.00    +0.000 A 
ATOM     14  C   UNL     1     -11.526   1.646  14.892  0.00  0.00    +0.000 A 
ATOM     15  C   UNL     1     -11.445   2.679  15.843  0.00  0.00    +0.000 A 
ATOM     16  C   UNL     1     -10.203   2.764  16.542  0.00  0.00    +0.000 A 
ATOM     17  C   UNL     1      -9.290   1.752  16.176  0.00  0.00    +0.000 A 
ATOM     18  C   UNL     1      -8.205   1.329  17.060  0.00  0.00    +0.000 A 
ATOM     19  C   UNL     1      -7.122   2.084  17.540  0.00  0.00    +0.000 A 
ATOM     20  C   UNL     1      -6.199   2.388  16.548  0.00  0.00    +0.000 A 
ATOM     21  C   UNL     1      -6.112   1.564  15.425  0.00  0.00    +0.000 A 
ATOM     22  C   UNL     1      -6.824   0.336  15.367  0.00  0.00    +0.000 A 
ATOM     23  C   UNL     1      -7.842   0.112  16.357  0.00  0.00    +0.000 A 
ATOM     24  N   UNL     1      -9.120  -0.602  16.249  0.00  0.00    +0.000 N 
ATOM     25  C   UNL     1      -9.651   0.488  15.633  0.00  0.00    +0.000 A 
ATOM     26  C   UNL     1     -10.820   0.432  14.951  0.00  0.00    +0.000 A 
ATOM     27  C   UNL     1     -10.357   3.348  17.842  0.00  0.00    +0.000 C 
ATOM     28  O   UNL     1      -9.613   3.571  18.791  0.00  0.00    +0.000 OA
ATOM     29  N   UNL     1     -11.758   3.381  17.985  0.00  0.00    +0.000 N 
ATOM     30  C   UNL     1     -12.515   3.171  16.743  0.00  0.00    +0.000 C 
ATOM     31  H   UNL     1     -11.942  -3.781  15.653  0.00  0.00    +0.000 HD
ATOM     32  H   UNL     1     -11.756  -3.420  17.983  0.00  0.00    +0.000 HD
ATOM     33  H   UNL     1      -8.986  -2.507  18.507  0.00  0.00    +0.000 HD
ATOM     34  H   UNL     1     -10.553  -2.075  19.082  0.00  0.00    +0.000 HD
ATOM     35  H   UNL     1      -9.811  -0.197  18.168  0.00  0.00    +0.000 HD
ATOM     36  H   UNL     1     -12.946  -1.905  12.557  0.00  0.00    +0.000 HD
ATOM     37  H   UNL     1     -14.624  -0.619  11.265  0.00  0.00    +0.000 HD
ATOM     38  H   UNL     1     -15.138   1.718  11.843  0.00  0.00    +0.000 HD
ATOM     39  H   UNL     1     -13.861   2.918  13.587  0.00  0.00    +0.000 HD
ATOM     40  H   UNL     1      -7.185   2.641  18.466  0.00  0.00    +0.000 HD
ATOM     41  H   UNL     1      -5.583   3.278  16.649  0.00  0.00    +0.000 HD
ATOM     42  H   UNL     1      -5.518   1.901  14.576  0.00  0.00    +0.000 HD
ATOM     43  H   UNL     1      -6.795  -0.252  14.452  0.00  0.00    +0.000 HD
ATOM     44  H   UNL     1     -12.002   2.795  18.780  0.00  0.00    +0.000 HD
ATOM     45  H   UNL     1     -12.911   4.131  16.430  0.00  0.00    +0.000 HD
ATOM     46  H   UNL     1     -13.284   2.419  16.925  0.00  0.00    +0.000 HD
ENDROOT
BRANCH   6  47
ATOM     47  C   UNL     1     -13.348  -1.690  16.097  0.00  0.00    +0.000 C 
ATOM     48  H   UNL     1     -13.877  -1.390  15.186  0.00  0.00    +0.000 HD
ATOM     49  H   UNL     1     -13.707  -1.051  16.908  0.00  0.00    +0.000 HD
ATOM     50  H   UNL     1     -13.662  -2.723  16.297  0.00  0.00    +0.000 HD
ENDBRANCH   6  47
BRANCH   2  51
ATOM     51  N   UNL     1     -10.149  -4.681  17.648  0.00  0.00    +0.000 N 
ATOM     52  C   UNL     1     -10.802  -5.838  17.243  0.00  0.00    +0.000 C 
ATOM     53  O   UNL     1     -11.760  -5.854  16.493  0.00  0.00    +0.000 OA
BRANCH  51  54
ATOM     54  C   UNL     1      -9.024  -4.767  18.573  0.00  0.00    +0.000 C 
ATOM     55  H   UNL     1      -8.500  -5.716  18.455  0.00  0.00    +0.000 HD
ATOM     56  H   UNL     1      -9.367  -4.680  19.606  0.00  0.00    +0.000 HD
ATOM     57  H   UNL     1      -8.346  -3.934  18.358  0.00  0.00    +0.000 HD
ENDBRANCH  51  54
BRANCH  52  58
ATOM     58  O   UNL     1     -10.271  -6.931  17.852  0.00  0.00    +0.000 OA
BRANCH  58  59
ATOM     59  C   UNL     1      -9.686  -8.028  17.113  0.00  0.00    +0.000 C 
BRANCH  59  60
ATOM     60  C   UNL     1      -8.693  -7.506  16.074  0.00  0.00    +0.000 C 
ATOM     61  H   UNL     1      -8.210  -8.337  15.549  0.00  0.00    +0.000 HD
ATOM     62  H   UNL     1      -7.890  -6.924  16.536  0.00  0.00    +0.000 HD
ATOM     63  H   UNL     1      -9.189  -6.871  15.333  0.00  0.00    +0.000 HD
ENDBRANCH  59  60
BRANCH  59  64
ATOM     64  C   UNL     1      -8.918  -8.835  18.171  0.00  0.00    +0.000 C 
ATOM     65  H   UNL     1      -8.748  -8.233  19.073  0.00  0.00    +0.000 HD
ATOM     66  H   UNL     1      -7.925  -9.119  17.804  0.00  0.00    +0.000 HD
ATOM     67  H   UNL     1      -9.455  -9.745  18.458  0.00  0.00    +0.000 HD
ENDBRANCH  59  64
BRANCH  59  68
ATOM     68  C   UNL     1     -10.757  -8.931  16.492  0.00  0.00    +0.000 C 
ATOM     69  H   UNL     1     -11.716  -8.812  17.011  0.00  0.00    +0.000 HD
ATOM     70  H   UNL     1     -10.465  -9.985  16.539  0.00  0.00    +0.000 HD
ATOM     71  H   UNL     1     -10.932  -8.689  15.439  0.00  0.00    +0.000 HD
ENDBRANCH  59  68
ENDBRANCH  58  59
ENDBRANCH  52  58
ENDBRANCH   2  51
BRANCH   1  72
ATOM     72  O   UNL     1     -10.029  -3.228  15.143  0.00  0.00    +0.000 OA
BRANCH  72  73
ATOM     73  C   UNL     1     -10.287  -3.978  13.960  0.00  0.00    +0.000 C 
ATOM     74  H   UNL     1     -10.595  -4.986  14.245  0.00  0.00    +0.000 HD
ATOM     75  H   UNL     1      -9.365  -4.060  13.382  0.00  0.00    +0.000 HD
ATOM     76  H   UNL     1     -11.076  -3.538  13.340  0.00  0.00    +0.000 HD
ENDBRANCH  72  73
ENDBRANCH   1  72
TORSDOF 10
ENDMDL
MODEL 6
REMARK VINA RESULT:    -6.654      5.389      8.787
REMARK INTER + INTRA:          -9.311
REMARK INTER:                  -8.738
REMARK INTRA:                  -0.573
REMARK UNBOUND:                 0.065
REMARK  Name = 
REMARK  10 active torsions:
REMARK  status: ('A' for Active; 'I' for Inactive)
REMARK    1  A    between atoms: C_1  and  O_2
REMARK    2  A    between atoms: O_2  and  C_3
REMARK    3  A    between atoms: C_4  and  N_5
REMARK    4  A    between atoms: N_5  and  C_6
REMARK    5  A    between atoms: C_7  and  O_9
REMARK    6  A    between atoms: O_9  and  C_10
REMARK    7  A    between atoms: C_10  and  C_11
REMARK    8  A    between atoms: C_10  and  C_12
REMARK    9  A    between atoms: C_10  and  C_13
REMARK   10  A    between atoms: C_17  and  C_18
REMARK                            x       y       z     vdW  Elec       q    Type
REMARK                         _______ _______ _______ _____ _____    ______ ____
ROOT
ATOM      1  C   UNL     1     -10.843   0.387  20.997  0.00  0.00    +0.000 C 
ATOM      2  C   UNL     1      -9.376  -0.167  21.078  0.00  0.00    +0.000 C 
ATOM      3  C   UNL     1      -8.838  -0.743  19.756  0.00  0.00    +0.000 C 
ATOM      4  C   UNL     1      -9.687  -0.387  18.569  0.00  0.00    +0.000 C 
ATOM      5  O   UNL     1      -9.913   1.036  18.771  0.00  0.00    +0.000 OA
ATOM      6  C   UNL     1     -10.978   1.326  19.738  0.00  0.00    +0.000 C 
ATOM      7  N   UNL     1     -12.250   1.263  18.953  0.00  0.00    +0.000 N 
ATOM      8  C   UNL     1     -13.122   2.367  18.741  0.00  0.00    +0.000 A 
ATOM      9  C   UNL     1     -14.004   2.974  19.640  0.00  0.00    +0.000 A 
ATOM     10  C   UNL     1     -14.695   4.110  19.216  0.00  0.00    +0.000 A 
ATOM     11  C   UNL     1     -14.461   4.666  17.962  0.00  0.00    +0.000 A 
ATOM     12  C   UNL     1     -13.575   4.070  17.048  0.00  0.00    +0.000 A 
ATOM     13  C   UNL     1     -12.954   2.855  17.382  0.00  0.00    +0.000 A 
ATOM     14  C   UNL     1     -12.279   1.842  16.632  0.00  0.00    +0.000 A 
ATOM     15  C   UNL     1     -11.429   1.939  15.517  0.00  0.00    +0.000 A 
ATOM     16  C   UNL     1     -10.844   0.708  15.090  0.00  0.00    +0.000 A 
ATOM     17  C   UNL     1     -11.197  -0.386  15.907  0.00  0.00    +0.000 A 
ATOM     18  C   UNL     1     -10.373  -1.591  15.989  0.00  0.00    +0.000 A 
ATOM     19  C   UNL     1     -10.050  -2.502  14.969  0.00  0.00    +0.000 A 
ATOM     20  C   UNL     1     -11.137  -3.269  14.571  0.00  0.00    +0.000 A 
ATOM     21  C   UNL     1     -12.190  -3.471  15.465  0.00  0.00    +0.000 A 
ATOM     22  C   UNL     1     -12.085  -3.055  16.819  0.00  0.00    +0.000 A 
ATOM     23  C   UNL     1     -10.998  -2.178  17.161  0.00  0.00    +0.000 A 
ATOM     24  N   UNL     1     -10.940  -1.090  18.145  0.00  0.00    +0.000 N 
ATOM     25  C   UNL     1     -11.600  -0.289  17.268  0.00  0.00    +0.000 A 
ATOM     26  C   UNL     1     -12.176   0.877  17.649  0.00  0.00    +0.000 A 
ATOM     27  C   UNL     1      -9.591   0.911  14.426  0.00  0.00    +0.000 C 
ATOM     28  O   UNL     1      -8.728   0.180  13.949  0.00  0.00    +0.000 OA
ATOM     29  N   UNL     1      -9.335   2.271  14.688  0.00  0.00    +0.000 N 
ATOM     30  C   UNL     1     -10.489   3.036  15.183  0.00  0.00    +0.000 C 
ATOM     31  H   UNL     1     -11.029   0.966  21.913  0.00  0.00    +0.000 HD
ATOM     32  H   UNL     1      -8.762   0.725  21.285  0.00  0.00    +0.000 HD
ATOM     33  H   UNL     1      -8.547  -1.792  19.737  0.00  0.00    +0.000 HD
ATOM     34  H   UNL     1      -7.884  -0.207  19.605  0.00  0.00    +0.000 HD
ATOM     35  H   UNL     1      -9.012  -0.445  17.711  0.00  0.00    +0.000 HD
ATOM     36  H   UNL     1     -14.180   2.559  20.626  0.00  0.00    +0.000 HD
ATOM     37  H   UNL     1     -15.433   4.562  19.880  0.00  0.00    +0.000 HD
ATOM     38  H   UNL     1     -15.014   5.557  17.667  0.00  0.00    +0.000 HD
ATOM     39  H   UNL     1     -13.489   4.480  16.045  0.00  0.00    +0.000 HD
ATOM     40  H   UNL     1      -9.173  -2.370  14.349  0.00  0.00    +0.000 HD
ATOM     41  H   UNL     1     -11.164  -3.671  13.562  0.00  0.00    +0.000 HD
ATOM     42  H   UNL     1     -13.111  -3.919  15.093  0.00  0.00    +0.000 HD
ATOM     43  H   UNL     1     -12.946  -3.160  17.476  0.00  0.00    +0.000 HD
ATOM     44  H   UNL     1      -8.477   2.327  15.230  0.00  0.00    +0.000 HD
ATOM     45  H   UNL     1     -10.848   3.658  14.372  0.00  0.00    +0.000 HD
ATOM     46  H   UNL     1     -10.180   3.602  16.064  0.00  0.00    +0.000 HD
ENDROOT
BRANCH   6  47
ATOM     47  C   UNL     1     -10.649   2.781  20.148  0.00  0.00    +0.000 C 
ATOM     48  H   UNL     1     -10.426   3.394  19.268  0.00  0.00    +0.000 HD
ATOM     49  H   UNL     1      -9.786   2.843  20.816  0.00  0.00    +0.000 HD
ATOM     50  H   UNL     1     -11.507   3.263  20.636  0.00  0.00    +0.000 HD
ENDBRANCH   6  47
BRANCH   2  51
ATOM     51  N   UNL     1      -9.120  -1.103  22.188  0.00  0.00    +0.000 N 
ATOM     52  C   UNL     1      -9.085  -0.630  23.494  0.00  0.00    +0.000 C 
ATOM     53  O   UNL     1      -9.508   0.458  23.838  0.00  0.00    +0.000 OA
BRANCH  51  54
ATOM     54  C   UNL     1      -8.562  -2.414  21.875  0.00  0.00    +0.000 C 
ATOM     55  H   UNL     1      -8.613  -2.609  20.803  0.00  0.00    +0.000 HD
ATOM     56  H   UNL     1      -9.106  -3.200  22.403  0.00  0.00    +0.000 HD
ATOM     57  H   UNL     1      -7.519  -2.426  22.210  0.00  0.00    +0.000 HD
ENDBRANCH  51  54
BRANCH  52  58
ATOM     58  O   UNL     1      -8.456  -1.515  24.311  0.00  0.00    +0.000 OA
BRANCH  58  59
ATOM     59  C   UNL     1      -9.160  -2.299  25.302  0.00  0.00    +0.000 C 
BRANCH  59  60
ATOM     60  C   UNL     1     -10.619  -2.495  24.892  0.00  0.00    +0.000 C 
ATOM     61  H   UNL     1     -10.688  -3.123  23.997  0.00  0.00    +0.000 HD
ATOM     62  H   UNL     1     -11.102  -1.546  24.640  0.00  0.00    +0.000 HD
ATOM     63  H   UNL     1     -11.198  -2.969  25.692  0.00  0.00    +0.000 HD
ENDBRANCH  59  60
BRANCH  59  64
ATOM     64  C   UNL     1      -8.452  -3.662  25.284  0.00  0.00    +0.000 C 
ATOM     65  H   UNL     1      -8.715  -4.251  26.171  0.00  0.00    +0.000 HD
ATOM     66  H   UNL     1      -7.363  -3.539  25.313  0.00  0.00    +0.000 HD
ATOM     67  H   UNL     1      -8.710  -4.244  24.393  0.00  0.00    +0.000 HD
ENDBRANCH  59  64
BRANCH  59  68
ATOM     68  C   UNL     1      -9.025  -1.697  26.704  0.00  0.00    +0.000 C 
ATOM     69  H   UNL     1      -9.995  -1.337  27.070  0.00  0.00    +0.000 HD
ATOM     70  H   UNL     1      -8.320  -0.860  26.712  0.00  0.00    +0.000 HD
ATOM     71  H   UNL     1      -8.664  -2.432  27.431  0.00  0.00    +0.000 HD
ENDBRANCH  59  68
ENDBRANCH  58  59
ENDBRANCH  52  58
ENDBRANCH   2  51
BRANCH   1  72
ATOM     72  O   UNL     1     -11.741  -0.736  21.006  0.00  0.00    +0.000 OA
BRANCH  72  73
ATOM     73  C   UNL     1     -12.733  -0.660  22.025  0.00  0.00    +0.000 C 
ATOM     74  H   UNL     1     -12.637  -1.533  22.673  0.00  0.00    +0.000 HD
ATOM     75  H   UNL     1     -13.721  -0.692  21.563  0.00  0.00    +0.000 HD
ATOM     76  H   UNL     1     -12.641   0.241  22.642  0.00  0.00    +0.000 HD
ENDBRANCH  72  73
ENDBRANCH   1  72
TORSDOF 10
ENDMDL
MODEL 7
REMARK VINA RESULT:    -6.399      4.651     10.687
REMARK INTER + INTRA:          -8.953
REMARK INTER:                  -9.085
REMARK INTRA:                   0.132
REMARK UNBOUND:                 0.065
REMARK  Name = 
REMARK  10 active torsions:
REMARK  status: ('A' for Active; 'I' for Inactive)
REMARK    1  A    between atoms: C_1  and  O_2
REMARK    2  A    between atoms: O_2  and  C_3
REMARK    3  A    between atoms: C_4  and  N_5
REMARK    4  A    between atoms: N_5  and  C_6
REMARK    5  A    between atoms: C_7  and  O_9
REMARK    6  A    between atoms: O_9  and  C_10
REMARK    7  A    between atoms: C_10  and  C_11
REMARK    8  A    between atoms: C_10  and  C_12
REMARK    9  A    between atoms: C_10  and  C_13
REMARK   10  A    between atoms: C_17  and  C_18
REMARK                            x       y       z     vdW  Elec       q    Type
REMARK                         _______ _______ _______ _____ _____    ______ ____
ROOT
ATOM      1  C   UNL     1     -11.209   1.516  21.940  0.00  0.00    +0.000 C 
ATOM      2  C   UNL     1     -12.637   1.960  21.462  0.00  0.00    +0.000 C 
ATOM      3  C   UNL     1     -12.946   1.634  19.989  0.00  0.00    +0.000 C 
ATOM      4  C   UNL     1     -11.960   0.681  19.377  0.00  0.00    +0.000 C 
ATOM      5  O   UNL     1     -11.849  -0.345  20.402  0.00  0.00    +0.000 OA
ATOM      6  C   UNL     1     -10.951   0.024  21.502  0.00  0.00    +0.000 C 
ATOM      7  N   UNL     1      -9.579  -0.339  21.029  0.00  0.00    +0.000 N 
ATOM      8  C   UNL     1      -8.753  -1.326  21.634  0.00  0.00    +0.000 A 
ATOM      9  C   UNL     1      -8.044  -1.260  22.838  0.00  0.00    +0.000 A 
ATOM     10  C   UNL     1      -7.368  -2.404  23.266  0.00  0.00    +0.000 A 
ATOM     11  C   UNL     1      -7.454  -3.596  22.553  0.00  0.00    +0.000 A 
ATOM     12  C   UNL     1      -8.164  -3.679  21.343  0.00  0.00    +0.000 A 
ATOM     13  C   UNL     1      -8.754  -2.522  20.809  0.00  0.00    +0.000 A 
ATOM     14  C   UNL     1      -9.254  -2.165  19.518  0.00  0.00    +0.000 A 
ATOM     15  C   UNL     1      -9.941  -2.927  18.557  0.00  0.00    +0.000 A 
ATOM     16  C   UNL     1     -10.385  -2.200  17.411  0.00  0.00    +0.000 A 
ATOM     17  C   UNL     1     -10.088  -0.823  17.477  0.00  0.00    +0.000 A 
ATOM     18  C   UNL     1     -10.843   0.172  16.717  0.00  0.00    +0.000 A 
ATOM     19  C   UNL     1     -10.963   0.302  15.323  0.00  0.00    +0.000 A 
ATOM     20  C   UNL     1      -9.788   0.730  14.721  0.00  0.00    +0.000 A 
ATOM     21  C   UNL     1      -8.862   1.454  15.475  0.00  0.00    +0.000 A 
ATOM     22  C   UNL     1      -9.184   1.906  16.783  0.00  0.00    +0.000 A 
ATOM     23  C   UNL     1     -10.358   1.355  17.404  0.00  0.00    +0.000 A 
ATOM     24  N   UNL     1     -10.620   1.048  18.816  0.00  0.00    +0.000 N 
ATOM     25  C   UNL     1      -9.890  -0.090  18.681  0.00  0.00    +0.000 A 
ATOM     26  C   UNL     1      -9.443  -0.792  19.752  0.00  0.00    +0.000 A 
ATOM     27  C   UNL     1     -11.541  -2.798  16.811  0.00  0.00    +0.000 C 
ATOM     28  O   UNL     1     -12.282  -2.515  15.875  0.00  0.00    +0.000 OA
ATOM     29  N   UNL     1     -11.911  -3.756  17.775  0.00  0.00    +0.000 N 
ATOM     30  C   UNL     1     -10.887  -4.044  18.789  0.00  0.00    +0.000 C 
ATOM     31  H   UNL     1     -11.189   1.589  23.036  0.00  0.00    +0.000 HD
ATOM     32  H   UNL     1     -13.326   1.336  22.055  0.00  0.00    +0.000 HD
ATOM     33  H   UNL     1     -13.169   2.462  19.319  0.00  0.00    +0.000 HD
ATOM     34  H   UNL     1     -13.899   1.076  20.038  0.00  0.00    +0.000 HD
ATOM     35  H   UNL     1     -12.501   0.202  18.556  0.00  0.00    +0.000 HD
ATOM     36  H   UNL     1      -7.987  -0.341  23.410  0.00  0.00    +0.000 HD
ATOM     37  H   UNL     1      -6.761  -2.355  24.169  0.00  0.00    +0.000 HD
ATOM     38  H   UNL     1      -6.918  -4.470  22.920  0.00  0.00    +0.000 HD
ATOM     39  H   UNL     1      -8.130  -4.602  20.769  0.00  0.00    +0.000 HD
ATOM     40  H   UNL     1     -11.750  -0.199  14.774  0.00  0.00    +0.000 HD
ATOM     41  H   UNL     1      -9.594   0.466  13.684  0.00  0.00    +0.000 HD
ATOM     42  H   UNL     1      -7.873   1.633  15.054  0.00  0.00    +0.000 HD
ATOM     43  H   UNL     1      -8.421   2.405  17.375  0.00  0.00    +0.000 HD
ATOM     44  H   UNL     1     -12.840  -3.515  18.111  0.00  0.00    +0.000 HD
ATOM     45  H   UNL     1     -10.453  -5.010  18.558  0.00  0.00    +0.000 HD
ATOM     46  H   UNL     1     -11.350  -3.998  19.776  0.00  0.00    +0.000 HD
ENDROOT
BRANCH   6  47
ATOM     47  C   UNL     1     -11.420  -0.927  22.629  0.00  0.00    +0.000 C 
ATOM     48  H   UNL     1     -12.409  -0.633  23.001  0.00  0.00    +0.000 HD
ATOM     49  H   UNL     1     -10.738  -0.933  23.483  0.00  0.00    +0.000 HD
ATOM     50  H   UNL     1     -11.535  -1.956  22.263  0.00  0.00    +0.000 HD
ENDBRANCH   6  47
BRANCH   2  51
ATOM     51  N   UNL     1     -12.993   3.359  21.764  0.00  0.00    +0.000 N 
ATOM     52  C   UNL     1     -13.092   3.774  23.085  0.00  0.00    +0.000 C 
ATOM     53  O   UNL     1     -12.654   3.148  24.033  0.00  0.00    +0.000 OA
BRANCH  51  54
ATOM     54  C   UNL     1     -13.574   4.171  20.701  0.00  0.00    +0.000 C 
ATOM     55  H   UNL     1     -14.310   3.597  20.135  0.00  0.00    +0.000 HD
ATOM     56  H   UNL     1     -12.800   4.523  20.017  0.00  0.00    +0.000 HD
ATOM     57  H   UNL     1     -14.053   5.041  21.165  0.00  0.00    +0.000 HD
ENDBRANCH  51  54
BRANCH  52  58
ATOM     58  O   UNL     1     -13.801   4.930  23.176  0.00  0.00    +0.000 OA
BRANCH  58  59
ATOM     59  C   UNL     1     -14.029   5.609  24.433  0.00  0.00    +0.000 C 
BRANCH  59  60
ATOM     60  C   UNL     1     -12.837   6.499  24.786  0.00  0.00    +0.000 C 
ATOM     61  H   UNL     1     -13.138   7.552  24.818  0.00  0.00    +0.000 HD
ATOM     62  H   UNL     1     -12.042   6.428  24.038  0.00  0.00    +0.000 HD
ATOM     63  H   UNL     1     -12.413   6.231  25.759  0.00  0.00    +0.000 HD
ENDBRANCH  59  60
BRANCH  59  64
ATOM     64  C   UNL     1     -15.253   6.499  24.170  0.00  0.00    +0.000 C 
ATOM     65  H   UNL     1     -15.958   6.002  23.492  0.00  0.00    +0.000 HD
ATOM     66  H   UNL     1     -14.960   7.431  23.673  0.00  0.00    +0.000 HD
ATOM     67  H   UNL     1     -15.781   6.750  25.095  0.00  0.00    +0.000 HD
ENDBRANCH  59  64
BRANCH  59  68
ATOM     68  C   UNL     1     -14.373   4.625  25.556  0.00  0.00    +0.000 C 
ATOM     69  H   UNL     1     -15.250   4.022  25.293  0.00  0.00    +0.000 HD
ATOM     70  H   UNL     1     -14.581   5.149  26.495  0.00  0.00    +0.000 HD
ATOM     71  H   UNL     1     -13.553   3.925  25.750  0.00  0.00    +0.000 HD
ENDBRANCH  59  68
ENDBRANCH  58  59
ENDBRANCH  52  58
ENDBRANCH   2  51
BRANCH   1  72
ATOM     72  O   UNL     1     -10.256   2.463  21.426  0.00  0.00    +0.000 OA
BRANCH  72  73
ATOM     73  C   UNL     1      -9.553   3.168  22.445  0.00  0.00    +0.000 C 
ATOM     74  H   UNL     1      -9.531   2.550  23.345  0.00  0.00    +0.000 HD
ATOM     75  H   UNL     1     -10.094   4.086  22.681  0.00  0.00    +0.000 HD
ATOM     76  H   UNL     1      -8.521   3.407  22.163  0.00  0.00    +0.000 HD
ENDBRANCH  72  73
ENDBRANCH   1  72
TORSDOF 10
ENDMDL
MODEL 8
REMARK VINA RESULT:    -6.283      5.077      9.435
REMARK INTER + INTRA:          -8.790
REMARK INTER:                  -8.124
REMARK INTRA:                  -0.665
REMARK UNBOUND:                 0.065
REMARK  Name = 
REMARK  10 active torsions:
REMARK  status: ('A' for Active; 'I' for Inactive)
REMARK    1  A    between atoms: C_1  and  O_2
REMARK    2  A    between atoms: O_2  and  C_3
REMARK    3  A    between atoms: C_4  and  N_5
REMARK    4  A    between atoms: N_5  and  C_6
REMARK    5  A    between atoms: C_7  and  O_9
REMARK    6  A    between atoms: O_9  and  C_10
REMARK    7  A    between atoms: C_10  and  C_11
REMARK    8  A    between atoms: C_10  and  C_12
REMARK    9  A    between atoms: C_10  and  C_13
REMARK   10  A    between atoms: C_17  and  C_18
REMARK                            x       y       z     vdW  Elec       q    Type
REMARK                         _______ _______ _______ _____ _____    ______ ____
ROOT
ATOM      1  C   UNL     1      -9.411   1.857  14.926  0.00  0.00    +0.000 C 
ATOM      2  C   UNL     1      -7.924   1.469  15.249  0.00  0.00    +0.000 C 
ATOM      3  C   UNL     1      -7.739   0.031  15.766  0.00  0.00    +0.000 C 
ATOM      4  C   UNL     1      -8.955  -0.828  15.569  0.00  0.00    +0.000 C 
ATOM      5  O   UNL     1      -9.320  -0.529  14.192  0.00  0.00    +0.000 OA
ATOM      6  C   UNL     1     -10.067   0.726  14.047  0.00  0.00    +0.000 C 
ATOM      7  N   UNL     1     -11.494   0.368  14.318  0.00  0.00    +0.000 N 
ATOM      8  C   UNL     1     -12.545   0.463  13.364  0.00  0.00    +0.000 A 
ATOM      9  C   UNL     1     -13.189   1.605  12.879  0.00  0.00    +0.000 A 
ATOM     10  C   UNL     1     -14.141   1.444  11.870  0.00  0.00    +0.000 A 
ATOM     11  C   UNL     1     -14.390   0.193  11.313  0.00  0.00    +0.000 A 
ATOM     12  C   UNL     1     -13.749  -0.964  11.788  0.00  0.00    +0.000 A 
ATOM     13  C   UNL     1     -12.879  -0.868  12.887  0.00  0.00    +0.000 A 
ATOM     14  C   UNL     1     -12.323  -1.816  13.802  0.00  0.00    +0.000 A 
ATOM     15  C   UNL     1     -11.882  -3.135  13.601  0.00  0.00    +0.000 A 
ATOM     16  C   UNL     1     -11.279  -3.753  14.738  0.00  0.00    +0.000 A 
ATOM     17  C   UNL     1     -11.194  -2.896  15.855  0.00  0.00    +0.000 A 
ATOM     18  C   UNL     1     -10.212  -3.103  16.920  0.00  0.00    +0.000 A 
ATOM     19  C   UNL     1     -10.085  -4.196  17.793  0.00  0.00    +0.000 A 
ATOM     20  C   UNL     1     -11.113  -4.260  18.725  0.00  0.00    +0.000 A 
ATOM     21  C   UNL     1     -11.797  -3.091  19.064  0.00  0.00    +0.000 A 
ATOM     22  C   UNL     1     -11.344  -1.825  18.607  0.00  0.00    +0.000 A 
ATOM     23  C   UNL     1     -10.350  -1.811  17.568  0.00  0.00    +0.000 A 
ATOM     24  N   UNL     1     -10.156  -0.864  16.463  0.00  0.00    +0.000 N 
ATOM     25  C   UNL     1     -11.168  -1.475  15.791  0.00  0.00    +0.000 A 
ATOM     26  C   UNL     1     -11.768  -0.905  14.718  0.00  0.00    +0.000 A 
ATOM     27  C   UNL     1     -10.336  -4.765  14.362  0.00  0.00    +0.000 C 
ATOM     28  O   UNL     1      -9.562  -5.502  14.965  0.00  0.00    +0.000 OA
ATOM     29  N   UNL     1     -10.221  -4.559  12.974  0.00  0.00    +0.000 N 
ATOM     30  C   UNL     1     -11.267  -3.713  12.383  0.00  0.00    +0.000 C 
ATOM     31  H   UNL     1      -9.392   2.800  14.362  0.00  0.00    +0.000 HD
ATOM     32  H   UNL     1      -7.419   1.500  14.270  0.00  0.00    +0.000 HD
ATOM     33  H   UNL     1      -7.314  -0.104  16.759  0.00  0.00    +0.000 HD
ATOM     34  H   UNL     1      -6.970  -0.393  15.095  0.00  0.00    +0.000 HD
ATOM     35  H   UNL     1      -8.577  -1.853  15.543  0.00  0.00    +0.000 HD
ATOM     36  H   UNL     1     -12.988   2.586  13.293  0.00  0.00    +0.000 HD
ATOM     37  H   UNL     1     -14.697   2.314  11.521  0.00  0.00    +0.000 HD
ATOM     38  H   UNL     1     -15.135   0.106  10.523  0.00  0.00    +0.000 HD
ATOM     39  H   UNL     1     -14.039  -1.934  11.391  0.00  0.00    +0.000 HD
ATOM     40  H   UNL     1      -9.472  -5.051  17.544  0.00  0.00    +0.000 HD
ATOM     41  H   UNL     1     -11.388  -5.223  19.148  0.00  0.00    +0.000 HD
ATOM     42  H   UNL     1     -12.709  -3.174  19.655  0.00  0.00    +0.000 HD
ATOM     43  H   UNL     1     -11.935  -0.939  18.827  0.00  0.00    +0.000 HD
ATOM     44  H   UNL     1      -9.256  -4.306  12.777  0.00  0.00    +0.000 HD
ATOM     45  H   UNL     1     -11.948  -4.358  11.840  0.00  0.00    +0.000 HD
ATOM     46  H   UNL     1     -10.792  -2.955  11.757  0.00  0.00    +0.000 HD
ENDROOT
BRANCH   6  47
ATOM     47  C   UNL     1      -9.852   1.053  12.550  0.00  0.00    +0.000 C 
ATOM     48  H   UNL     1      -8.785   1.172  12.326  0.00  0.00    +0.000 HD
ATOM     49  H   UNL     1     -10.354   1.974  12.246  0.00  0.00    +0.000 HD
ATOM     50  H   UNL     1     -10.200   0.234  11.907  0.00  0.00    +0.000 HD
ENDBRANCH   6  47
BRANCH   2  51
ATOM     51  N   UNL     1      -7.201   2.422  16.112  0.00  0.00    +0.000 N 
ATOM     52  C   UNL     1      -6.283   3.299  15.549  0.00  0.00    +0.000 C 
ATOM     53  O   UNL     1      -6.206   3.536  14.358  0.00  0.00    +0.000 OA
BRANCH  51  54
ATOM     54  C   UNL     1      -7.194   2.187  17.551  0.00  0.00    +0.000 C 
ATOM     55  H   UNL     1      -7.760   2.961  18.071  0.00  0.00    +0.000 HD
ATOM     56  H   UNL     1      -6.172   2.181  17.935  0.00  0.00    +0.000 HD
ATOM     57  H   UNL     1      -7.643   1.205  17.735  0.00  0.00    +0.000 HD
ENDBRANCH  51  54
BRANCH  52  58
ATOM     58  O   UNL     1      -5.446   3.797  16.498  0.00  0.00    +0.000 OA
BRANCH  58  59
ATOM     59  C   UNL     1      -4.037   3.475  16.542  0.00  0.00    +0.000 C 
BRANCH  59  60
ATOM     60  C   UNL     1      -3.224   4.524  15.784  0.00  0.00    +0.000 C 
ATOM     61  H   UNL     1      -2.836   4.110  14.847  0.00  0.00    +0.000 HD
ATOM     62  H   UNL     1      -2.353   4.857  16.358  0.00  0.00    +0.000 HD
ATOM     63  H   UNL     1      -3.831   5.405  15.547  0.00  0.00    +0.000 HD
ENDBRANCH  59  60
BRANCH  59  64
ATOM     64  C   UNL     1      -3.675   3.548  18.033  0.00  0.00    +0.000 C 
ATOM     65  H   UNL     1      -3.727   4.581  18.397  0.00  0.00    +0.000 HD
ATOM     66  H   UNL     1      -2.644   3.217  18.203  0.00  0.00    +0.000 HD
ATOM     67  H   UNL     1      -4.341   2.931  18.644  0.00  0.00    +0.000 HD
ENDBRANCH  59  64
BRANCH  59  68
ATOM     68  C   UNL     1      -3.763   2.053  16.041  0.00  0.00    +0.000 C 
ATOM     69  H   UNL     1      -3.328   1.435  16.836  0.00  0.00    +0.000 HD
ATOM     70  H   UNL     1      -3.074   2.057  15.190  0.00  0.00    +0.000 HD
ATOM     71  H   UNL     1      -4.680   1.553  15.714  0.00  0.00    +0.000 HD
ENDBRANCH  59  68
ENDBRANCH  58  59
ENDBRANCH  52  58
ENDBRANCH   2  51
BRANCH   1  72
ATOM     72  O   UNL     1     -10.083   2.112  16.172  0.00  0.00    +0.000 OA
BRANCH  72  73
ATOM     73  C   UNL     1     -10.736   3.377  16.214  0.00  0.00    +0.000 C 
ATOM     74  H   UNL     1     -11.807   3.223  16.062  0.00  0.00    +0.000 HD
ATOM     75  H   UNL     1     -10.367   3.996  15.394  0.00  0.00    +0.000 HD
ATOM     76  H   UNL     1     -10.594   3.899  17.167  0.00  0.00    +0.000 HD
ENDBRANCH  72  73
ENDBRANCH   1  72
TORSDOF 10
ENDMDL
MODEL 9
REMARK VINA RESULT:    -6.283      4.504      8.510
REMARK INTER + INTRA:          -8.789
REMARK INTER:                  -8.140
REMARK INTRA:                  -0.649
REMARK UNBOUND:                 0.065
REMARK  Name = 
REMARK  10 active torsions:
REMARK  status: ('A' for Active; 'I' for Inactive)
REMARK    1  A    between atoms: C_1  and  O_2
REMARK    2  A    between atoms: O_2  and  C_3
REMARK    3  A    between atoms: C_4  and  N_5
REMARK    4  A    between atoms: N_5  and  C_6
REMARK    5  A    between atoms: C_7  and  O_9
REMARK    6  A    between atoms: O_9  and  C_10
REMARK    7  A    between atoms: C_10  and  C_11
REMARK    8  A    between atoms: C_10  and  C_12
REMARK    9  A    between atoms: C_10  and  C_13
REMARK   10  A    between atoms: C_17  and  C_18
REMARK                            x       y       z     vdW  Elec       q    Type
REMARK                         _______ _______ _______ _____ _____    ______ ____
ROOT
ATOM      1  C   UNL     1     -10.680  -1.992  15.681  0.00  0.00    +0.000 C 
ATOM      2  C   UNL     1     -10.016  -3.386  15.396  0.00  0.00    +0.000 C 
ATOM      3  C   UNL     1      -9.621  -3.615  13.926  0.00  0.00    +0.000 C 
ATOM      4  C   UNL     1      -9.652  -2.359  13.104  0.00  0.00    +0.000 C 
ATOM      5  O   UNL     1      -8.958  -1.413  13.965  0.00  0.00    +0.000 OA
ATOM      6  C   UNL     1      -9.810  -0.855  15.022  0.00  0.00    +0.000 C 
ATOM      7  N   UNL     1     -10.526   0.293  14.385  0.00  0.00    +0.000 N 
ATOM      8  C   UNL     1     -10.376   1.654  14.774  0.00  0.00    +0.000 A 
ATOM      9  C   UNL     1     -10.874   2.303  15.908  0.00  0.00    +0.000 A 
ATOM     10  C   UNL     1     -10.514   3.635  16.113  0.00  0.00    +0.000 A 
ATOM     11  C   UNL     1      -9.628   4.279  15.255  0.00  0.00    +0.000 A 
ATOM     12  C   UNL     1      -9.117   3.640  14.112  0.00  0.00    +0.000 A 
ATOM     13  C   UNL     1      -9.551   2.342  13.796  0.00  0.00    +0.000 A 
ATOM     14  C   UNL     1      -9.504   1.537  12.615  0.00  0.00    +0.000 A 
ATOM     15  C   UNL     1      -8.515   1.420  11.623  0.00  0.00    +0.000 A 
ATOM     16  C   UNL     1      -8.765   0.424  10.631  0.00  0.00    +0.000 A 
ATOM     17  C   UNL     1      -9.954  -0.300  10.859  0.00  0.00    +0.000 A 
ATOM     18  C   UNL     1     -10.166  -1.639  10.311  0.00  0.00    +0.000 A 
ATOM     19  C   UNL     1     -10.225  -2.035   8.965  0.00  0.00    +0.000 A 
ATOM     20  C   UNL     1     -11.374  -1.589   8.325  0.00  0.00    +0.000 A 
ATOM     21  C   UNL     1     -12.511  -1.310   9.086  0.00  0.00    +0.000 A 
ATOM     22  C   UNL     1     -12.561  -1.640  10.467  0.00  0.00    +0.000 A 
ATOM     23  C   UNL     1     -11.325  -1.997  11.109  0.00  0.00    +0.000 A 
ATOM     24  N   UNL     1     -10.871  -1.749  12.483  0.00  0.00    +0.000 N 
ATOM     25  C   UNL     1     -10.573  -0.470  12.129  0.00  0.00    +0.000 A 
ATOM     26  C   UNL     1     -10.344   0.498  13.050  0.00  0.00    +0.000 A 
ATOM     27  C   UNL     1      -7.552  -0.082  10.060  0.00  0.00    +0.000 C 
ATOM     28  O   UNL     1      -7.270  -0.951   9.241  0.00  0.00    +0.000 OA
ATOM     29  N   UNL     1      -6.574   0.466  10.912  0.00  0.00    +0.000 N 
ATOM     30  C   UNL     1      -7.047   1.551  11.783  0.00  0.00    +0.000 C 
ATOM     31  H   UNL     1     -10.706  -1.854  16.771  0.00  0.00    +0.000 HD
ATOM     32  H   UNL     1      -9.068  -3.353  15.957  0.00  0.00    +0.000 HD
ATOM     33  H   UNL     1     -10.082  -4.448  13.397  0.00  0.00    +0.000 HD
ATOM     34  H   UNL     1      -8.555  -3.902  13.982  0.00  0.00    +0.000 HD
ATOM     35  H   UNL     1      -8.962  -2.545  12.277  0.00  0.00    +0.000 HD
ATOM     36  H   UNL     1     -11.550   1.803  16.593  0.00  0.00    +0.000 HD
ATOM     37  H   UNL     1     -10.941   4.176  16.958  0.00  0.00    +0.000 HD
ATOM     38  H   UNL     1      -9.364   5.318  15.450  0.00  0.00    +0.000 HD
ATOM     39  H   UNL     1      -8.502   4.206  13.416  0.00  0.00    +0.000 HD
ATOM     40  H   UNL     1      -9.338  -2.337   8.424  0.00  0.00    +0.000 HD
ATOM     41  H   UNL     1     -11.359  -1.435   7.249  0.00  0.00    +0.000 HD
ATOM     42  H   UNL     1     -13.345  -0.797   8.608  0.00  0.00    +0.000 HD
ATOM     43  H   UNL     1     -13.430  -1.347  11.052  0.00  0.00    +0.000 HD
ATOM     44  H   UNL     1      -6.085  -0.306  11.359  0.00  0.00    +0.000 HD
ATOM     45  H   UNL     1      -6.668   2.485  11.384  0.00  0.00    +0.000 HD
ATOM     46  H   UNL     1      -6.720   1.347  12.805  0.00  0.00    +0.000 HD
ENDROOT
BRANCH   6  47
ATOM     47  C   UNL     1      -8.761  -0.356  16.045  0.00  0.00    +0.000 C 
ATOM     48  H   UNL     1      -7.942   0.168  15.541  0.00  0.00    +0.000 HD
ATOM     49  H   UNL     1      -8.320  -1.172  16.623  0.00  0.00    +0.000 HD
ATOM     50  H   UNL     1      -9.196   0.373  16.741  0.00  0.00    +0.000 HD
ENDBRANCH   6  47
BRANCH   2  51
ATOM     51  N   UNL     1     -10.756  -4.551  15.917  0.00  0.00    +0.000 N 
ATOM     52  C   UNL     1     -10.309  -5.193  17.064  0.00  0.00    +0.000 C 
ATOM     53  O   UNL     1      -9.498  -4.722  17.839  0.00  0.00    +0.000 OA
BRANCH  51  54
ATOM     54  C   UNL     1     -11.713  -5.214  15.038  0.00  0.00    +0.000 C 
ATOM     55  H   UNL     1     -12.257  -4.483  14.439  0.00  0.00    +0.000 HD
ATOM     56  H   UNL     1     -12.430  -5.797  15.619  0.00  0.00    +0.000 HD
ATOM     57  H   UNL     1     -11.155  -5.895  14.385  0.00  0.00    +0.000 HD
ENDBRANCH  51  54
BRANCH  52  58
ATOM     58  O   UNL     1     -10.846  -6.438  17.160  0.00  0.00    +0.000 OA
BRANCH  58  59
ATOM     59  C   UNL     1     -10.050  -7.642  17.057  0.00  0.00    +0.000 C 
BRANCH  59  60
ATOM     60  C   UNL     1      -9.626  -8.124  18.445  0.00  0.00    +0.000 C 
ATOM     61  H   UNL     1      -9.241  -7.291  19.042  0.00  0.00    +0.000 HD
ATOM     62  H   UNL     1      -8.821  -8.863  18.390  0.00  0.00    +0.000 HD
ATOM     63  H   UNL     1     -10.466  -8.576  18.983  0.00  0.00    +0.000 HD
ENDBRANCH  59  60
BRANCH  59  64
ATOM     64  C   UNL     1     -11.003  -8.678  16.441  0.00  0.00    +0.000 C 
ATOM     65  H   UNL     1     -11.183  -9.505  17.138  0.00  0.00    +0.000 HD
ATOM     66  H   UNL     1     -10.565  -9.127  15.542  0.00  0.00    +0.000 HD
ATOM     67  H   UNL     1     -11.967  -8.235  16.172  0.00  0.00    +0.000 HD
ENDBRANCH  59  64
BRANCH  59  68
ATOM     68  C   UNL     1      -8.856  -7.455  16.116  0.00  0.00    +0.000 C 
ATOM     69  H   UNL     1      -8.527  -6.409  16.105  0.00  0.00    +0.000 HD
ATOM     70  H   UNL     1      -9.106  -7.750  15.092  0.00  0.00    +0.000 HD
ATOM     71  H   UNL     1      -7.995  -8.056  16.426  0.00  0.00    +0.000 HD
ENDBRANCH  59  68
ENDBRANCH  58  59
ENDBRANCH  52  58
ENDBRANCH   2  51
BRANCH   1  72
ATOM     72  O   UNL     1     -12.041  -2.047  15.219  0.00  0.00    +0.000 OA
BRANCH  72  73
ATOM     73  C   UNL     1     -12.978  -1.525  16.157  0.00  0.00    +0.000 C 
ATOM     74  H   UNL     1     -12.582  -1.670  17.164  0.00  0.00    +0.000 HD
ATOM     75  H   UNL     1     -13.910  -2.087  16.078  0.00  0.00    +0.000 HD
ATOM     76  H   UNL     1     -13.175  -0.457  16.013  0.00  0.00    +0.000 HD
ENDBRANCH  72  73
ENDBRANCH   1  72
TORSDOF 10
ENDMDL
