MODEL 1
REMARK VINA RESULT:    -9.959      0.000      0.000
REMARK INTER + INTRA:         -14.222
REMARK INTER:                 -13.452
REMARK INTRA:                  -0.770
REMARK UNBOUND:                -0.770
REMARK  Name = 
REMARK  7 active torsions:
REMARK  status: ('A' for Active; 'I' for Inactive)
REMARK    1  A    between atoms: C_1  and  O_2
REMARK    2  A    between atoms: O_2  and  C_3
REMARK    3  A    between atoms: C_7  and  C_8
REMARK    4  A    between atoms: C_8  and  C_9
REMARK    5  A    between atoms: C_8  and  N_10
REMARK    6  A    between atoms: C_11  and  C_13
REMARK    7  A    between atoms: C_16  and  C_17
REMARK                            x       y       z     vdW  Elec       q    Type
REMARK                         _______ _______ _______ _____ _____    ______ ____
ROOT
ATOM      1  N   UNL     1      -7.929  -4.392  20.868  0.00  0.00    +0.000 N 
ATOM      2  C   UNL     1      -8.572  -4.538  19.654  0.00  0.00    +0.000 C 
ATOM      3  O   UNL     1      -9.019  -3.600  19.005  0.00  0.00    +0.000 OA
ATOM      4  H   UNL     1      -7.422  -5.168  21.269  0.00  0.00    +0.000 HD
ENDROOT
BRANCH   2   5
ATOM      5  C   UNL     1      -8.697  -5.921  19.132  0.00  0.00    +0.000 A 
ATOM      6  C   UNL     1      -9.055  -6.210  17.819  0.00  0.00    +0.000 A 
ATOM      7  C   UNL     1      -9.115  -7.538  17.398  0.00  0.00    +0.000 A 
ATOM      8  C   UNL     1      -8.812  -8.568  18.294  0.00  0.00    +0.000 A 
ATOM      9  N   UNL     1      -8.449  -8.297  19.574  0.00  0.00    +0.000 NA
ATOM     10  C   UNL     1      -8.395  -6.992  19.962  0.00  0.00    +0.000 A 
ATOM     11  H   UNL     1      -9.249  -5.422  17.096  0.00  0.00    +0.000 HD
ATOM     12  H   UNL     1      -9.364  -7.751  16.363  0.00  0.00    +0.000 HD
ATOM     13  H   UNL     1      -8.089  -6.838  20.995  0.00  0.00    +0.000 HD
BRANCH   8  14
ATOM     14  C   UNL     1      -8.812  -9.992  17.901  0.00  0.00    +0.000 A 
ATOM     15  C   UNL     1      -8.458 -10.997  18.815  0.00  0.00    +0.000 A 
ATOM     16  C   UNL     1      -8.415 -12.319  18.398  0.00  0.00    +0.000 A 
ATOM     17  N   UNL     1      -8.701 -12.720  17.145  0.00  0.00    +0.000 NA
ATOM     18  C   UNL     1      -9.063 -11.754  16.281  0.00  0.00    +0.000 A 
ATOM     19  F   UNL     1      -9.356 -12.122  15.026  0.00  0.00    +0.000 F 
ATOM     20  C   UNL     1      -9.137 -10.409  16.603  0.00  0.00    +0.000 A 
ATOM     21  H   UNL     1      -8.204 -10.750  19.843  0.00  0.00    +0.000 HD
ATOM     22  H   UNL     1      -8.131 -13.111  19.085  0.00  0.00    +0.000 HD
ATOM     23  H   UNL     1      -9.453  -9.717  15.832  0.00  0.00    +0.000 HD
ENDBRANCH   8  14
ENDBRANCH   2   5
BRANCH   1  24
ATOM     24  C   UNL     1      -7.725  -3.084  21.472  0.00  0.00    +0.000 C 
ATOM     25  H   UNL     1      -7.903  -2.336  20.687  0.00  0.00    +0.000 HD
BRANCH  24  30
ATOM     26  C   UNL     1      -9.253  -2.776  24.989  0.00  0.00    +0.000 A 
ATOM     27  C   UNL     1     -10.535  -2.326  24.684  0.00  0.00    +0.000 A 
ATOM     28  C   UNL     1     -10.916  -2.155  23.351  0.00  0.00    +0.000 A 
ATOM     29  C   UNL     1     -10.016  -2.423  22.319  0.00  0.00    +0.000 A 
ATOM     30  C   UNL     1      -8.715  -2.859  22.603  0.00  0.00    +0.000 A 
ATOM     31  C   UNL     1      -8.356  -3.049  23.949  0.00  0.00    +0.000 A 
ATOM     32  H   UNL     1     -11.261  -2.095  25.455  0.00  0.00    +0.000 HD
ATOM     33  H   UNL     1     -11.918  -1.800  23.116  0.00  0.00    +0.000 HD
ATOM     34  H   UNL     1     -10.335  -2.274  21.288  0.00  0.00    +0.000 HD
ATOM     35  H   UNL     1      -7.356  -3.393  24.207  0.00  0.00    +0.000 HD
BRANCH  26  36
ATOM     36  O   UNL     1      -8.747  -2.976  26.245  0.00  0.00    +0.000 OA
BRANCH  36  37
ATOM     37  C   UNL     1      -8.836  -1.887  27.156  0.00  0.00    +0.000 C 
ATOM     38  H   UNL     1      -8.894  -2.301  28.167  0.00  0.00    +0.000 HD
ATOM     39  H   UNL     1      -9.747  -1.305  26.977  0.00  0.00    +0.000 HD
ATOM     40  H   UNL     1      -7.946  -1.250  27.112  0.00  0.00    +0.000 HD
ENDBRANCH  36  37
ENDBRANCH  26  36
ENDBRANCH  24  30
BRANCH  24  41
ATOM     41  C   UNL     1      -6.281  -2.906  21.949  0.00  0.00    +0.000 C 
ATOM     42  H   UNL     1      -6.149  -1.978  22.516  0.00  0.00    +0.000 HD
ATOM     43  H   UNL     1      -5.590  -2.883  21.100  0.00  0.00    +0.000 HD
ATOM     44  H   UNL     1      -5.980  -3.729  22.607  0.00  0.00    +0.000 HD
ENDBRANCH  24  41
ENDBRANCH   1  24
TORSDOF 7
ENDMDL
MODEL 2
REMARK VINA RESULT:    -9.949      1.102      1.788
REMARK INTER + INTRA:         -14.208
REMARK INTER:                 -13.377
REMARK INTRA:                  -0.831
REMARK UNBOUND:                -0.770
REMARK  Name = 
REMARK  7 active torsions:
REMARK  status: ('A' for Active; 'I' for Inactive)
REMARK    1  A    between atoms: C_1  and  O_2
REMARK    2  A    between atoms: O_2  and  C_3
REMARK    3  A    between atoms: C_7  and  C_8
REMARK    4  A    between atoms: C_8  and  C_9
REMARK    5  A    between atoms: C_8  and  N_10
REMARK    6  A    between atoms: C_11  and  C_13
REMARK    7  A    between atoms: C_16  and  C_17
REMARK                            x       y       z     vdW  Elec       q    Type
REMARK                         _______ _______ _______ _____ _____    ______ ____
ROOT
ATOM      1  N   UNL     1      -7.448  -4.697  20.789  0.00  0.00    +0.000 N 
ATOM      2  C   UNL     1      -8.293  -4.829  19.704  0.00  0.00    +0.000 C 
ATOM      3  O   UNL     1      -8.879  -3.888  19.182  0.00  0.00    +0.000 OA
ATOM      4  H   UNL     1      -6.853  -5.465  21.064  0.00  0.00    +0.000 HD
ENDROOT
BRANCH   2   5
ATOM      5  C   UNL     1      -8.464  -6.198  19.160  0.00  0.00    +0.000 A 
ATOM      6  C   UNL     1      -8.741  -6.456  17.821  0.00  0.00    +0.000 A 
ATOM      7  C   UNL     1      -8.852  -7.775  17.382  0.00  0.00    +0.000 A 
ATOM      8  C   UNL     1      -8.679  -8.827  18.287  0.00  0.00    +0.000 A 
ATOM      9  N   UNL     1      -8.396  -8.588  19.594  0.00  0.00    +0.000 NA
ATOM     10  C   UNL     1      -8.291  -7.291  19.998  0.00  0.00    +0.000 A 
ATOM     11  H   UNL     1      -8.832  -5.653  17.095  0.00  0.00    +0.000 HD
ATOM     12  H   UNL     1      -9.036  -7.966  16.330  0.00  0.00    +0.000 HD
ATOM     13  H   UNL     1      -8.053  -7.162  21.052  0.00  0.00    +0.000 HD
BRANCH   8  14
ATOM     14  C   UNL     1      -8.738 -10.246  17.880  0.00  0.00    +0.000 A 
ATOM     15  C   UNL     1      -8.474 -11.275  18.797  0.00  0.00    +0.000 A 
ATOM     16  C   UNL     1      -8.483 -12.595  18.369  0.00  0.00    +0.000 A 
ATOM     17  N   UNL     1      -8.740 -12.970  17.101  0.00  0.00    +0.000 NA
ATOM     18  C   UNL     1      -9.015 -11.979  16.234  0.00  0.00    +0.000 A 
ATOM     19  F   UNL     1      -9.276 -12.321  14.964  0.00  0.00    +0.000 F 
ATOM     20  C   UNL     1      -9.032 -10.635  16.566  0.00  0.00    +0.000 A 
ATOM     21  H   UNL     1      -8.249 -11.051  19.837  0.00  0.00    +0.000 HD
ATOM     22  H   UNL     1      -8.269 -13.406  19.059  0.00  0.00    +0.000 HD
ATOM     23  H   UNL     1      -9.280  -9.921  15.790  0.00  0.00    +0.000 HD
ENDBRANCH   8  14
ENDBRANCH   2   5
BRANCH   1  24
ATOM     24  C   UNL     1      -7.182  -3.402  21.398  0.00  0.00    +0.000 C 
ATOM     25  H   UNL     1      -7.371  -2.640  20.629  0.00  0.00    +0.000 HD
BRANCH  24  30
ATOM     26  C   UNL     1     -10.234  -2.347  23.489  0.00  0.00    +0.000 A 
ATOM     27  C   UNL     1      -9.879  -2.837  24.744  0.00  0.00    +0.000 A 
ATOM     28  C   UNL     1      -8.648  -3.474  24.922  0.00  0.00    +0.000 A 
ATOM     29  C   UNL     1      -7.773  -3.632  23.847  0.00  0.00    +0.000 A 
ATOM     30  C   UNL     1      -8.117  -3.163  22.572  0.00  0.00    +0.000 A 
ATOM     31  C   UNL     1      -9.349  -2.503  22.416  0.00  0.00    +0.000 A 
ATOM     32  H   UNL     1     -10.535  -2.745  25.603  0.00  0.00    +0.000 HD
ATOM     33  H   UNL     1      -8.376  -3.859  25.903  0.00  0.00    +0.000 HD
ATOM     34  H   UNL     1      -6.823  -4.140  24.010  0.00  0.00    +0.000 HD
ATOM     35  H   UNL     1      -9.647  -2.120  21.442  0.00  0.00    +0.000 HD
BRANCH  26  36
ATOM     36  O   UNL     1     -11.406  -1.716  23.173  0.00  0.00    +0.000 OA
BRANCH  36  37
ATOM     37  C   UNL     1     -11.540  -1.232  21.842  0.00  0.00    +0.000 C 
ATOM     38  H   UNL     1     -12.196  -0.357  21.868  0.00  0.00    +0.000 HD
ATOM     39  H   UNL     1     -12.009  -1.986  21.201  0.00  0.00    +0.000 HD
ATOM     40  H   UNL     1     -10.577  -0.909  21.432  0.00  0.00    +0.000 HD
ENDBRANCH  36  37
ENDBRANCH  26  36
ENDBRANCH  24  30
BRANCH  24  41
ATOM     41  C   UNL     1      -5.715  -3.270  21.816  0.00  0.00    +0.000 C 
ATOM     42  H   UNL     1      -5.380  -4.128  22.408  0.00  0.00    +0.000 HD
ATOM     43  H   UNL     1      -5.562  -2.367  22.416  0.00  0.00    +0.000 HD
ATOM     44  H   UNL     1      -5.059  -3.208  20.940  0.00  0.00    +0.000 HD
ENDBRANCH  24  41
ENDBRANCH   1  24
TORSDOF 7
ENDMDL
MODEL 3
REMARK VINA RESULT:    -9.784      4.098      9.859
REMARK INTER + INTRA:         -13.986
REMARK INTER:                 -13.275
REMARK INTRA:                  -0.711
REMARK UNBOUND:                -0.770
REMARK  Name = 
REMARK  7 active torsions:
REMARK  status: ('A' for Active; 'I' for Inactive)
REMARK    1  A    between atoms: C_1  and  O_2
REMARK    2  A    between atoms: O_2  and  C_3
REMARK    3  A    between atoms: C_7  and  C_8
REMARK    4  A    between atoms: C_8  and  C_9
REMARK    5  A    between atoms: C_8  and  N_10
REMARK    6  A    between atoms: C_11  and  C_13
REMARK    7  A    between atoms: C_16  and  C_17
REMARK                            x       y       z     vdW  Elec       q    Type
REMARK                         _______ _______ _______ _____ _____    ______ ____
ROOT
ATOM      1  N   UNL     1      -9.365  -8.054  17.263  0.00  0.00    +0.000 N 
ATOM      2  C   UNL     1      -8.999  -6.760  16.950  0.00  0.00    +0.000 C 
ATOM      3  O   UNL     1      -8.870  -6.351  15.802  0.00  0.00    +0.000 OA
ATOM      4  H   UNL     1      -9.634  -8.290  18.208  0.00  0.00    +0.000 HD
ENDROOT
BRANCH   2   5
ATOM      5  C   UNL     1      -8.769  -5.841  18.091  0.00  0.00    +0.000 A 
ATOM      6  C   UNL     1      -7.782  -6.049  19.049  0.00  0.00    +0.000 A 
ATOM      7  C   UNL     1      -7.607  -5.116  20.072  0.00  0.00    +0.000 A 
ATOM      8  C   UNL     1      -8.420  -3.980  20.124  0.00  0.00    +0.000 A 
ATOM      9  N   UNL     1      -9.379  -3.760  19.187  0.00  0.00    +0.000 NA
ATOM     10  C   UNL     1      -9.529  -4.684  18.197  0.00  0.00    +0.000 A 
ATOM     11  H   UNL     1      -7.111  -6.901  18.998  0.00  0.00    +0.000 HD
ATOM     12  H   UNL     1      -6.814  -5.271  20.795  0.00  0.00    +0.000 HD
ATOM     13  H   UNL     1     -10.304  -4.449  17.471  0.00  0.00    +0.000 HD
BRANCH   8  14
ATOM     14  C   UNL     1      -8.258  -2.931  21.152  0.00  0.00    +0.000 A 
ATOM     15  C   UNL     1      -7.040  -2.756  21.826  0.00  0.00    +0.000 A 
ATOM     16  C   UNL     1      -6.938  -1.798  22.824  0.00  0.00    +0.000 A 
ATOM     17  N   UNL     1      -7.953  -0.997  23.200  0.00  0.00    +0.000 NA
ATOM     18  C   UNL     1      -9.111  -1.154  22.534  0.00  0.00    +0.000 A 
ATOM     19  F   UNL     1     -10.139  -0.369  22.884  0.00  0.00    +0.000 F 
ATOM     20  C   UNL     1      -9.309  -2.080  21.522  0.00  0.00    +0.000 A 
ATOM     21  H   UNL     1      -6.176  -3.372  21.584  0.00  0.00    +0.000 HD
ATOM     22  H   UNL     1      -6.008  -1.655  23.367  0.00  0.00    +0.000 HD
ATOM     23  H   UNL     1     -10.280  -2.111  21.043  0.00  0.00    +0.000 HD
ENDBRANCH   8  14
ENDBRANCH   2   5
BRANCH   1  24
ATOM     24  C   UNL     1      -9.639  -9.043  16.231  0.00  0.00    +0.000 C 
ATOM     25  H   UNL     1      -9.070  -8.744  15.341  0.00  0.00    +0.000 HD
BRANCH  24  30
ATOM     26  C   UNL     1      -8.467 -12.706  16.167  0.00  0.00    +0.000 A 
ATOM     27  C   UNL     1      -8.209 -12.926  17.518  0.00  0.00    +0.000 A 
ATOM     28  C   UNL     1      -8.444 -11.911  18.449  0.00  0.00    +0.000 A 
ATOM     29  C   UNL     1      -8.927 -10.670  18.033  0.00  0.00    +0.000 A 
ATOM     30  C   UNL     1      -9.176 -10.420  16.676  0.00  0.00    +0.000 A 
ATOM     31  C   UNL     1      -8.957 -11.461  15.757  0.00  0.00    +0.000 A 
ATOM     32  H   UNL     1      -7.822 -13.872  17.882  0.00  0.00    +0.000 HD
ATOM     33  H   UNL     1      -8.238 -12.086  19.503  0.00  0.00    +0.000 HD
ATOM     34  H   UNL     1      -9.094  -9.892  18.777  0.00  0.00    +0.000 HD
ATOM     35  H   UNL     1      -9.146 -11.305  14.696  0.00  0.00    +0.000 HD
BRANCH  26  36
ATOM     36  O   UNL     1      -8.272 -13.604  15.154  0.00  0.00    +0.000 OA
BRANCH  36  37
ATOM     37  C   UNL     1      -8.845 -14.896  15.319  0.00  0.00    +0.000 C 
ATOM     38  H   UNL     1      -9.456 -15.107  14.436  0.00  0.00    +0.000 HD
ATOM     39  H   UNL     1      -9.501 -14.919  16.196  0.00  0.00    +0.000 HD
ATOM     40  H   UNL     1      -8.076 -15.674  15.380  0.00  0.00    +0.000 HD
ENDBRANCH  36  37
ENDBRANCH  26  36
ENDBRANCH  24  30
BRANCH  24  41
ATOM     41  C   UNL     1     -11.120  -9.050  15.841  0.00  0.00    +0.000 C 
ATOM     42  H   UNL     1     -11.304  -9.646  14.941  0.00  0.00    +0.000 HD
ATOM     43  H   UNL     1     -11.477  -8.032  15.650  0.00  0.00    +0.000 HD
ATOM     44  H   UNL     1     -11.736  -9.479  16.640  0.00  0.00    +0.000 HD
ENDBRANCH  24  41
ENDBRANCH   1  24
TORSDOF 7
ENDMDL
MODEL 4
REMARK VINA RESULT:    -9.541      2.340      3.191
REMARK INTER + INTRA:         -13.657
REMARK INTER:                 -12.999
REMARK INTRA:                  -0.658
REMARK UNBOUND:                -0.770
REMARK  Name = 
REMARK  7 active torsions:
REMARK  status: ('A' for Active; 'I' for Inactive)
REMARK    1  A    between atoms: C_1  and  O_2
REMARK    2  A    between atoms: O_2  and  C_3
REMARK    3  A    between atoms: C_7  and  C_8
REMARK    4  A    between atoms: C_8  and  C_9
REMARK    5  A    between atoms: C_8  and  N_10
REMARK    6  A    between atoms: C_11  and  C_13
REMARK    7  A    between atoms: C_16  and  C_17
REMARK                            x       y       z     vdW  Elec       q    Type
REMARK                         _______ _______ _______ _____ _____    ______ ____
ROOT
ATOM      1  N   UNL     1      -9.483  -4.541  19.162  0.00  0.00    +0.000 N 
ATOM      2  C   UNL     1     -10.343  -5.316  18.411  0.00  0.00    +0.000 C 
ATOM      3  O   UNL     1     -11.414  -4.913  17.973  0.00  0.00    +0.000 OA
ATOM      4  H   UNL     1      -8.540  -4.858  19.341  0.00  0.00    +0.000 HD
ENDROOT
BRANCH   2   5
ATOM      5  C   UNL     1      -9.907  -6.706  18.126  0.00  0.00    +0.000 A 
ATOM      6  C   UNL     1      -9.198  -7.482  19.037  0.00  0.00    +0.000 A 
ATOM      7  C   UNL     1      -8.857  -8.793  18.706  0.00  0.00    +0.000 A 
ATOM      8  C   UNL     1      -9.233  -9.319  17.466  0.00  0.00    +0.000 A 
ATOM      9  N   UNL     1      -9.937  -8.574  16.574  0.00  0.00    +0.000 NA
ATOM     10  C   UNL     1     -10.260  -7.297  16.921  0.00  0.00    +0.000 A 
ATOM     11  H   UNL     1      -8.938  -7.107  20.023  0.00  0.00    +0.000 HD
ATOM     12  H   UNL     1      -8.332  -9.401  19.435  0.00  0.00    +0.000 HD
ATOM     13  H   UNL     1     -10.832  -6.754  16.172  0.00  0.00    +0.000 HD
BRANCH   8  14
ATOM     14  C   UNL     1      -8.944 -10.713  17.070  0.00  0.00    +0.000 A 
ATOM     15  C   UNL     1      -8.889 -11.087  15.719  0.00  0.00    +0.000 A 
ATOM     16  C   UNL     1      -8.670 -12.415  15.382  0.00  0.00    +0.000 A 
ATOM     17  N   UNL     1      -8.497 -13.399  16.286  0.00  0.00    +0.000 NA
ATOM     18  C   UNL     1      -8.527 -13.028  17.579  0.00  0.00    +0.000 A 
ATOM     19  F   UNL     1      -8.356 -13.984  18.503  0.00  0.00    +0.000 F 
ATOM     20  C   UNL     1      -8.737 -11.729  18.013  0.00  0.00    +0.000 A 
ATOM     21  H   UNL     1      -9.029 -10.351  14.931  0.00  0.00    +0.000 HD
ATOM     22  H   UNL     1      -8.636 -12.729  14.343  0.00  0.00    +0.000 HD
ATOM     23  H   UNL     1      -8.728 -11.540  19.080  0.00  0.00    +0.000 HD
ENDBRANCH   8  14
ENDBRANCH   2   5
BRANCH   1  24
ATOM     24  C   UNL     1      -9.789  -3.156  19.488  0.00  0.00    +0.000 C 
ATOM     25  H   UNL     1     -10.847  -3.121  19.782  0.00  0.00    +0.000 HD
BRANCH  24  30
ATOM     26  C   UNL     1      -6.933  -2.858  22.048  0.00  0.00    +0.000 A 
ATOM     27  C   UNL     1      -7.317  -1.713  22.743  0.00  0.00    +0.000 A 
ATOM     28  C   UNL     1      -8.506  -1.061  22.410  0.00  0.00    +0.000 A 
ATOM     29  C   UNL     1      -9.312  -1.543  21.378  0.00  0.00    +0.000 A 
ATOM     30  C   UNL     1      -8.936  -2.682  20.653  0.00  0.00    +0.000 A 
ATOM     31  C   UNL     1      -7.748  -3.340  21.017  0.00  0.00    +0.000 A 
ATOM     32  H   UNL     1      -6.714  -1.299  23.544  0.00  0.00    +0.000 HD
ATOM     33  H   UNL     1      -8.801  -0.165  22.953  0.00  0.00    +0.000 HD
ATOM     34  H   UNL     1     -10.229  -1.011  21.132  0.00  0.00    +0.000 HD
ATOM     35  H   UNL     1      -7.428  -4.232  20.481  0.00  0.00    +0.000 HD
BRANCH  26  36
ATOM     36  O   UNL     1      -5.794  -3.586  22.262  0.00  0.00    +0.000 OA
BRANCH  36  37
ATOM     37  C   UNL     1      -5.023  -3.927  21.115  0.00  0.00    +0.000 C 
ATOM     38  H   UNL     1      -4.006  -4.151  21.451  0.00  0.00    +0.000 HD
ATOM     39  H   UNL     1      -4.970  -3.083  20.419  0.00  0.00    +0.000 HD
ATOM     40  H   UNL     1      -5.411  -4.824  20.621  0.00  0.00    +0.000 HD
ENDBRANCH  36  37
ENDBRANCH  26  36
ENDBRANCH  24  30
BRANCH  24  41
ATOM     41  C   UNL     1      -9.626  -2.244  18.269  0.00  0.00    +0.000 C 
ATOM     42  H   UNL     1      -9.079  -2.738  17.459  0.00  0.00    +0.000 HD
ATOM     43  H   UNL     1      -9.081  -1.332  18.536  0.00  0.00    +0.000 HD
ATOM     44  H   UNL     1     -10.600  -1.948  17.864  0.00  0.00    +0.000 HD
ENDBRANCH  24  41
ENDBRANCH   1  24
TORSDOF 7
ENDMDL
MODEL 5
REMARK VINA RESULT:    -9.339      2.558      4.020
REMARK INTER + INTRA:         -13.385
REMARK INTER:                 -12.828
REMARK INTRA:                  -0.557
REMARK UNBOUND:                -0.770
REMARK  Name = 
REMARK  7 active torsions:
REMARK  status: ('A' for Active; 'I' for Inactive)
REMARK    1  A    between atoms: C_1  and  O_2
REMARK    2  A    between atoms: O_2  and  C_3
REMARK    3  A    between atoms: C_7  and  C_8
REMARK    4  A    between atoms: C_8  and  C_9
REMARK    5  A    between atoms: C_8  and  N_10
REMARK    6  A    between atoms: C_11  and  C_13
REMARK    7  A    between atoms: C_16  and  C_17
REMARK                            x       y       z     vdW  Elec       q    Type
REMARK                         _______ _______ _______ _____ _____    ______ ____
ROOT
ATOM      1  N   UNL     1      -8.866  -6.467  18.774  0.00  0.00    +0.000 N 
ATOM      2  C   UNL     1      -8.863  -7.624  19.528  0.00  0.00    +0.000 C 
ATOM      3  O   UNL     1      -8.826  -7.636  20.753  0.00  0.00    +0.000 OA
ATOM      4  H   UNL     1      -9.081  -6.507  17.787  0.00  0.00    +0.000 HD
ENDROOT
BRANCH   2   5
ATOM      5  C   UNL     1      -8.921  -8.904  18.780  0.00  0.00    +0.000 A 
ATOM      6  C   UNL     1      -9.384  -9.000  17.472  0.00  0.00    +0.000 A 
ATOM      7  C   UNL     1      -9.372 -10.237  16.826  0.00  0.00    +0.000 A 
ATOM      8  C   UNL     1      -8.891 -11.367  17.495  0.00  0.00    +0.000 A 
ATOM      9  N   UNL     1      -8.424 -11.282  18.767  0.00  0.00    +0.000 NA
ATOM     10  C   UNL     1      -8.444 -10.063  19.376  0.00  0.00    +0.000 A 
ATOM     11  H   UNL     1      -9.718  -8.126  16.921  0.00  0.00    +0.000 HD
ATOM     12  H   UNL     1      -9.705 -10.296  15.796  0.00  0.00    +0.000 HD
ATOM     13  H   UNL     1      -8.049 -10.056  20.390  0.00  0.00    +0.000 HD
BRANCH   8  14
ATOM     14  C   UNL     1      -8.807 -12.696  16.855  0.00  0.00    +0.000 A 
ATOM     15  C   UNL     1      -8.936 -13.873  17.608  0.00  0.00    +0.000 A 
ATOM     16  C   UNL     1      -8.798 -15.105  16.985  0.00  0.00    +0.000 A 
ATOM     17  N   UNL     1      -8.547 -15.257  15.670  0.00  0.00    +0.000 NA
ATOM     18  C   UNL     1      -8.448 -14.124  14.951  0.00  0.00    +0.000 A 
ATOM     19  F   UNL     1      -8.201 -14.242  13.639  0.00  0.00    +0.000 F 
ATOM     20  C   UNL     1      -8.574 -12.850  15.482  0.00  0.00    +0.000 A 
ATOM     21  H   UNL     1      -9.130 -13.832  18.677  0.00  0.00    +0.000 HD
ATOM     22  H   UNL     1      -8.881 -16.029  17.551  0.00  0.00    +0.000 HD
ATOM     23  H   UNL     1      -8.490 -12.007  14.807  0.00  0.00    +0.000 HD
ENDBRANCH   8  14
ENDBRANCH   2   5
BRANCH   1  24
ATOM     24  C   UNL     1      -8.835  -5.151  19.393  0.00  0.00    +0.000 C 
ATOM     25  H   UNL     1      -9.509  -5.186  20.259  0.00  0.00    +0.000 HD
BRANCH  24  30
ATOM     26  C   UNL     1      -5.907  -3.656  21.391  0.00  0.00    +0.000 A 
ATOM     27  C   UNL     1      -4.826  -4.317  20.814  0.00  0.00    +0.000 A 
ATOM     28  C   UNL     1      -5.036  -5.214  19.764  0.00  0.00    +0.000 A 
ATOM     29  C   UNL     1      -6.326  -5.461  19.293  0.00  0.00    +0.000 A 
ATOM     30  C   UNL     1      -7.431  -4.821  19.871  0.00  0.00    +0.000 A 
ATOM     31  C   UNL     1      -7.199  -3.903  20.911  0.00  0.00    +0.000 A 
ATOM     32  H   UNL     1      -3.809  -4.162  21.157  0.00  0.00    +0.000 HD
ATOM     33  H   UNL     1      -4.189  -5.731  19.317  0.00  0.00    +0.000 HD
ATOM     34  H   UNL     1      -6.464  -6.172  18.479  0.00  0.00    +0.000 HD
ATOM     35  H   UNL     1      -8.032  -3.383  21.379  0.00  0.00    +0.000 HD
BRANCH  26  36
ATOM     36  O   UNL     1      -5.846  -2.764  22.428  0.00  0.00    +0.000 OA
BRANCH  36  37
ATOM     37  C   UNL     1      -7.003  -1.971  22.665  0.00  0.00    +0.000 C 
ATOM     38  H   UNL     1      -6.819  -1.370  23.560  0.00  0.00    +0.000 HD
ATOM     39  H   UNL     1      -7.875  -2.606  22.858  0.00  0.00    +0.000 HD
ATOM     40  H   UNL     1      -7.194  -1.279  21.838  0.00  0.00    +0.000 HD
ENDBRANCH  36  37
ENDBRANCH  26  36
ENDBRANCH  24  30
BRANCH  24  41
ATOM     41  C   UNL     1      -9.369  -4.073  18.445  0.00  0.00    +0.000 C 
ATOM     42  H   UNL     1      -8.750  -3.169  18.463  0.00  0.00    +0.000 HD
ATOM     43  H   UNL     1     -10.391  -3.787  18.718  0.00  0.00    +0.000 HD
ATOM     44  H   UNL     1      -9.385  -4.431  17.410  0.00  0.00    +0.000 HD
ENDBRANCH  24  41
ENDBRANCH   1  24
TORSDOF 7
ENDMDL
MODEL 6
REMARK VINA RESULT:    -9.317      2.175      2.925
REMARK INTER + INTRA:         -13.355
REMARK INTER:                 -12.762
REMARK INTRA:                  -0.593
REMARK UNBOUND:                -0.770
REMARK  Name = 
REMARK  7 active torsions:
REMARK  status: ('A' for Active; 'I' for Inactive)
REMARK    1  A    between atoms: C_1  and  O_2
REMARK    2  A    between atoms: O_2  and  C_3
REMARK    3  A    between atoms: C_7  and  C_8
REMARK    4  A    between atoms: C_8  and  C_9
REMARK    5  A    between atoms: C_8  and  N_10
REMARK    6  A    between atoms: C_11  and  C_13
REMARK    7  A    between atoms: C_16  and  C_17
REMARK                            x       y       z     vdW  Elec       q    Type
REMARK                         _______ _______ _______ _____ _____    ______ ____
ROOT
ATOM      1  N   UNL     1      -9.498  -4.441  19.176  0.00  0.00    +0.000 N 
ATOM      2  C   UNL     1     -10.328  -5.233  18.407  0.00  0.00    +0.000 C 
ATOM      3  O   UNL     1     -11.377  -4.836  17.914  0.00  0.00    +0.000 OA
ATOM      4  H   UNL     1      -8.565  -4.756  19.404  0.00  0.00    +0.000 HD
ENDROOT
BRANCH   2   5
ATOM      5  C   UNL     1      -9.886  -6.630  18.177  0.00  0.00    +0.000 A 
ATOM      6  C   UNL     1      -9.192  -7.375  19.126  0.00  0.00    +0.000 A 
ATOM      7  C   UNL     1      -8.845  -8.696  18.844  0.00  0.00    +0.000 A 
ATOM      8  C   UNL     1      -9.198  -9.263  17.616  0.00  0.00    +0.000 A 
ATOM      9  N   UNL     1      -9.886  -8.549  16.687  0.00  0.00    +0.000 NA
ATOM     10  C   UNL     1     -10.217  -7.261  16.986  0.00  0.00    +0.000 A 
ATOM     11  H   UNL     1      -8.950  -6.967  20.103  0.00  0.00    +0.000 HD
ATOM     12  H   UNL     1      -8.333  -9.278  19.603  0.00  0.00    +0.000 HD
ATOM     13  H   UNL     1     -10.775  -6.744  16.209  0.00  0.00    +0.000 HD
BRANCH   8  14
ATOM     14  C   UNL     1      -8.902 -10.668  17.272  0.00  0.00    +0.000 A 
ATOM     15  C   UNL     1      -8.858 -11.095  15.936  0.00  0.00    +0.000 A 
ATOM     16  C   UNL     1      -8.631 -12.433  15.649  0.00  0.00    +0.000 A 
ATOM     17  N   UNL     1      -8.439 -13.379  16.589  0.00  0.00    +0.000 NA
ATOM     18  C   UNL     1      -8.458 -12.958  17.866  0.00  0.00    +0.000 A 
ATOM     19  F   UNL     1      -8.268 -13.876  18.825  0.00  0.00    +0.000 F 
ATOM     20  C   UNL     1      -8.674 -11.645  18.251  0.00  0.00    +0.000 A 
ATOM     21  H   UNL     1      -9.012 -10.391  15.121  0.00  0.00    +0.000 HD
ATOM     22  H   UNL     1      -8.606 -12.787  14.623  0.00  0.00    +0.000 HD
ATOM     23  H   UNL     1      -8.656 -11.414  19.310  0.00  0.00    +0.000 HD
ENDBRANCH   8  14
ENDBRANCH   2   5
BRANCH   1  24
ATOM     24  C   UNL     1      -9.812  -3.048  19.454  0.00  0.00    +0.000 C 
ATOM     25  H   UNL     1     -10.878  -3.003  19.712  0.00  0.00    +0.000 HD
BRANCH  24  30
ATOM     26  C   UNL     1      -8.667  -0.997  22.501  0.00  0.00    +0.000 A 
ATOM     27  C   UNL     1      -7.524  -1.698  22.879  0.00  0.00    +0.000 A 
ATOM     28  C   UNL     1      -7.106  -2.804  22.136  0.00  0.00    +0.000 A 
ATOM     29  C   UNL     1      -7.833  -3.221  21.020  0.00  0.00    +0.000 A 
ATOM     30  C   UNL     1      -8.995  -2.542  20.632  0.00  0.00    +0.000 A 
ATOM     31  C   UNL     1      -9.388  -1.416  21.376  0.00  0.00    +0.000 A 
ATOM     32  H   UNL     1      -6.938  -1.415  23.746  0.00  0.00    +0.000 HD
ATOM     33  H   UNL     1      -6.215  -3.352  22.437  0.00  0.00    +0.000 HD
ATOM     34  H   UNL     1      -7.491  -4.092  20.463  0.00  0.00    +0.000 HD
ATOM     35  H   UNL     1     -10.282  -0.860  21.100  0.00  0.00    +0.000 HD
BRANCH  26  36
ATOM     36  O   UNL     1      -9.192   0.093  23.141  0.00  0.00    +0.000 OA
BRANCH  36  37
ATOM     37  C   UNL     1      -8.836   0.272  24.506  0.00  0.00    +0.000 C 
ATOM     38  H   UNL     1      -7.903   0.844  24.536  0.00  0.00    +0.000 HD
ATOM     39  H   UNL     1      -8.654  -0.694  24.989  0.00  0.00    +0.000 HD
ATOM     40  H   UNL     1      -9.593   0.849  25.049  0.00  0.00    +0.000 HD
ENDBRANCH  36  37
ENDBRANCH  26  36
ENDBRANCH  24  30
BRANCH  24  41
ATOM     41  C   UNL     1      -9.608  -2.170  18.216  0.00  0.00    +0.000 C 
ATOM     42  H   UNL     1     -10.303  -1.323  18.195  0.00  0.00    +0.000 HD
ATOM     43  H   UNL     1      -9.758  -2.750  17.299  0.00  0.00    +0.000 HD
ATOM     44  H   UNL     1      -8.595  -1.753  18.190  0.00  0.00    +0.000 HD
ENDBRANCH  24  41
ENDBRANCH   1  24
TORSDOF 7
ENDMDL
MODEL 7
REMARK VINA RESULT:    -9.241      6.094      9.793
REMARK INTER + INTRA:         -13.252
REMARK INTER:                 -12.517
REMARK INTRA:                  -0.734
REMARK UNBOUND:                -0.770
REMARK  Name = 
REMARK  7 active torsions:
REMARK  status: ('A' for Active; 'I' for Inactive)
REMARK    1  A    between atoms: C_1  and  O_2
REMARK    2  A    between atoms: O_2  and  C_3
REMARK    3  A    between atoms: C_7  and  C_8
REMARK    4  A    between atoms: C_8  and  C_9
REMARK    5  A    between atoms: C_8  and  N_10
REMARK    6  A    between atoms: C_11  and  C_13
REMARK    7  A    between atoms: C_16  and  C_17
REMARK                            x       y       z     vdW  Elec       q    Type
REMARK                         _______ _______ _______ _____ _____    ______ ____
ROOT
ATOM      1  N   UNL     1      -9.683  -8.257  16.888  0.00  0.00    +0.000 N 
ATOM      2  C   UNL     1     -10.645  -7.285  17.076  0.00  0.00    +0.000 C 
ATOM      3  O   UNL     1     -11.492  -7.330  17.961  0.00  0.00    +0.000 OA
ATOM      4  H   UNL     1      -8.903  -8.085  16.269  0.00  0.00    +0.000 HD
ENDROOT
BRANCH   2   5
ATOM      5  C   UNL     1     -10.614  -6.131  16.144  0.00  0.00    +0.000 A 
ATOM      6  C   UNL     1     -11.552  -5.104  16.173  0.00  0.00    +0.000 A 
ATOM      7  C   UNL     1     -11.430  -4.035  15.285  0.00  0.00    +0.000 A 
ATOM      8  C   UNL     1     -10.366  -4.001  14.378  0.00  0.00    +0.000 A 
ATOM      9  N   UNL     1      -9.437  -4.991  14.350  0.00  0.00    +0.000 NA
ATOM     10  C   UNL     1      -9.576  -6.024  15.228  0.00  0.00    +0.000 A 
ATOM     11  H   UNL     1     -12.358  -5.090  16.900  0.00  0.00    +0.000 HD
ATOM     12  H   UNL     1     -12.148  -3.224  15.336  0.00  0.00    +0.000 HD
ATOM     13  H   UNL     1      -8.798  -6.781  15.166  0.00  0.00    +0.000 HD
BRANCH   8  14
ATOM     14  C   UNL     1     -10.152  -2.877  13.443  0.00  0.00    +0.000 A 
ATOM     15  C   UNL     1     -11.232  -2.253  12.799  0.00  0.00    +0.000 A 
ATOM     16  C   UNL     1     -10.992  -1.237  11.885  0.00  0.00    +0.000 A 
ATOM     17  N   UNL     1      -9.762  -0.791  11.566  0.00  0.00    +0.000 NA
ATOM     18  C   UNL     1      -8.734  -1.379  12.204  0.00  0.00    +0.000 A 
ATOM     19  F   UNL     1      -7.497  -0.955  11.909  0.00  0.00    +0.000 F 
ATOM     20  C   UNL     1      -8.872  -2.397  13.133  0.00  0.00    +0.000 A 
ATOM     21  H   UNL     1     -12.255  -2.564  12.999  0.00  0.00    +0.000 HD
ATOM     22  H   UNL     1     -11.812  -0.749  11.367  0.00  0.00    +0.000 HD
ATOM     23  H   UNL     1      -7.976  -2.789  13.597  0.00  0.00    +0.000 HD
ENDBRANCH   8  14
ENDBRANCH   2   5
BRANCH   1  24
ATOM     24  C   UNL     1      -9.598  -9.425  17.752  0.00  0.00    +0.000 C 
ATOM     25  H   UNL     1     -10.610  -9.622  18.128  0.00  0.00    +0.000 HD
BRANCH  24  30
ATOM     26  C   UNL     1      -8.568 -13.015  16.828  0.00  0.00    +0.000 A 
ATOM     27  C   UNL     1      -8.339 -12.883  15.461  0.00  0.00    +0.000 A 
ATOM     28  C   UNL     1      -8.482 -11.636  14.846  0.00  0.00    +0.000 A 
ATOM     29  C   UNL     1      -8.865 -10.521  15.592  0.00  0.00    +0.000 A 
ATOM     30  C   UNL     1      -9.118 -10.635  16.966  0.00  0.00    +0.000 A 
ATOM     31  C   UNL     1      -8.945 -11.891  17.573  0.00  0.00    +0.000 A 
ATOM     32  H   UNL     1      -8.052 -13.726  14.842  0.00  0.00    +0.000 HD
ATOM     33  H   UNL     1      -8.306 -11.537  13.777  0.00  0.00    +0.000 HD
ATOM     34  H   UNL     1      -8.978  -9.562  15.088  0.00  0.00    +0.000 HD
ATOM     35  H   UNL     1      -9.126 -12.015  18.639  0.00  0.00    +0.000 HD
BRANCH  26  36
ATOM     36  O   UNL     1      -8.474 -14.173  17.552  0.00  0.00    +0.000 OA
BRANCH  36  37
ATOM     37  C   UNL     1      -8.852 -14.108  18.922  0.00  0.00    +0.000 C 
ATOM     38  H   UNL     1      -9.047 -13.060  19.166  0.00  0.00    +0.000 HD
ATOM     39  H   UNL     1      -8.036 -14.457  19.565  0.00  0.00    +0.000 HD
ATOM     40  H   UNL     1      -9.773 -14.668  19.114  0.00  0.00    +0.000 HD
ENDBRANCH  36  37
ENDBRANCH  26  36
ENDBRANCH  24  30
BRANCH  24  41
ATOM     41  C   UNL     1      -8.705  -9.160  18.967  0.00  0.00    +0.000 C 
ATOM     42  H   UNL     1      -9.288  -9.056  19.889  0.00  0.00    +0.000 HD
ATOM     43  H   UNL     1      -8.125  -8.241  18.831  0.00  0.00    +0.000 HD
ATOM     44  H   UNL     1      -7.999  -9.983  19.126  0.00  0.00    +0.000 HD
ENDBRANCH  24  41
ENDBRANCH   1  24
TORSDOF 7
ENDMDL
MODEL 8
REMARK VINA RESULT:    -9.188      3.879      6.256
REMARK INTER + INTRA:         -13.181
REMARK INTER:                 -12.381
REMARK INTRA:                  -0.800
REMARK UNBOUND:                -0.770
REMARK  Name = 
REMARK  7 active torsions:
REMARK  status: ('A' for Active; 'I' for Inactive)
REMARK    1  A    between atoms: C_1  and  O_2
REMARK    2  A    between atoms: O_2  and  C_3
REMARK    3  A    between atoms: C_7  and  C_8
REMARK    4  A    between atoms: C_8  and  C_9
REMARK    5  A    between atoms: C_8  and  N_10
REMARK    6  A    between atoms: C_11  and  C_13
REMARK    7  A    between atoms: C_16  and  C_17
REMARK                            x       y       z     vdW  Elec       q    Type
REMARK                         _______ _______ _______ _____ _____    ______ ____
ROOT
ATOM      1  N   UNL     1     -10.501  -4.930  17.821  0.00  0.00    +0.000 N 
ATOM      2  C   UNL     1      -9.407  -5.479  18.463  0.00  0.00    +0.000 C 
ATOM      3  O   UNL     1      -8.630  -4.830  19.153  0.00  0.00    +0.000 OA
ATOM      4  H   UNL     1     -11.206  -5.531  17.420  0.00  0.00    +0.000 HD
ENDROOT
BRANCH   2   5
ATOM      5  C   UNL     1      -9.202  -6.938  18.294  0.00  0.00    +0.000 A 
ATOM      6  C   UNL     1      -9.037  -7.812  19.364  0.00  0.00    +0.000 A 
ATOM      7  C   UNL     1      -8.886  -9.177  19.121  0.00  0.00    +0.000 A 
ATOM      8  C   UNL     1      -8.906  -9.658  17.808  0.00  0.00    +0.000 A 
ATOM      9  N   UNL     1      -9.079  -8.815  16.757  0.00  0.00    +0.000 NA
ATOM     10  C   UNL     1      -9.227  -7.487  17.019  0.00  0.00    +0.000 A 
ATOM     11  H   UNL     1      -9.065  -7.464  20.392  0.00  0.00    +0.000 HD
ATOM     12  H   UNL     1      -8.790  -9.854  19.963  0.00  0.00    +0.000 HD
ATOM     13  H   UNL     1      -9.373  -6.863  16.139  0.00  0.00    +0.000 HD
BRANCH   8  14
ATOM     14  C   UNL     1      -8.797 -11.095  17.483  0.00  0.00    +0.000 A 
ATOM     15  C   UNL     1      -8.625 -12.056  18.491  0.00  0.00    +0.000 A 
ATOM     16  C   UNL     1      -8.472 -13.391  18.148  0.00  0.00    +0.000 A 
ATOM     17  N   UNL     1      -8.482 -13.845  16.880  0.00  0.00    +0.000 NA
ATOM     18  C   UNL     1      -8.672 -12.921  15.921  0.00  0.00    +0.000 A 
ATOM     19  F   UNL     1      -8.689 -13.342  14.649  0.00  0.00    +0.000 F 
ATOM     20  C   UNL     1      -8.837 -11.567  16.164  0.00  0.00    +0.000 A 
ATOM     21  H   UNL     1      -8.597 -11.765  19.539  0.00  0.00    +0.000 HD
ATOM     22  H   UNL     1      -8.325 -14.150  18.911  0.00  0.00    +0.000 HD
ATOM     23  H   UNL     1      -8.996 -10.913  15.316  0.00  0.00    +0.000 HD
ENDBRANCH   8  14
ENDBRANCH   2   5
BRANCH   1  24
ATOM     24  C   UNL     1     -10.819  -3.515  17.929  0.00  0.00    +0.000 C 
ATOM     25  H   UNL     1      -9.900  -3.000  18.240  0.00  0.00    +0.000 HD
BRANCH  24  30
ATOM     26  C   UNL     1     -11.391  -3.122  14.145  0.00  0.00    +0.000 A 
ATOM     27  C   UNL     1     -12.199  -1.988  14.114  0.00  0.00    +0.000 A 
ATOM     28  C   UNL     1     -12.530  -1.334  15.304  0.00  0.00    +0.000 A 
ATOM     29  C   UNL     1     -12.064  -1.815  16.528  0.00  0.00    +0.000 A 
ATOM     30  C   UNL     1     -11.264  -2.965  16.584  0.00  0.00    +0.000 A 
ATOM     31  C   UNL     1     -10.921  -3.597  15.375  0.00  0.00    +0.000 A 
ATOM     32  H   UNL     1     -12.592  -1.588  13.186  0.00  0.00    +0.000 HD
ATOM     33  H   UNL     1     -13.165  -0.451  15.276  0.00  0.00    +0.000 HD
ATOM     34  H   UNL     1     -12.343  -1.292  17.441  0.00  0.00    +0.000 HD
ATOM     35  H   UNL     1     -10.297  -4.488  15.380  0.00  0.00    +0.000 HD
BRANCH  26  36
ATOM     36  O   UNL     1     -11.001  -3.863  13.063  0.00  0.00    +0.000 OA
BRANCH  36  37
ATOM     37  C   UNL     1     -11.664  -3.603  11.831  0.00  0.00    +0.000 C 
ATOM     38  H   UNL     1     -12.481  -4.325  11.732  0.00  0.00    +0.000 HD
ATOM     39  H   UNL     1     -10.983  -3.748  10.986  0.00  0.00    +0.000 HD
ATOM     40  H   UNL     1     -12.107  -2.602  11.814  0.00  0.00    +0.000 HD
ENDBRANCH  36  37
ENDBRANCH  26  36
ENDBRANCH  24  30
BRANCH  24  41
ATOM     41  C   UNL     1     -11.871  -3.258  19.013  0.00  0.00    +0.000 C 
ATOM     42  H   UNL     1     -12.081  -2.190  19.134  0.00  0.00    +0.000 HD
ATOM     43  H   UNL     1     -11.535  -3.647  19.980  0.00  0.00    +0.000 HD
ATOM     44  H   UNL     1     -12.820  -3.746  18.764  0.00  0.00    +0.000 HD
ENDBRANCH  24  41
ENDBRANCH   1  24
TORSDOF 7
ENDMDL
MODEL 9
REMARK VINA RESULT:    -9.088      4.387      6.391
REMARK INTER + INTRA:         -13.046
REMARK INTER:                 -12.312
REMARK INTRA:                  -0.734
REMARK UNBOUND:                -0.770
REMARK  Name = 
REMARK  7 active torsions:
REMARK  status: ('A' for Active; 'I' for Inactive)
REMARK    1  A    between atoms: C_1  and  O_2
REMARK    2  A    between atoms: O_2  and  C_3
REMARK    3  A    between atoms: C_7  and  C_8
REMARK    4  A    between atoms: C_8  and  C_9
REMARK    5  A    between atoms: C_8  and  N_10
REMARK    6  A    between atoms: C_11  and  C_13
REMARK    7  A    between atoms: C_16  and  C_17
REMARK                            x       y       z     vdW  Elec       q    Type
REMARK                         _______ _______ _______ _____ _____    ______ ____
ROOT
ATOM      1  N   UNL     1     -10.475  -5.339  17.177  0.00  0.00    +0.000 N 
ATOM      2  C   UNL     1      -9.467  -5.886  17.946  0.00  0.00    +0.000 C 
ATOM      3  O   UNL     1      -8.786  -5.239  18.732  0.00  0.00    +0.000 OA
ATOM      4  H   UNL     1     -11.121  -5.941  16.687  0.00  0.00    +0.000 HD
ENDROOT
BRANCH   2   5
ATOM      5  C   UNL     1      -9.233  -7.343  17.794  0.00  0.00    +0.000 A 
ATOM      6  C   UNL     1      -8.992  -8.191  18.871  0.00  0.00    +0.000 A 
ATOM      7  C   UNL     1      -8.819  -9.557  18.646  0.00  0.00    +0.000 A 
ATOM      8  C   UNL     1      -8.892 -10.064  17.345  0.00  0.00    +0.000 A 
ATOM      9  N   UNL     1      -9.140  -9.247  16.288  0.00  0.00    +0.000 NA
ATOM     10  C   UNL     1      -9.308  -7.917  16.533  0.00  0.00    +0.000 A 
ATOM     11  H   UNL     1      -8.978  -7.823  19.892  0.00  0.00    +0.000 HD
ATOM     12  H   UNL     1      -8.663 -10.214  19.495  0.00  0.00    +0.000 HD
ATOM     13  H   UNL     1      -9.513  -7.316  15.650  0.00  0.00    +0.000 HD
BRANCH   8  14
ATOM     14  C   UNL     1      -8.763 -11.504  17.042  0.00  0.00    +0.000 A 
ATOM     15  C   UNL     1      -8.612 -11.957  15.722  0.00  0.00    +0.000 A 
ATOM     16  C   UNL     1      -8.550 -13.320  15.467  0.00  0.00    +0.000 A 
ATOM     17  N   UNL     1      -8.620 -14.266  16.424  0.00  0.00    +0.000 NA
ATOM     18  C   UNL     1      -8.740 -13.822  17.688  0.00  0.00    +0.000 A 
ATOM     19  F   UNL     1      -8.811 -14.739  18.663  0.00  0.00    +0.000 F 
ATOM     20  C   UNL     1      -8.809 -12.485  18.042  0.00  0.00    +0.000 A 
ATOM     21  H   UNL     1      -8.557 -11.254  14.894  0.00  0.00    +0.000 HD
ATOM     22  H   UNL     1      -8.446 -13.693  14.453  0.00  0.00    +0.000 HD
ATOM     23  H   UNL     1      -8.892 -12.239  19.094  0.00  0.00    +0.000 HD
ENDBRANCH   8  14
ENDBRANCH   2   5
BRANCH   1  24
ATOM     24  C   UNL     1     -10.813  -3.926  17.254  0.00  0.00    +0.000 C 
ATOM     25  H   UNL     1      -9.895  -3.389  17.526  0.00  0.00    +0.000 HD
BRANCH  24  30
ATOM     26  C   UNL     1     -12.325  -1.689  14.513  0.00  0.00    +0.000 A 
ATOM     27  C   UNL     1     -12.088  -2.461  13.378  0.00  0.00    +0.000 A 
ATOM     28  C   UNL     1     -11.475  -3.711  13.500  0.00  0.00    +0.000 A 
ATOM     29  C   UNL     1     -11.088  -4.189  14.752  0.00  0.00    +0.000 A 
ATOM     30  C   UNL     1     -11.300  -3.421  15.905  0.00  0.00    +0.000 A 
ATOM     31  C   UNL     1     -11.941  -2.177  15.767  0.00  0.00    +0.000 A 
ATOM     32  H   UNL     1     -12.363  -2.122  12.385  0.00  0.00    +0.000 HD
ATOM     33  H   UNL     1     -11.288  -4.310  12.611  0.00  0.00    +0.000 HD
ATOM     34  H   UNL     1     -10.604  -5.162  14.819  0.00  0.00    +0.000 HD
ATOM     35  H   UNL     1     -12.128  -1.556  16.642  0.00  0.00    +0.000 HD
BRANCH  26  36
ATOM     36  O   UNL     1     -12.905  -0.449  14.537  0.00  0.00    +0.000 OA
BRANCH  36  37
ATOM     37  C   UNL     1     -13.274   0.065  15.811  0.00  0.00    +0.000 C 
ATOM     38  H   UNL     1     -14.223  -0.400  16.097  0.00  0.00    +0.000 HD
ATOM     39  H   UNL     1     -13.432   1.148  15.760  0.00  0.00    +0.000 HD
ATOM     40  H   UNL     1     -12.537  -0.192  16.579  0.00  0.00    +0.000 HD
ENDBRANCH  36  37
ENDBRANCH  26  36
ENDBRANCH  24  30
BRANCH  24  41
ATOM     41  C   UNL     1     -11.842  -3.655  18.356  0.00  0.00    +0.000 C 
ATOM     42  H   UNL     1     -12.310  -2.671  18.246  0.00  0.00    +0.000 HD
ATOM     43  H   UNL     1     -11.372  -3.696  19.344  0.00  0.00    +0.000 HD
ATOM     44  H   UNL     1     -12.647  -4.397  18.334  0.00  0.00    +0.000 HD
ENDBRANCH  24  41
ENDBRANCH   1  24
TORSDOF 7
ENDMDL
