
 OpenBabel01112422313D

 71 77  0  0  0  0  0  0  0  0999 V2000
    1.0209    0.1156    0.5785 C   0  0  0  0  0  0  0  0  0  0  0  0
    2.4048    0.1558    0.1987 O   0  0  0  0  0  0  0  0  0  0  0  0
    2.9826    1.3838    0.3206 C   0  0  0  0  0  0  0  0  0  0  0  0
    2.6327    2.3485    1.2602 C   0  0  0  0  0  0  0  0  0  0  0  0
    3.2467    3.5833    1.2665 C   0  0  0  0  0  0  0  0  0  0  0  0
    4.2589    3.8882    0.3290 C   0  0  0  0  0  0  0  0  0  0  0  0
    5.0345    4.9809   -0.0378 C   0  0  0  0  0  0  0  0  0  0  0  0
    5.0031    6.2095    0.6494 C   0  0  0  0  0  0  0  0  0  0  0  0
    5.6909    7.2717    0.0469 C   0  0  0  0  0  0  0  0  0  0  0  0
    6.7075    7.0959   -0.8923 C   0  0  0  0  0  0  0  0  0  0  0  0
    6.8921    5.7733   -1.4105 C   0  0  0  0  0  0  0  0  0  0  0  0
    8.1272    5.4383   -1.9951 C   0  0  0  0  0  0  0  0  0  0  0  0
    9.2705    6.1895   -1.6964 C   0  0  0  0  0  0  0  0  0  0  0  0
    9.0538    7.2578   -0.8255 C   0  0  0  0  0  0  0  0  0  0  0  0
    9.3309    7.4526    0.5901 C   0  0  0  0  0  0  0  0  0  0  0  0
    8.6724    8.6160    0.9641 C   0  0  0  0  0  0  0  0  0  0  0  0
    8.2242    9.1249   -0.2524 N   0  0  0  0  0  0  0  0  0  0  0  0
    9.0738   10.1421   -0.8931 C   0  0  0  0  0  0  0  0  0  0  0  0
    7.8350    7.9556   -0.9358 C   0  0  0  0  0  0  0  0  0  0  0  0
    5.9308    4.7714   -1.0570 C   0  0  0  0  0  0  0  0  0  0  0  0
    5.7263    3.4241   -1.3433 N   0  0  0  0  0  0  0  0  0  0  0  0
    6.5068    2.6384   -2.2877 C   0  0  0  0  0  0  0  0  0  0  0  0
    6.3912    3.1369   -3.7322 C   0  0  0  0  0  0  0  0  0  0  0  0
    7.1730    2.2381   -4.6951 C   0  0  0  0  0  0  0  0  0  0  0  0
    6.7217    0.8412   -4.6327 N   0  0  0  0  0  0  0  0  0  0  0  0
    5.3114    0.7265   -5.0271 C   0  0  0  0  0  0  0  0  0  0  0  0
    4.8239   -0.7079   -4.8851 C   0  0  0  0  0  0  0  0  0  0  0  0
    5.6491   -1.6456   -5.7624 C   0  0  0  0  0  0  0  0  0  0  0  0
    5.3865   -1.3875   -7.2440 C   0  0  0  0  0  0  0  0  0  0  0  0
    4.0839   -1.4939   -7.6348 N   0  0  0  0  0  0  0  0  0  0  0  0
    6.2522   -1.1125   -8.0665 O   0  0  0  0  0  0  0  0  0  0  0  0
    7.1315   -1.4833   -5.4047 C   0  0  0  0  0  0  0  0  0  0  0  0
    7.5878   -0.0197   -5.4538 C   0  0  0  0  0  0  0  0  0  0  0  0
    4.6706    2.9026   -0.5746 C   0  0  0  0  0  0  0  0  0  0  0  0
    4.0546    1.6314   -0.5822 C   0  0  0  0  0  0  0  0  0  0  0  0
    5.4154    8.4326    0.8244 C   0  0  0  0  0  0  0  0  0  0  0  0
    5.4018    9.6355    0.5630 O   0  0  0  0  0  0  0  0  0  0  0  0
    4.9976    7.9244    2.0242 N   0  0  0  0  0  0  0  0  0  0  0  0
    4.6061    6.6066    1.9637 C   0  0  0  0  0  0  0  0  0  0  0  0
    4.2266    5.9959    2.9509 O   0  0  0  0  0  0  0  0  0  0  0  0
    0.6220   -0.8858    0.3009 H   0  0  0  0  0  0  0  0  0  0  0  0
    0.4417    0.8609    0.0709 H   0  0  0  0  0  0  0  0  0  0  0  0
    0.9059    0.1877    1.6755 H   0  0  0  0  0  0  0  0  0  0  0  0
    1.8527    2.1579    1.9985 H   0  0  0  0  0  0  0  0  0  0  0  0
    2.9282    4.3134    2.0014 H   0  0  0  0  0  0  0  0  0  0  0  0
    8.3208    4.4874   -2.4692 H   0  0  0  0  0  0  0  0  0  0  0  0
   10.2542    5.7793   -1.8773 H   0  0  0  0  0  0  0  0  0  0  0  0
    9.8120    6.7492    1.2539 H   0  0  0  0  0  0  0  0  0  0  0  0
    8.5448    9.1670    1.8845 H   0  0  0  0  0  0  0  0  0  0  0  0
    8.9660   11.0765   -0.3423 H   0  0  0  0  0  0  0  0  0  0  0  0
    8.7854   10.2525   -1.9422 H   0  0  0  0  0  0  0  0  0  0  0  0
   10.1182    9.8057   -0.8386 H   0  0  0  0  0  0  0  0  0  0  0  0
    6.1709    1.6020   -2.2134 H   0  0  0  0  0  0  0  0  0  0  0  0
    7.5425    2.6303   -1.9303 H   0  0  0  0  0  0  0  0  0  0  0  0
    6.7621    4.1567   -3.8504 H   0  0  0  0  0  0  0  0  0  0  0  0
    5.3357    3.2138   -4.0165 H   0  0  0  0  0  0  0  0  0  0  0  0
    8.2362    2.2945   -4.4236 H   0  0  0  0  0  0  0  0  0  0  0  0
    7.0863    2.6363   -5.7148 H   0  0  0  0  0  0  0  0  0  0  0  0
    5.1575    1.0990   -6.0477 H   0  0  0  0  0  0  0  0  0  0  0  0
    4.6721    1.3199   -4.3677 H   0  0  0  0  0  0  0  0  0  0  0  0
    3.7570   -0.7483   -5.1297 H   0  0  0  0  0  0  0  0  0  0  0  0
    4.9096   -1.0164   -3.8335 H   0  0  0  0  0  0  0  0  0  0  0  0
    5.3503   -2.6818   -5.5635 H   0  0  0  0  0  0  0  0  0  0  0  0
    3.3520   -1.8477   -7.0356 H   0  0  0  0  0  0  0  0  0  0  0  0
    3.8804   -1.3538   -8.6159 H   0  0  0  0  0  0  0  0  0  0  0  0
    7.7589   -2.0875   -6.0709 H   0  0  0  0  0  0  0  0  0  0  0  0
    7.2933   -1.8675   -4.3883 H   0  0  0  0  0  0  0  0  0  0  0  0
    7.6262    0.3364   -6.4901 H   0  0  0  0  0  0  0  0  0  0  0  0
    8.6157    0.0224   -5.0686 H   0  0  0  0  0  0  0  0  0  0  0  0
    4.3439    0.8554   -1.2747 H   0  0  0  0  0  0  0  0  0  0  0  0
    5.6626    8.0745    2.7749 H   0  0  0  0  0  0  0  0  0  0  0  0
  1  2  1  0  0  0  0
  1 41  1  0  0  0  0
  1 42  1  0  0  0  0
  1 43  1  0  0  0  0
  2  3  1  0  0  0  0
  3  4  1  0  0  0  0
  3 35  2  0  0  0  0
  4  5  2  0  0  0  0
  4 44  1  0  0  0  0
  5  6  1  0  0  0  0
  5 45  1  0  0  0  0
  6  7  1  0  0  0  0
  6 34  2  0  0  0  0
  7  8  1  0  0  0  0
  7 20  2  0  0  0  0
  8  9  2  0  0  0  0
  8 39  1  0  0  0  0
  9 10  1  0  0  0  0
  9 36  1  0  0  0  0
 10 11  1  0  0  0  0
 10 19  2  0  0  0  0
 11 12  2  0  0  0  0
 11 20  1  0  0  0  0
 12 13  1  0  0  0  0
 12 46  1  0  0  0  0
 13 14  2  0  0  0  0
 13 47  1  0  0  0  0
 14 15  1  0  0  0  0
 14 19  1  0  0  0  0
 15 16  2  0  0  0  0
 15 48  1  0  0  0  0
 16 17  1  0  0  0  0
 16 49  1  0  0  0  0
 17 18  1  0  0  0  0
 17 19  1  0  0  0  0
 18 50  1  0  0  0  0
 18 51  1  0  0  0  0
 18 52  1  0  0  0  0
 20 21  1  0  0  0  0
 21 22  1  0  0  0  0
 21 34  1  0  0  0  0
 22 23  1  0  0  0  0
 22 53  1  0  0  0  0
 22 54  1  0  0  0  0
 23 24  1  0  0  0  0
 23 55  1  0  0  0  0
 23 56  1  0  0  0  0
 24 25  1  0  0  0  0
 24 57  1  0  0  0  0
 24 58  1  0  0  0  0
 25 26  1  0  0  0  0
 25 33  1  0  0  0  0
 26 27  1  0  0  0  0
 26 59  1  0  0  0  0
 26 60  1  0  0  0  0
 27 28  1  0  0  0  0
 27 61  1  0  0  0  0
 27 62  1  0  0  0  0
 28 29  1  0  0  0  0
 28 32  1  0  0  0  0
 28 63  1  0  0  0  0
 29 30  1  0  0  0  0
 29 31  2  0  0  0  0
 30 64  1  0  0  0  0
 30 65  1  0  0  0  0
 32 33  1  0  0  0  0
 32 66  1  0  0  0  0
 32 67  1  0  0  0  0
 33 68  1  0  0  0  0
 33 69  1  0  0  0  0
 34 35  1  0  0  0  0
 35 70  1  0  0  0  0
 36 37  2  0  0  0  0
 36 38  1  0  0  0  0
 38 39  1  0  0  0  0
 38 71  1  0  0  0  0
 39 40  2  0  0  0  0
M  END
$$$$
