MODEL 1
REMARK VINA RESULT:    -9.423      0.000      0.000
REMARK INTER + INTRA:         -10.484
REMARK INTER:                 -10.250
REMARK INTRA:                  -0.235
REMARK UNBOUND:                -0.235
REMARK  Name = 
REMARK  2 active torsions:
REMARK  status: ('A' for Active; 'I' for Inactive)
REMARK    1  A    between atoms: C_30  and  C_31
REMARK    2  A    between atoms: C_31  and  O_32
REMARK                            x       y       z     vdW  Elec       q    Type
REMARK                         _______ _______ _______ _____ _____    ______ ____
ROOT
ATOM      1  O   UNL     1     -11.093  -2.804  16.617  0.00  0.00    +0.000 OA
ATOM      2  C   UNL     1     -11.108  -1.948  17.491  0.00  0.00    +0.000 C 
ATOM      3  N   UNL     1     -11.866  -0.805  17.401  0.00  0.00    +0.000 N 
ATOM      4  C   UNL     1     -11.775   0.081  18.446  0.00  0.00    +0.000 C 
ATOM      5  O   UNL     1     -12.388   1.139  18.473  0.00  0.00    +0.000 OA
ATOM      6  C   UNL     1     -10.859  -0.563  19.324  0.00  0.00    +0.000 A 
ATOM      7  C   UNL     1     -10.457  -1.793  18.746  0.00  0.00    +0.000 A 
ATOM      8  C   UNL     1      -9.549  -2.530  19.537  0.00  0.00    +0.000 A 
ATOM      9  C   UNL     1      -9.038  -3.834  19.289  0.00  0.00    +0.000 A 
ATOM     10  C   UNL     1      -9.192  -4.797  18.266  0.00  0.00    +0.000 A 
ATOM     11  C   UNL     1      -8.561  -6.043  18.348  0.00  0.00    +0.000 A 
ATOM     12  C   UNL     1      -7.772  -6.368  19.441  0.00  0.00    +0.000 A 
ATOM     13  C   UNL     1      -7.579  -5.458  20.479  0.00  0.00    +0.000 A 
ATOM     14  C   UNL     1      -8.196  -4.192  20.411  0.00  0.00    +0.000 A 
ATOM     15  N   UNL     1      -8.134  -3.143  21.346  0.00  0.00    +0.000 N 
ATOM     16  C   UNL     1      -8.973  -2.240  20.777  0.00  0.00    +0.000 A 
ATOM     17  C   UNL     1      -9.364  -1.040  21.342  0.00  0.00    +0.000 A 
ATOM     18  C   UNL     1     -10.277  -0.299  20.582  0.00  0.00    +0.000 A 
ATOM     19  C   UNL     1     -10.551   0.784  21.458  0.00  0.00    +0.000 A 
ATOM     20  C   UNL     1     -11.408   1.909  21.428  0.00  0.00    +0.000 A 
ATOM     21  C   UNL     1     -11.480   2.792  22.512  0.00  0.00    +0.000 A 
ATOM     22  C   UNL     1     -10.697   2.595  23.639  0.00  0.00    +0.000 A 
ATOM     23  C   UNL     1      -9.821   1.514  23.719  0.00  0.00    +0.000 A 
ATOM     24  C   UNL     1      -9.747   0.600  22.649  0.00  0.00    +0.000 A 
ATOM     25  N   UNL     1      -8.979  -0.574  22.556  0.00  0.00    +0.000 N 
ATOM     26  C   UNL     1      -8.121  -1.157  23.555  0.00  0.00    +0.000 C 
ATOM     27  O   UNL     1      -7.020  -1.788  22.892  0.00  0.00    +0.000 OA
ATOM     28  C   UNL     1      -7.449  -3.125  22.617  0.00  0.00    +0.000 C 
ATOM     29  C   UNL     1      -8.354  -3.547  23.763  0.00  0.00    +0.000 C 
ATOM     30  C   UNL     1      -8.748  -2.236  24.433  0.00  0.00    +0.000 C 
ATOM     31  H   UNL     1     -12.442  -0.617  16.597  0.00  0.00    +0.000 HD
ATOM     32  H   UNL     1      -9.810  -4.595  17.398  0.00  0.00    +0.000 HD
ATOM     33  H   UNL     1      -8.698  -6.766  17.546  0.00  0.00    +0.000 HD
ATOM     34  H   UNL     1      -7.298  -7.346  19.492  0.00  0.00    +0.000 HD
ATOM     35  H   UNL     1      -6.962  -5.739  21.326  0.00  0.00    +0.000 HD
ATOM     36  H   UNL     1     -12.043   2.105  20.569  0.00  0.00    +0.000 HD
ATOM     37  H   UNL     1     -12.161   3.639  22.467  0.00  0.00    +0.000 HD
ATOM     38  H   UNL     1     -10.772   3.289  24.473  0.00  0.00    +0.000 HD
ATOM     39  H   UNL     1      -9.216   1.388  24.613  0.00  0.00    +0.000 HD
ATOM     40  H   UNL     1      -7.713  -0.341  24.160  0.00  0.00    +0.000 HD
ATOM     41  H   UNL     1      -6.563  -3.760  22.534  0.00  0.00    +0.000 HD
ATOM     42  H   UNL     1      -7.786  -4.157  24.476  0.00  0.00    +0.000 HD
ATOM     43  H   UNL     1      -9.205  -4.152  23.433  0.00  0.00    +0.000 HD
ATOM     44  H   UNL     1      -8.232  -2.220  25.403  0.00  0.00    +0.000 HD
ENDROOT
BRANCH  30  45
ATOM     45  C   UNL     1     -10.243  -2.116  24.696  0.00  0.00    +0.000 C 
ATOM     46  H   UNL     1     -10.468  -2.161  25.765  0.00  0.00    +0.000 HD
ATOM     47  H   UNL     1     -10.654  -1.184  24.295  0.00  0.00    +0.000 HD
BRANCH  45  48
ATOM     48  O   UNL     1     -10.929  -3.186  24.050  0.00  0.00    +0.000 OA
ATOM     49  H   UNL     1     -10.871  -3.975  24.615  0.00  0.00    +0.000 HD
ENDBRANCH  45  48
ENDBRANCH  30  45
TORSDOF 2
ENDMDL
MODEL 2
REMARK VINA RESULT:    -9.009      2.195      5.238
REMARK INTER + INTRA:         -10.034
REMARK INTER:                  -9.771
REMARK INTRA:                  -0.263
REMARK UNBOUND:                -0.235
REMARK  Name = 
REMARK  2 active torsions:
REMARK  status: ('A' for Active; 'I' for Inactive)
REMARK    1  A    between atoms: C_30  and  C_31
REMARK    2  A    between atoms: C_31  and  O_32
REMARK                            x       y       z     vdW  Elec       q    Type
REMARK                         _______ _______ _______ _____ _____    ______ ____
ROOT
ATOM      1  O   UNL     1      -5.362  -6.556  19.182  0.00  0.00    +0.000 OA
ATOM      2  C   UNL     1      -5.805  -5.632  19.851  0.00  0.00    +0.000 C 
ATOM      3  N   UNL     1      -5.096  -5.046  20.872  0.00  0.00    +0.000 N 
ATOM      4  C   UNL     1      -5.720  -4.031  21.555  0.00  0.00    +0.000 C 
ATOM      5  O   UNL     1      -5.198  -3.443  22.491  0.00  0.00    +0.000 OA
ATOM      6  C   UNL     1      -6.978  -3.938  20.896  0.00  0.00    +0.000 A 
ATOM      7  C   UNL     1      -7.029  -4.907  19.863  0.00  0.00    +0.000 A 
ATOM      8  C   UNL     1      -8.234  -4.903  19.130  0.00  0.00    +0.000 A 
ATOM      9  C   UNL     1      -8.557  -5.675  17.980  0.00  0.00    +0.000 A 
ATOM     10  C   UNL     1      -7.894  -6.658  17.210  0.00  0.00    +0.000 A 
ATOM     11  C   UNL     1      -8.494  -7.209  16.072  0.00  0.00    +0.000 A 
ATOM     12  C   UNL     1      -9.755  -6.799  15.667  0.00  0.00    +0.000 A 
ATOM     13  C   UNL     1     -10.460  -5.837  16.388  0.00  0.00    +0.000 A 
ATOM     14  C   UNL     1      -9.879  -5.278  17.545  0.00  0.00    +0.000 A 
ATOM     15  N   UNL     1     -10.416  -4.300  18.401  0.00  0.00    +0.000 N 
ATOM     16  C   UNL     1      -9.384  -4.119  19.266  0.00  0.00    +0.000 A 
ATOM     17  C   UNL     1      -9.337  -3.173  20.273  0.00  0.00    +0.000 A 
ATOM     18  C   UNL     1      -8.143  -3.148  21.004  0.00  0.00    +0.000 A 
ATOM     19  C   UNL     1      -8.364  -2.036  21.857  0.00  0.00    +0.000 A 
ATOM     20  C   UNL     1      -7.605  -1.353  22.835  0.00  0.00    +0.000 A 
ATOM     21  C   UNL     1      -8.113  -0.221  23.484  0.00  0.00    +0.000 A 
ATOM     22  C   UNL     1      -9.384   0.250  23.196  0.00  0.00    +0.000 A 
ATOM     23  C   UNL     1     -10.187  -0.393  22.255  0.00  0.00    +0.000 A 
ATOM     24  C   UNL     1      -9.688  -1.521  21.573  0.00  0.00    +0.000 A 
ATOM     25  N   UNL     1     -10.308  -2.270  20.557  0.00  0.00    +0.000 N 
ATOM     26  C   UNL     1     -11.581  -2.034  19.929  0.00  0.00    +0.000 C 
ATOM     27  O   UNL     1     -12.161  -3.299  19.593  0.00  0.00    +0.000 OA
ATOM     28  C   UNL     1     -11.679  -3.610  18.282  0.00  0.00    +0.000 C 
ATOM     29  C   UNL     1     -11.547  -2.295  17.532  0.00  0.00    +0.000 C 
ATOM     30  C   UNL     1     -11.551  -1.236  18.628  0.00  0.00    +0.000 C 
ATOM     31  H   UNL     1      -4.173  -5.361  21.121  0.00  0.00    +0.000 HD
ATOM     32  H   UNL     1      -6.900  -7.000  17.478  0.00  0.00    +0.000 HD
ATOM     33  H   UNL     1      -7.959  -7.962  15.498  0.00  0.00    +0.000 HD
ATOM     34  H   UNL     1     -10.201  -7.232  14.774  0.00  0.00    +0.000 HD
ATOM     35  H   UNL     1     -11.443  -5.530  16.046  0.00  0.00    +0.000 HD
ATOM     36  H   UNL     1      -6.603  -1.680  23.094  0.00  0.00    +0.000 HD
ATOM     37  H   UNL     1      -7.498   0.295  24.219  0.00  0.00    +0.000 HD
ATOM     38  H   UNL     1      -9.759   1.134  23.707  0.00  0.00    +0.000 HD
ATOM     39  H   UNL     1     -11.181  -0.004  22.053  0.00  0.00    +0.000 HD
ATOM     40  H   UNL     1     -12.235  -1.562  20.669  0.00  0.00    +0.000 HD
ATOM     41  H   UNL     1     -12.392  -4.289  17.806  0.00  0.00    +0.000 HD
ATOM     42  H   UNL     1     -12.422  -2.148  16.889  0.00  0.00    +0.000 HD
ATOM     43  H   UNL     1     -10.665  -2.261  16.884  0.00  0.00    +0.000 HD
ATOM     44  H   UNL     1     -12.510  -0.705  18.538  0.00  0.00    +0.000 HD
ENDROOT
BRANCH  30  45
ATOM     45  C   UNL     1     -10.434  -0.211  18.484  0.00  0.00    +0.000 C 
ATOM     46  H   UNL     1     -10.799   0.724  18.050  0.00  0.00    +0.000 HD
ATOM     47  H   UNL     1      -9.962   0.015  19.445  0.00  0.00    +0.000 HD
BRANCH  45  48
ATOM     48  O   UNL     1      -9.416  -0.731  17.632  0.00  0.00    +0.000 OA
ATOM     49  H   UNL     1      -8.953  -1.443  18.105  0.00  0.00    +0.000 HD
ENDBRANCH  45  48
ENDBRANCH  30  45
TORSDOF 2
ENDMDL
MODEL 3
REMARK VINA RESULT:    -8.900      2.511      6.321
REMARK INTER + INTRA:          -9.915
REMARK INTER:                  -9.794
REMARK INTRA:                  -0.121
REMARK UNBOUND:                -0.235
REMARK  Name = 
REMARK  2 active torsions:
REMARK  status: ('A' for Active; 'I' for Inactive)
REMARK    1  A    between atoms: C_30  and  C_31
REMARK    2  A    between atoms: C_31  and  O_32
REMARK                            x       y       z     vdW  Elec       q    Type
REMARK                         _______ _______ _______ _____ _____    ______ ____
ROOT
ATOM      1  O   UNL     1      -8.118  -2.905  21.671  0.00  0.00    +0.000 OA
ATOM      2  C   UNL     1      -8.704  -2.255  20.816  0.00  0.00    +0.000 C 
ATOM      3  N   UNL     1      -8.927  -0.904  20.932  0.00  0.00    +0.000 N 
ATOM      4  C   UNL     1      -9.615  -0.301  19.907  0.00  0.00    +0.000 C 
ATOM      5  O   UNL     1      -9.887   0.892  19.903  0.00  0.00    +0.000 OA
ATOM      6  C   UNL     1      -9.861  -1.383  19.016  0.00  0.00    +0.000 A 
ATOM      7  C   UNL     1      -9.308  -2.566  19.567  0.00  0.00    +0.000 A 
ATOM      8  C   UNL     1      -9.483  -3.711  18.761  0.00  0.00    +0.000 A 
ATOM      9  C   UNL     1      -8.965  -5.017  18.979  0.00  0.00    +0.000 A 
ATOM     10  C   UNL     1      -8.180  -5.634  19.980  0.00  0.00    +0.000 A 
ATOM     11  C   UNL     1      -7.794  -6.975  19.870  0.00  0.00    +0.000 A 
ATOM     12  C   UNL     1      -8.168  -7.733  18.771  0.00  0.00    +0.000 A 
ATOM     13  C   UNL     1      -8.946  -7.182  17.755  0.00  0.00    +0.000 A 
ATOM     14  C   UNL     1      -9.356  -5.836  17.850  0.00  0.00    +0.000 A 
ATOM     15  N   UNL     1     -10.131  -5.096  16.940  0.00  0.00    +0.000 N 
ATOM     16  C   UNL     1     -10.123  -3.872  17.528  0.00  0.00    +0.000 A 
ATOM     17  C   UNL     1     -10.664  -2.719  16.990  0.00  0.00    +0.000 A 
ATOM     18  C   UNL     1     -10.487  -1.567  17.765  0.00  0.00    +0.000 A 
ATOM     19  C   UNL     1     -11.039  -0.574  16.914  0.00  0.00    +0.000 A 
ATOM     20  C   UNL     1     -11.178   0.833  16.968  0.00  0.00    +0.000 A 
ATOM     21  C   UNL     1     -11.744   1.545  15.904  0.00  0.00    +0.000 A 
ATOM     22  C   UNL     1     -12.201   0.885  14.775  0.00  0.00    +0.000 A 
ATOM     23  C   UNL     1     -12.109  -0.502  14.671  0.00  0.00    +0.000 A 
ATOM     24  C   UNL     1     -11.522  -1.238  15.720  0.00  0.00    +0.000 A 
ATOM     25  N   UNL     1     -11.283  -2.621  15.787  0.00  0.00    +0.000 N 
ATOM     26  C   UNL     1     -11.531  -3.616  14.777  0.00  0.00    +0.000 C 
ATOM     27  O   UNL     1     -11.895  -4.839  15.427  0.00  0.00    +0.000 OA
ATOM     28  C   UNL     1     -10.667  -5.529  15.670  0.00  0.00    +0.000 C 
ATOM     29  C   UNL     1      -9.735  -5.204  14.514  0.00  0.00    +0.000 C 
ATOM     30  C   UNL     1     -10.351  -3.966  13.874  0.00  0.00    +0.000 C 
ATOM     31  H   UNL     1      -8.620  -0.386  21.738  0.00  0.00    +0.000 HD
ATOM     32  H   UNL     1      -7.850  -5.078  20.852  0.00  0.00    +0.000 HD
ATOM     33  H   UNL     1      -7.188  -7.422  20.656  0.00  0.00    +0.000 HD
ATOM     34  H   UNL     1      -7.850  -8.770  18.700  0.00  0.00    +0.000 HD
ATOM     35  H   UNL     1      -9.221  -7.795  16.903  0.00  0.00    +0.000 HD
ATOM     36  H   UNL     1     -10.832   1.396  17.830  0.00  0.00    +0.000 HD
ATOM     37  H   UNL     1     -11.821   2.628  15.968  0.00  0.00    +0.000 HD
ATOM     38  H   UNL     1     -12.633   1.457  13.956  0.00  0.00    +0.000 HD
ATOM     39  H   UNL     1     -12.480  -0.992  13.775  0.00  0.00    +0.000 HD
ATOM     40  H   UNL     1     -12.395  -3.288  14.192  0.00  0.00    +0.000 HD
ATOM     41  H   UNL     1     -10.881  -6.599  15.740  0.00  0.00    +0.000 HD
ATOM     42  H   UNL     1      -9.748  -6.026  13.789  0.00  0.00    +0.000 HD
ATOM     43  H   UNL     1      -8.695  -5.072  14.829  0.00  0.00    +0.000 HD
ATOM     44  H   UNL     1     -10.756  -4.290  12.905  0.00  0.00    +0.000 HD
ENDROOT
BRANCH  30  45
ATOM     45  C   UNL     1      -9.342  -2.855  13.611  0.00  0.00    +0.000 C 
ATOM     46  H   UNL     1      -9.599  -2.282  12.716  0.00  0.00    +0.000 HD
ATOM     47  H   UNL     1      -9.270  -2.162  14.455  0.00  0.00    +0.000 HD
BRANCH  45  48
ATOM     48  O   UNL     1      -8.048  -3.420  13.425  0.00  0.00    +0.000 OA
ATOM     49  H   UNL     1      -7.403  -2.696  13.353  0.00  0.00    +0.000 HD
ENDBRANCH  45  48
ENDBRANCH  30  45
TORSDOF 2
ENDMDL
MODEL 4
REMARK VINA RESULT:    -8.438      1.530      2.495
REMARK INTER + INTRA:          -9.413
REMARK INTER:                  -9.208
REMARK INTRA:                  -0.205
REMARK UNBOUND:                -0.235
REMARK  Name = 
REMARK  2 active torsions:
REMARK  status: ('A' for Active; 'I' for Inactive)
REMARK    1  A    between atoms: C_30  and  C_31
REMARK    2  A    between atoms: C_31  and  O_32
REMARK                            x       y       z     vdW  Elec       q    Type
REMARK                         _______ _______ _______ _____ _____    ______ ____
ROOT
ATOM      1  O   UNL     1     -12.640   0.836  17.840  0.00  0.00    +0.000 OA
ATOM      2  C   UNL     1     -12.239   1.198  18.937  0.00  0.00    +0.000 C 
ATOM      3  N   UNL     1     -12.668   2.355  19.542  0.00  0.00    +0.000 N 
ATOM      4  C   UNL     1     -12.122   2.652  20.766  0.00  0.00    +0.000 C 
ATOM      5  O   UNL     1     -12.413   3.661  21.394  0.00  0.00    +0.000 OA
ATOM      6  C   UNL     1     -11.241   1.557  20.991  0.00  0.00    +0.000 A 
ATOM      7  C   UNL     1     -11.313   0.676  19.883  0.00  0.00    +0.000 A 
ATOM      8  C   UNL     1     -10.484  -0.461  19.998  0.00  0.00    +0.000 A 
ATOM      9  C   UNL     1     -10.402  -1.572  19.114  0.00  0.00    +0.000 A 
ATOM     10  C   UNL     1     -11.023  -1.938  17.898  0.00  0.00    +0.000 A 
ATOM     11  C   UNL     1     -10.742  -3.164  17.285  0.00  0.00    +0.000 A 
ATOM     12  C   UNL     1      -9.849  -4.056  17.860  0.00  0.00    +0.000 A 
ATOM     13  C   UNL     1      -9.203  -3.749  19.056  0.00  0.00    +0.000 A 
ATOM     14  C   UNL     1      -9.462  -2.514  19.685  0.00  0.00    +0.000 A 
ATOM     15  N   UNL     1      -8.925  -2.020  20.887  0.00  0.00    +0.000 N 
ATOM     16  C   UNL     1      -9.598  -0.846  21.008  0.00  0.00    +0.000 A 
ATOM     17  C   UNL     1      -9.525   0.013  22.089  0.00  0.00    +0.000 A 
ATOM     18  C   UNL     1     -10.352   1.139  22.004  0.00  0.00    +0.000 A 
ATOM     19  C   UNL     1     -10.134   1.739  23.271  0.00  0.00    +0.000 A 
ATOM     20  C   UNL     1     -10.648   2.868  23.952  0.00  0.00    +0.000 A 
ATOM     21  C   UNL     1     -10.247   3.168  25.259  0.00  0.00    +0.000 A 
ATOM     22  C   UNL     1      -9.320   2.374  25.916  0.00  0.00    +0.000 A 
ATOM     23  C   UNL     1      -8.764   1.259  25.290  0.00  0.00    +0.000 A 
ATOM     24  C   UNL     1      -9.169   0.925  23.982  0.00  0.00    +0.000 A 
ATOM     25  N   UNL     1      -8.777  -0.179  23.203  0.00  0.00    +0.000 N 
ATOM     26  C   UNL     1      -7.909  -1.265  23.574  0.00  0.00    +0.000 C 
ATOM     27  O   UNL     1      -7.185  -1.682  22.411  0.00  0.00    +0.000 OA
ATOM     28  C   UNL     1      -8.000  -2.674  21.783  0.00  0.00    +0.000 C 
ATOM     29  C   UNL     1      -8.715  -3.432  22.890  0.00  0.00    +0.000 C 
ATOM     30  C   UNL     1      -8.593  -2.521  24.106  0.00  0.00    +0.000 C 
ATOM     31  H   UNL     1     -13.334   2.965  19.098  0.00  0.00    +0.000 HD
ATOM     32  H   UNL     1     -11.739  -1.279  17.417  0.00  0.00    +0.000 HD
ATOM     33  H   UNL     1     -11.235  -3.420  16.350  0.00  0.00    +0.000 HD
ATOM     34  H   UNL     1      -9.652  -5.009  17.374  0.00  0.00    +0.000 HD
ATOM     35  H   UNL     1      -8.514  -4.467  19.489  0.00  0.00    +0.000 HD
ATOM     36  H   UNL     1     -11.379   3.518  23.482  0.00  0.00    +0.000 HD
ATOM     37  H   UNL     1     -10.674   4.032  25.763  0.00  0.00    +0.000 HD
ATOM     38  H   UNL     1      -9.026   2.621  26.934  0.00  0.00    +0.000 HD
ATOM     39  H   UNL     1      -8.036   0.658  25.828  0.00  0.00    +0.000 HD
ATOM     40  H   UNL     1      -7.179  -0.877  24.292  0.00  0.00    +0.000 HD
ATOM     41  H   UNL     1      -7.354  -3.324  21.187  0.00  0.00    +0.000 HD
ATOM     42  H   UNL     1      -8.187  -4.372  23.092  0.00  0.00    +0.000 HD
ATOM     43  H   UNL     1      -9.746  -3.694  22.631  0.00  0.00    +0.000 HD
ATOM     44  H   UNL     1      -7.894  -3.019  24.793  0.00  0.00    +0.000 HD
ENDROOT
BRANCH  30  45
ATOM     45  C   UNL     1      -9.910  -2.319  24.844  0.00  0.00    +0.000 C 
ATOM     46  H   UNL     1      -9.859  -2.697  25.869  0.00  0.00    +0.000 HD
ATOM     47  H   UNL     1     -10.199  -1.264  24.880  0.00  0.00    +0.000 HD
BRANCH  45  48
ATOM     48  O   UNL     1     -10.951  -3.013  24.163  0.00  0.00    +0.000 OA
ATOM     49  H   UNL     1     -11.610  -3.300  24.818  0.00  0.00    +0.000 HD
ENDBRANCH  45  48
ENDBRANCH  30  45
TORSDOF 2
ENDMDL
MODEL 5
REMARK VINA RESULT:    -8.265      2.790      6.222
REMARK INTER + INTRA:          -9.225
REMARK INTER:                  -8.992
REMARK INTRA:                  -0.233
REMARK UNBOUND:                -0.235
REMARK  Name = 
REMARK  2 active torsions:
REMARK  status: ('A' for Active; 'I' for Inactive)
REMARK    1  A    between atoms: C_30  and  C_31
REMARK    2  A    between atoms: C_31  and  O_32
REMARK                            x       y       z     vdW  Elec       q    Type
REMARK                         _______ _______ _______ _____ _____    ______ ____
ROOT
ATOM      1  O   UNL     1      -7.018  -6.959  20.250  0.00  0.00    +0.000 OA
ATOM      2  C   UNL     1      -7.467  -5.823  20.173  0.00  0.00    +0.000 C 
ATOM      3  N   UNL     1      -7.013  -4.789  20.956  0.00  0.00    +0.000 N 
ATOM      4  C   UNL     1      -7.618  -3.569  20.780  0.00  0.00    +0.000 C 
ATOM      5  O   UNL     1      -7.311  -2.577  21.428  0.00  0.00    +0.000 OA
ATOM      6  C   UNL     1      -8.572  -3.836  19.758  0.00  0.00    +0.000 A 
ATOM      7  C   UNL     1      -8.479  -5.202  19.390  0.00  0.00    +0.000 A 
ATOM      8  C   UNL     1      -9.377  -5.585  18.370  0.00  0.00    +0.000 A 
ATOM      9  C   UNL     1      -9.465  -6.843  17.715  0.00  0.00    +0.000 A 
ATOM     10  C   UNL     1      -8.790  -8.081  17.819  0.00  0.00    +0.000 A 
ATOM     11  C   UNL     1      -9.100  -9.146  16.966  0.00  0.00    +0.000 A 
ATOM     12  C   UNL     1     -10.076  -9.011  15.990  0.00  0.00    +0.000 A 
ATOM     13  C   UNL     1     -10.779  -7.817  15.843  0.00  0.00    +0.000 A 
ATOM     14  C   UNL     1     -10.491  -6.735  16.699  0.00  0.00    +0.000 A 
ATOM     15  N   UNL     1     -11.076  -5.456  16.712  0.00  0.00    +0.000 N 
ATOM     16  C   UNL     1     -10.346  -4.848  17.683  0.00  0.00    +0.000 A 
ATOM     17  C   UNL     1     -10.439  -3.516  18.042  0.00  0.00    +0.000 A 
ATOM     18  C   UNL     1      -9.546  -3.110  19.041  0.00  0.00    +0.000 A 
ATOM     19  C   UNL     1      -9.811  -1.717  19.099  0.00  0.00    +0.000 A 
ATOM     20  C   UNL     1      -9.278  -0.622  19.818  0.00  0.00    +0.000 A 
ATOM     21  C   UNL     1      -9.744   0.681  19.601  0.00  0.00    +0.000 A 
ATOM     22  C   UNL     1     -10.754   0.928  18.685  0.00  0.00    +0.000 A 
ATOM     23  C   UNL     1     -11.331  -0.114  17.960  0.00  0.00    +0.000 A 
ATOM     24  C   UNL     1     -10.863  -1.430  18.146  0.00  0.00    +0.000 A 
ATOM     25  N   UNL     1     -11.266  -2.601  17.479  0.00  0.00    +0.000 N 
ATOM     26  C   UNL     1     -12.216  -2.730  16.406  0.00  0.00    +0.000 C 
ATOM     27  O   UNL     1     -12.887  -3.988  16.546  0.00  0.00    +0.000 OA
ATOM     28  C   UNL     1     -12.091  -4.934  15.828  0.00  0.00    +0.000 C 
ATOM     29  C   UNL     1     -11.493  -4.201  14.638  0.00  0.00    +0.000 C 
ATOM     30  C   UNL     1     -11.640  -2.726  14.993  0.00  0.00    +0.000 C 
ATOM     31  H   UNL     1      -6.286  -4.925  21.639  0.00  0.00    +0.000 HD
ATOM     32  H   UNL     1      -8.008  -8.230  18.557  0.00  0.00    +0.000 HD
ATOM     33  H   UNL     1      -8.563 -10.086  17.067  0.00  0.00    +0.000 HD
ATOM     34  H   UNL     1     -10.296  -9.847  15.329  0.00  0.00    +0.000 HD
ATOM     35  H   UNL     1     -11.534  -7.736  15.067  0.00  0.00    +0.000 HD
ATOM     36  H   UNL     1      -8.483  -0.763  20.543  0.00  0.00    +0.000 HD
ATOM     37  H   UNL     1      -9.302   1.505  20.156  0.00  0.00    +0.000 HD
ATOM     38  H   UNL     1     -11.098   1.948  18.526  0.00  0.00    +0.000 HD
ATOM     39  H   UNL     1     -12.125   0.110  17.252  0.00  0.00    +0.000 HD
ATOM     40  H   UNL     1     -12.968  -1.944  16.530  0.00  0.00    +0.000 HD
ATOM     41  H   UNL     1     -12.734  -5.763  15.522  0.00  0.00    +0.000 HD
ATOM     42  H   UNL     1     -12.084  -4.414  13.739  0.00  0.00    +0.000 HD
ATOM     43  H   UNL     1     -10.463  -4.506  14.422  0.00  0.00    +0.000 HD
ATOM     44  H   UNL     1     -12.408  -2.323  14.318  0.00  0.00    +0.000 HD
ENDROOT
BRANCH  30  45
ATOM     45  C   UNL     1     -10.363  -1.923  14.781  0.00  0.00    +0.000 C 
ATOM     46  H   UNL     1     -10.465  -1.219  13.950  0.00  0.00    +0.000 HD
ATOM     47  H   UNL     1     -10.082  -1.360  15.677  0.00  0.00    +0.000 HD
BRANCH  45  48
ATOM     48  O   UNL     1      -9.285  -2.807  14.489  0.00  0.00    +0.000 OA
ATOM     49  H   UNL     1      -9.385  -3.605  15.035  0.00  0.00    +0.000 HD
ENDBRANCH  45  48
ENDBRANCH  30  45
TORSDOF 2
ENDMDL
MODEL 6
REMARK VINA RESULT:    -8.191      1.927      2.706
REMARK INTER + INTRA:          -9.144
REMARK INTER:                  -8.888
REMARK INTRA:                  -0.256
REMARK UNBOUND:                -0.235
REMARK  Name = 
REMARK  2 active torsions:
REMARK  status: ('A' for Active; 'I' for Inactive)
REMARK    1  A    between atoms: C_30  and  C_31
REMARK    2  A    between atoms: C_31  and  O_32
REMARK                            x       y       z     vdW  Elec       q    Type
REMARK                         _______ _______ _______ _____ _____    ______ ____
ROOT
ATOM      1  O   UNL     1     -10.712  -5.168  15.346  0.00  0.00    +0.000 OA
ATOM      2  C   UNL     1     -10.999  -4.060  15.781  0.00  0.00    +0.000 C 
ATOM      3  N   UNL     1     -11.831  -3.193  15.115  0.00  0.00    +0.000 N 
ATOM      4  C   UNL     1     -12.055  -1.974  15.706  0.00  0.00    +0.000 C 
ATOM      5  O   UNL     1     -12.764  -1.113  15.204  0.00  0.00    +0.000 OA
ATOM      6  C   UNL     1     -11.286  -2.060  16.901  0.00  0.00    +0.000 A 
ATOM      7  C   UNL     1     -10.648  -3.324  16.946  0.00  0.00    +0.000 A 
ATOM      8  C   UNL     1      -9.859  -3.529  18.099  0.00  0.00    +0.000 A 
ATOM      9  C   UNL     1      -9.178  -4.715  18.488  0.00  0.00    +0.000 A 
ATOM     10  C   UNL     1      -9.012  -6.007  17.939  0.00  0.00    +0.000 A 
ATOM     11  C   UNL     1      -8.291  -6.994  18.619  0.00  0.00    +0.000 A 
ATOM     12  C   UNL     1      -7.723  -6.730  19.857  0.00  0.00    +0.000 A 
ATOM     13  C   UNL     1      -7.849  -5.474  20.447  0.00  0.00    +0.000 A 
ATOM     14  C   UNL     1      -8.561  -4.462  19.774  0.00  0.00    +0.000 A 
ATOM     15  N   UNL     1      -8.806  -3.142  20.195  0.00  0.00    +0.000 N 
ATOM     16  C   UNL     1      -9.593  -2.690  19.184  0.00  0.00    +0.000 A 
ATOM     17  C   UNL     1     -10.213  -1.455  19.141  0.00  0.00    +0.000 A 
ATOM     18  C   UNL     1     -11.014  -1.236  18.015  0.00  0.00    +0.000 A 
ATOM     19  C   UNL     1     -11.576   0.032  18.316  0.00  0.00    +0.000 A 
ATOM     20  C   UNL     1     -12.516   0.888  17.697  0.00  0.00    +0.000 A 
ATOM     21  C   UNL     1     -12.906   2.090  18.300  0.00  0.00    +0.000 A 
ATOM     22  C   UNL     1     -12.365   2.481  19.515  0.00  0.00    +0.000 A 
ATOM     23  C   UNL     1     -11.420   1.688  20.164  0.00  0.00    +0.000 A 
ATOM     24  C   UNL     1     -11.029   0.463  19.587  0.00  0.00    +0.000 A 
ATOM     25  N   UNL     1     -10.144  -0.501  20.102  0.00  0.00    +0.000 N 
ATOM     26  C   UNL     1      -9.464  -0.495  21.371  0.00  0.00    +0.000 C 
ATOM     27  O   UNL     1      -8.189  -1.125  21.202  0.00  0.00    +0.000 OA
ATOM     28  C   UNL     1      -8.412  -2.518  21.436  0.00  0.00    +0.000 C 
ATOM     29  C   UNL     1      -9.492  -2.625  22.500  0.00  0.00    +0.000 C 
ATOM     30  C   UNL     1     -10.151  -1.250  22.505  0.00  0.00    +0.000 C 
ATOM     31  H   UNL     1     -12.240  -3.432  14.227  0.00  0.00    +0.000 HD
ATOM     32  H   UNL     1      -9.450  -6.265  16.979  0.00  0.00    +0.000 HD
ATOM     33  H   UNL     1      -8.181  -7.979  18.172  0.00  0.00    +0.000 HD
ATOM     34  H   UNL     1      -7.174  -7.514  20.375  0.00  0.00    +0.000 HD
ATOM     35  H   UNL     1      -7.400  -5.296  21.420  0.00  0.00    +0.000 HD
ATOM     36  H   UNL     1     -12.971   0.625  16.747  0.00  0.00    +0.000 HD
ATOM     37  H   UNL     1     -13.644   2.720  17.808  0.00  0.00    +0.000 HD
ATOM     38  H   UNL     1     -12.685   3.416  19.970  0.00  0.00    +0.000 HD
ATOM     39  H   UNL     1     -11.011   2.022  21.113  0.00  0.00    +0.000 HD
ATOM     40  H   UNL     1      -9.279   0.549  21.644  0.00  0.00    +0.000 HD
ATOM     41  H   UNL     1      -7.469  -2.968  21.758  0.00  0.00    +0.000 HD
ATOM     42  H   UNL     1      -9.030  -2.804  23.478  0.00  0.00    +0.000 HD
ATOM     43  H   UNL     1     -10.189  -3.451  22.320  0.00  0.00    +0.000 HD
ATOM     44  H   UNL     1      -9.857  -0.773  23.451  0.00  0.00    +0.000 HD
ENDROOT
BRANCH  30  45
ATOM     45  C   UNL     1     -11.672  -1.307  22.463  0.00  0.00    +0.000 C 
ATOM     46  H   UNL     1     -12.107  -1.200  23.461  0.00  0.00    +0.000 HD
ATOM     47  H   UNL     1     -12.091  -0.527  21.819  0.00  0.00    +0.000 HD
BRANCH  45  48
ATOM     48  O   UNL     1     -12.088  -2.559  21.925  0.00  0.00    +0.000 OA
ATOM     49  H   UNL     1     -12.355  -3.136  22.661  0.00  0.00    +0.000 HD
ENDBRANCH  45  48
ENDBRANCH  30  45
TORSDOF 2
ENDMDL
MODEL 7
REMARK VINA RESULT:    -8.161      2.631      5.916
REMARK INTER + INTRA:          -9.112
REMARK INTER:                  -9.031
REMARK INTRA:                  -0.081
REMARK UNBOUND:                -0.235
REMARK  Name = 
REMARK  2 active torsions:
REMARK  status: ('A' for Active; 'I' for Inactive)
REMARK    1  A    between atoms: C_30  and  C_31
REMARK    2  A    between atoms: C_31  and  O_32
REMARK                            x       y       z     vdW  Elec       q    Type
REMARK                         _______ _______ _______ _____ _____    ______ ____
ROOT
ATOM      1  O   UNL     1      -9.821  -6.868  15.862  0.00  0.00    +0.000 OA
ATOM      2  C   UNL     1      -9.533  -6.239  16.870  0.00  0.00    +0.000 C 
ATOM      3  N   UNL     1      -8.793  -6.776  17.897  0.00  0.00    +0.000 N 
ATOM      4  C   UNL     1      -8.557  -5.965  18.980  0.00  0.00    +0.000 C 
ATOM      5  O   UNL     1      -7.926  -6.335  19.960  0.00  0.00    +0.000 OA
ATOM      6  C   UNL     1      -9.211  -4.755  18.613  0.00  0.00    +0.000 A 
ATOM      7  C   UNL     1      -9.801  -4.921  17.334  0.00  0.00    +0.000 A 
ATOM      8  C   UNL     1     -10.474  -3.776  16.859  0.00  0.00    +0.000 A 
ATOM      9  C   UNL     1     -11.077  -3.586  15.586  0.00  0.00    +0.000 A 
ATOM     10  C   UNL     1     -11.249  -4.376  14.426  0.00  0.00    +0.000 A 
ATOM     11  C   UNL     1     -11.873  -3.858  13.286  0.00  0.00    +0.000 A 
ATOM     12  C   UNL     1     -12.334  -2.551  13.262  0.00  0.00    +0.000 A 
ATOM     13  C   UNL     1     -12.198  -1.725  14.376  0.00  0.00    +0.000 A 
ATOM     14  C   UNL     1     -11.583  -2.230  15.540  0.00  0.00    +0.000 A 
ATOM     15  N   UNL     1     -11.345  -1.566  16.757  0.00  0.00    +0.000 N 
ATOM     16  C   UNL     1     -10.669  -2.521  17.445  0.00  0.00    +0.000 A 
ATOM     17  C   UNL     1     -10.096  -2.358  18.693  0.00  0.00    +0.000 A 
ATOM     18  C   UNL     1      -9.408  -3.477  19.177  0.00  0.00    +0.000 A 
ATOM     19  C   UNL     1      -8.863  -2.966  20.384  0.00  0.00    +0.000 A 
ATOM     20  C   UNL     1      -8.012  -3.469  21.396  0.00  0.00    +0.000 A 
ATOM     21  C   UNL     1      -7.610  -2.664  22.468  0.00  0.00    +0.000 A 
ATOM     22  C   UNL     1      -8.051  -1.354  22.575  0.00  0.00    +0.000 A 
ATOM     23  C   UNL     1      -8.906  -0.808  21.619  0.00  0.00    +0.000 A 
ATOM     24  C   UNL     1      -9.307  -1.593  20.519  0.00  0.00    +0.000 A 
ATOM     25  N   UNL     1     -10.109  -1.218  19.427  0.00  0.00    +0.000 N 
ATOM     26  C   UNL     1     -10.671   0.076  19.139  0.00  0.00    +0.000 C 
ATOM     27  O   UNL     1     -11.934  -0.115  18.492  0.00  0.00    +0.000 OA
ATOM     28  C   UNL     1     -11.645  -0.194  17.094  0.00  0.00    +0.000 C 
ATOM     29  C   UNL     1     -10.470   0.733  16.828  0.00  0.00    +0.000 C 
ATOM     30  C   UNL     1      -9.860   0.969  18.205  0.00  0.00    +0.000 C 
ATOM     31  H   UNL     1      -8.459  -7.725  17.865  0.00  0.00    +0.000 HD
ATOM     32  H   UNL     1     -10.893  -5.401  14.391  0.00  0.00    +0.000 HD
ATOM     33  H   UNL     1     -11.991  -4.489  12.407  0.00  0.00    +0.000 HD
ATOM     34  H   UNL     1     -12.808  -2.163  12.363  0.00  0.00    +0.000 HD
ATOM     35  H   UNL     1     -12.562  -0.703  14.330  0.00  0.00    +0.000 HD
ATOM     36  H   UNL     1      -7.637  -4.487  21.355  0.00  0.00    +0.000 HD
ATOM     37  H   UNL     1      -6.940  -3.073  23.221  0.00  0.00    +0.000 HD
ATOM     38  H   UNL     1      -7.722  -0.743  23.413  0.00  0.00    +0.000 HD
ATOM     39  H   UNL     1      -9.239   0.220  21.731  0.00  0.00    +0.000 HD
ATOM     40  H   UNL     1     -10.866   0.573  20.094  0.00  0.00    +0.000 HD
ATOM     41  H   UNL     1     -12.539   0.103  16.540  0.00  0.00    +0.000 HD
ATOM     42  H   UNL     1     -10.835   1.686  16.430  0.00  0.00    +0.000 HD
ATOM     43  H   UNL     1      -9.765   0.328  16.093  0.00  0.00    +0.000 HD
ATOM     44  H   UNL     1     -10.082   2.014  18.463  0.00  0.00    +0.000 HD
ENDROOT
BRANCH  30  45
ATOM     45  C   UNL     1      -8.348   0.791  18.236  0.00  0.00    +0.000 C 
ATOM     46  H   UNL     1      -8.038   0.122  19.043  0.00  0.00    +0.000 HD
ATOM     47  H   UNL     1      -7.965   0.391  17.291  0.00  0.00    +0.000 HD
BRANCH  45  48
ATOM     48  O   UNL     1      -7.722   2.055  18.437  0.00  0.00    +0.000 OA
ATOM     49  H   UNL     1      -7.349   2.352  17.590  0.00  0.00    +0.000 HD
ENDBRANCH  45  48
ENDBRANCH  30  45
TORSDOF 2
ENDMDL
MODEL 8
REMARK VINA RESULT:    -7.819      1.848      5.185
REMARK INTER + INTRA:          -8.739
REMARK INTER:                  -8.502
REMARK INTRA:                  -0.236
REMARK UNBOUND:                -0.235
REMARK  Name = 
REMARK  2 active torsions:
REMARK  status: ('A' for Active; 'I' for Inactive)
REMARK    1  A    between atoms: C_30  and  C_31
REMARK    2  A    between atoms: C_31  and  O_32
REMARK                            x       y       z     vdW  Elec       q    Type
REMARK                         _______ _______ _______ _____ _____    ______ ____
ROOT
ATOM      1  O   UNL     1      -8.628  -4.324  19.479  0.00  0.00    +0.000 OA
ATOM      2  C   UNL     1      -8.697  -3.497  20.379  0.00  0.00    +0.000 C 
ATOM      3  N   UNL     1      -8.039  -3.643  21.577  0.00  0.00    +0.000 N 
ATOM      4  C   UNL     1      -8.219  -2.649  22.506  0.00  0.00    +0.000 C 
ATOM      5  O   UNL     1      -7.699  -2.675  23.613  0.00  0.00    +0.000 OA
ATOM      6  C   UNL     1      -9.087  -1.744  21.833  0.00  0.00    +0.000 A 
ATOM      7  C   UNL     1      -9.375  -2.257  20.544  0.00  0.00    +0.000 A 
ATOM      8  C   UNL     1     -10.226  -1.435  19.775  0.00  0.00    +0.000 A 
ATOM      9  C   UNL     1     -10.620  -1.615  18.421  0.00  0.00    +0.000 A 
ATOM     10  C   UNL     1     -10.372  -2.583  17.421  0.00  0.00    +0.000 A 
ATOM     11  C   UNL     1     -10.894  -2.438  16.131  0.00  0.00    +0.000 A 
ATOM     12  C   UNL     1     -11.666  -1.335  15.798  0.00  0.00    +0.000 A 
ATOM     13  C   UNL     1     -11.949  -0.350  16.742  0.00  0.00    +0.000 A 
ATOM     14  C   UNL     1     -11.442  -0.481  18.051  0.00  0.00    +0.000 A 
ATOM     15  N   UNL     1     -11.605   0.394  19.140  0.00  0.00    +0.000 N 
ATOM     16  C   UNL     1     -10.840  -0.216  20.080  0.00  0.00    +0.000 A 
ATOM     17  C   UNL     1     -10.561   0.285  21.338  0.00  0.00    +0.000 A 
ATOM     18  C   UNL     1      -9.705  -0.506  22.113  0.00  0.00    +0.000 A 
ATOM     19  C   UNL     1      -9.536   0.311  23.261  0.00  0.00    +0.000 A 
ATOM     20  C   UNL     1      -8.779   0.226  24.452  0.00  0.00    +0.000 A 
ATOM     21  C   UNL     1      -8.796   1.261  25.395  0.00  0.00    +0.000 A 
ATOM     22  C   UNL     1      -9.572   2.391  25.192  0.00  0.00    +0.000 A 
ATOM     23  C   UNL     1     -10.354   2.523  24.045  0.00  0.00    +0.000 A 
ATOM     24  C   UNL     1     -10.336   1.504  23.072  0.00  0.00    +0.000 A 
ATOM     25  N   UNL     1     -10.999   1.469  21.833  0.00  0.00    +0.000 N 
ATOM     26  C   UNL     1     -11.816   2.491  21.233  0.00  0.00    +0.000 C 
ATOM     27  O   UNL     1     -12.850   1.855  20.474  0.00  0.00    +0.000 OA
ATOM     28  C   UNL     1     -12.305   1.657  19.167  0.00  0.00    +0.000 C 
ATOM     29  C   UNL     1     -11.382   2.831  18.886  0.00  0.00    +0.000 C 
ATOM     30  C   UNL     1     -11.110   3.432  20.260  0.00  0.00    +0.000 C 
ATOM     31  H   UNL     1      -7.472  -4.451  21.770  0.00  0.00    +0.000 HD
ATOM     32  H   UNL     1      -9.762  -3.456  17.629  0.00  0.00    +0.000 HD
ATOM     33  H   UNL     1     -10.686  -3.198  15.381  0.00  0.00    +0.000 HD
ATOM     34  H   UNL     1     -12.055  -1.235  14.787  0.00  0.00    +0.000 HD
ATOM     35  H   UNL     1     -12.550   0.507  16.454  0.00  0.00    +0.000 HD
ATOM     36  H   UNL     1      -8.152  -0.637  24.656  0.00  0.00    +0.000 HD
ATOM     37  H   UNL     1      -8.189   1.175  26.294  0.00  0.00    +0.000 HD
ATOM     38  H   UNL     1      -9.568   3.187  25.933  0.00  0.00    +0.000 HD
ATOM     39  H   UNL     1     -10.956   3.418  23.915  0.00  0.00    +0.000 HD
ATOM     40  H   UNL     1     -12.300   3.048  22.042  0.00  0.00    +0.000 HD
ATOM     41  H   UNL     1     -13.133   1.602  18.454  0.00  0.00    +0.000 HD
ATOM     42  H   UNL     1     -11.904   3.572  18.269  0.00  0.00    +0.000 HD
ATOM     43  H   UNL     1     -10.477   2.542  18.340  0.00  0.00    +0.000 HD
ATOM     44  H   UNL     1     -11.637   4.396  20.283  0.00  0.00    +0.000 HD
ENDROOT
BRANCH  30  45
ATOM     45  C   UNL     1      -9.634   3.699  20.522  0.00  0.00    +0.000 C 
ATOM     46  H   UNL     1      -9.418   4.771  20.548  0.00  0.00    +0.000 HD
ATOM     47  H   UNL     1      -9.301   3.258  21.467  0.00  0.00    +0.000 HD
BRANCH  45  48
ATOM     48  O   UNL     1      -8.850   3.110  19.488  0.00  0.00    +0.000 OA
ATOM     49  H   UNL     1      -8.001   2.827  19.868  0.00  0.00    +0.000 HD
ENDBRANCH  45  48
ENDBRANCH  30  45
TORSDOF 2
ENDMDL
MODEL 9
REMARK VINA RESULT:    -7.780      2.094      6.367
REMARK INTER + INTRA:          -8.697
REMARK INTER:                  -8.436
REMARK INTRA:                  -0.260
REMARK UNBOUND:                -0.235
REMARK  Name = 
REMARK  2 active torsions:
REMARK  status: ('A' for Active; 'I' for Inactive)
REMARK    1  A    between atoms: C_30  and  C_31
REMARK    2  A    between atoms: C_31  and  O_32
REMARK                            x       y       z     vdW  Elec       q    Type
REMARK                         _______ _______ _______ _____ _____    ______ ____
ROOT
ATOM      1  O   UNL     1      -8.403  -2.871  22.861  0.00  0.00    +0.000 OA
ATOM      2  C   UNL     1      -8.959  -2.515  21.831  0.00  0.00    +0.000 C 
ATOM      3  N   UNL     1      -9.147  -3.353  20.758  0.00  0.00    +0.000 N 
ATOM      4  C   UNL     1      -9.771  -2.819  19.658  0.00  0.00    +0.000 C 
ATOM      5  O   UNL     1      -9.980  -3.461  18.638  0.00  0.00    +0.000 OA
ATOM      6  C   UNL     1     -10.027  -1.479  20.063  0.00  0.00    +0.000 A 
ATOM      7  C   UNL     1      -9.537  -1.296  21.380  0.00  0.00    +0.000 A 
ATOM      8  C   UNL     1      -9.745   0.002  21.895  0.00  0.00    +0.000 A 
ATOM      9  C   UNL     1      -9.463   0.474  23.206  0.00  0.00    +0.000 A 
ATOM     10  C   UNL     1      -8.907  -0.086  24.379  0.00  0.00    +0.000 A 
ATOM     11  C   UNL     1      -8.804   0.661  25.557  0.00  0.00    +0.000 A 
ATOM     12  C   UNL     1      -9.253   1.973  25.606  0.00  0.00    +0.000 A 
ATOM     13  C   UNL     1      -9.806   2.581  24.481  0.00  0.00    +0.000 A 
ATOM     14  C   UNL     1      -9.908   1.850  23.280  0.00  0.00    +0.000 A 
ATOM     15  N   UNL     1     -10.435   2.272  22.046  0.00  0.00    +0.000 N 
ATOM     16  C   UNL     1     -10.334   1.131  21.317  0.00  0.00    +0.000 A 
ATOM     17  C   UNL     1     -10.812   0.954  20.032  0.00  0.00    +0.000 A 
ATOM     18  C   UNL     1     -10.631  -0.331  19.507  0.00  0.00    +0.000 A 
ATOM     19  C   UNL     1     -11.304  -0.218  18.262  0.00  0.00    +0.000 A 
ATOM     20  C   UNL     1     -11.601  -1.100  17.196  0.00  0.00    +0.000 A 
ATOM     21  C   UNL     1     -12.353  -0.674  16.095  0.00  0.00    +0.000 A 
ATOM     22  C   UNL     1     -12.811   0.632  16.011  0.00  0.00    +0.000 A 
ATOM     23  C   UNL     1     -12.533   1.551  17.022  0.00  0.00    +0.000 A 
ATOM     24  C   UNL     1     -11.798   1.139  18.151  0.00  0.00    +0.000 A 
ATOM     25  N   UNL     1     -11.464   1.886  19.295  0.00  0.00    +0.000 N 
ATOM     26  C   UNL     1     -11.840   3.239  19.614  0.00  0.00    +0.000 C 
ATOM     27  O   UNL     1     -10.770   3.844  20.348  0.00  0.00    +0.000 OA
ATOM     28  C   UNL     1     -11.028   3.548  21.723  0.00  0.00    +0.000 C 
ATOM     29  C   UNL     1     -12.538   3.541  21.902  0.00  0.00    +0.000 C 
ATOM     30  C   UNL     1     -13.082   3.404  20.485  0.00  0.00    +0.000 C 
ATOM     31  H   UNL     1      -8.824  -4.306  20.772  0.00  0.00    +0.000 HD
ATOM     32  H   UNL     1      -8.555  -1.113  24.394  0.00  0.00    +0.000 HD
ATOM     33  H   UNL     1      -8.373   0.204  26.445  0.00  0.00    +0.000 HD
ATOM     34  H   UNL     1      -9.174   2.535  26.534  0.00  0.00    +0.000 HD
ATOM     35  H   UNL     1     -10.155   3.606  24.547  0.00  0.00    +0.000 HD
ATOM     36  H   UNL     1     -11.269  -2.133  17.216  0.00  0.00    +0.000 HD
ATOM     37  H   UNL     1     -12.581  -1.380  15.299  0.00  0.00    +0.000 HD
ATOM     38  H   UNL     1     -13.398   0.942  15.150  0.00  0.00    +0.000 HD
ATOM     39  H   UNL     1     -12.902   2.569  16.927  0.00  0.00    +0.000 HD
ATOM     40  H   UNL     1     -11.940   3.787  18.672  0.00  0.00    +0.000 HD
ATOM     41  H   UNL     1     -10.543   4.313  22.337  0.00  0.00    +0.000 HD
ATOM     42  H   UNL     1     -12.864   4.501  22.319  0.00  0.00    +0.000 HD
ATOM     43  H   UNL     1     -12.883   2.760  22.588  0.00  0.00    +0.000 HD
ATOM     44  H   UNL     1     -13.539   4.372  20.237  0.00  0.00    +0.000 HD
ENDROOT
BRANCH  30  45
ATOM     45  C   UNL     1     -14.156   2.332  20.350  0.00  0.00    +0.000 C 
ATOM     46  H   UNL     1     -15.157   2.769  20.296  0.00  0.00    +0.000 HD
ATOM     47  H   UNL     1     -14.002   1.711  19.461  0.00  0.00    +0.000 HD
BRANCH  45  48
ATOM     48  O   UNL     1     -14.107   1.463  21.478  0.00  0.00    +0.000 OA
ATOM     49  H   UNL     1     -14.980   1.047  21.584  0.00  0.00    +0.000 HD
ENDBRANCH  45  48
ENDBRANCH  30  45
TORSDOF 2
ENDMDL
