
 OpenBabel01112422303D

 43 46  0  0  0  0  0  0  0  0999 V2000
    3.9011    1.4714    0.1354 C   0  0  0  0  0  0  0  0  0  0  0  0
    2.8170    0.0399   -0.1001 S   0  3  3  0  0  0  0  0  0  0  0  0
    3.4193   -0.8151   -1.2732 O   0  5  0  0  0  0  0  0  0  0  0  0
    3.2118   -0.8221    1.4400 C   0  0  0  0  0  0  0  0  0  0  0  0
    2.9217   -0.2366    2.6682 C   0  0  0  0  0  0  0  0  0  0  0  0
    3.2161   -0.8969    3.8638 C   0  0  0  0  0  0  0  0  0  0  0  0
    3.8097   -2.1714    3.8523 C   0  0  0  0  0  0  0  0  0  0  0  0
    4.1273   -2.8251    5.1210 C   0  0  0  0  0  0  0  0  0  0  0  0
    3.4864   -2.6626    6.2657 N   0  0  0  0  0  0  0  0  0  0  0  0
    4.1300   -3.4572    7.1866 C   0  0  0  0  0  0  0  0  0  0  0  0
    3.6837   -3.5523    8.5743 C   0  0  0  0  0  0  0  0  0  0  0  0
    3.8452   -4.7363    9.3137 C   0  0  0  0  0  0  0  0  0  0  0  0
    3.6774   -4.7408   10.6985 C   0  0  0  0  0  0  0  0  0  0  0  0
    3.2226   -3.5940   11.3298 C   0  0  0  0  0  0  0  0  0  0  0  0
    3.0727   -3.5926   12.6602 F   0  0  0  0  0  0  0  0  0  0  0  0
    2.9259   -2.4522   10.6014 C   0  0  0  0  0  0  0  0  0  0  0  0
    3.1664   -2.4229    9.2217 C   0  0  0  0  0  0  0  0  0  0  0  0
    5.2572   -4.0584    6.6243 C   0  0  0  0  0  0  0  0  0  0  0  0
    6.3104   -4.9358    7.1598 C   0  0  0  0  0  0  0  0  0  0  0  0
    6.8581   -5.9607    6.3878 C   0  0  0  0  0  0  0  0  0  0  0  0
    7.7010   -6.8760    6.9997 C   0  0  0  0  0  0  0  0  0  0  0  0
    8.0195   -6.8520    8.3129 N   0  0  0  0  0  0  0  0  0  0  0  0
    7.5190   -5.8330    9.0313 C   0  0  0  0  0  0  0  0  0  0  0  0
    6.7248   -4.8352    8.4916 C   0  0  0  0  0  0  0  0  0  0  0  0
    5.1999   -3.6657    5.3030 N   0  0  0  0  0  0  0  0  0  0  0  0
    4.0709   -2.7688    2.6101 C   0  0  0  0  0  0  0  0  0  0  0  0
    3.7724   -2.1036    1.4204 C   0  0  0  0  0  0  0  0  0  0  0  0
    3.8569    2.0902   -0.7639 H   0  0  0  0  0  0  0  0  0  0  0  0
    4.9297    1.1388    0.2961 H   0  0  0  0  0  0  0  0  0  0  0  0
    3.5589    2.0631    0.9873 H   0  0  0  0  0  0  0  0  0  0  0  0
    2.4593    0.7546    2.7275 H   0  0  0  0  0  0  0  0  0  0  0  0
    2.9866   -0.4232    4.8171 H   0  0  0  0  0  0  0  0  0  0  0  0
    4.1841   -5.6492    8.8300 H   0  0  0  0  0  0  0  0  0  0  0  0
    3.9245   -5.6250   11.2803 H   0  0  0  0  0  0  0  0  0  0  0  0
    2.5377   -1.5740   11.1121 H   0  0  0  0  0  0  0  0  0  0  0  0
    2.9804   -1.5086    8.6612 H   0  0  0  0  0  0  0  0  0  0  0  0
    6.6102   -6.0944    5.3424 H   0  0  0  0  0  0  0  0  0  0  0  0
    8.1421   -7.6950    6.4398 H   0  0  0  0  0  0  0  0  0  0  0  0
    7.7492   -5.8457   10.0944 H   0  0  0  0  0  0  0  0  0  0  0  0
    6.3788   -4.0364    9.1415 H   0  0  0  0  0  0  0  0  0  0  0  0
    5.8704   -3.8971    4.5912 H   0  0  0  0  0  0  0  0  0  0  0  0
    4.4873   -3.7742    2.5504 H   0  0  0  0  0  0  0  0  0  0  0  0
    3.9752   -2.5952    0.4646 H   0  0  0  0  0  0  0  0  0  0  0  0
  1  2  1  0  0  0  0
  1 28  1  0  0  0  0
  1 29  1  0  0  0  0
  1 30  1  0  0  0  0
  2  3  1  0  0  0  0
  2  4  1  0  0  0  0
  4  5  1  0  0  0  0
  4 27  2  0  0  0  0
  5  6  2  0  0  0  0
  5 31  1  0  0  0  0
  6  7  1  0  0  0  0
  6 32  1  0  0  0  0
  7  8  1  0  0  0  0
  7 26  2  0  0  0  0
  8  9  2  0  0  0  0
  8 25  1  0  0  0  0
  9 10  1  0  0  0  0
 10 11  1  0  0  0  0
 10 18  2  0  0  0  0
 11 12  1  0  0  0  0
 11 17  2  0  0  0  0
 12 13  2  0  0  0  0
 12 33  1  0  0  0  0
 13 14  1  0  0  0  0
 13 34  1  0  0  0  0
 14 15  1  0  0  0  0
 14 16  2  0  0  0  0
 16 17  1  0  0  0  0
 16 35  1  0  0  0  0
 17 36  1  0  0  0  0
 18 19  1  0  0  0  0
 18 25  1  0  0  0  0
 19 20  1  0  0  0  0
 19 24  2  0  0  0  0
 20 21  2  0  0  0  0
 20 37  1  0  0  0  0
 21 22  1  0  0  0  0
 21 38  1  0  0  0  0
 22 23  2  0  0  0  0
 23 24  1  0  0  0  0
 23 39  1  0  0  0  0
 24 40  1  0  0  0  0
 25 41  1  0  0  0  0
 26 27  1  0  0  0  0
 26 42  1  0  0  0  0
 27 43  1  0  0  0  0
M  CHG  2   2   1   3  -1
M  END
$$$$
