REMARK  Name = 
REMARK  6 active torsions:
REMARK  status: ('A' for Active; 'I' for Inactive)
REMARK    1  A    between atoms: C_2  and  C_3
REMARK    2  A    between atoms: C_6  and  C_7
REMARK    3  A    between atoms: C_16  and  O_17
REMARK    4  A    between atoms: C_18  and  O_19
REMARK    5  A    between atoms: C_26  and  O_27
REMARK    6  A    between atoms: C_28  and  O_29
REMARK                            x       y       z     vdW  Elec       q    Type
REMARK                         _______ _______ _______ _____ _____    ______ ____
ROOT
ATOM      1  O   UNL     1      -1.363  -2.566  -1.110  0.00  0.00    +0.000 OA
ATOM      2  C   UNL     1      -1.090  -1.449  -0.676  0.00  0.00    +0.000 C 
ATOM      3  N   UNL     1       0.103  -1.221   0.026  0.00  0.00    +0.000 N 
ATOM      4  C   UNL     1       0.536   0.028   0.518  0.00  0.00    +0.000 A 
ATOM      5  C   UNL     1       0.216   1.373   0.317  0.00  0.00    +0.000 A 
ATOM      6  C   UNL     1       0.045   2.084   1.502  0.00  0.00    +0.000 A 
ATOM      7  C   UNL     1       0.333   1.504   2.737  0.00  0.00    +0.000 A 
ATOM      8  C   UNL     1       1.098   0.342   2.817  0.00  0.00    +0.000 A 
ATOM      9  C   UNL     1       1.292  -0.349   1.611  0.00  0.00    +0.000 A 
ATOM     10  C   UNL     1       2.069  -1.355   1.017  0.00  0.00    +0.000 A 
ATOM     11  C   UNL     1       3.420  -1.679   0.808  0.00  0.00    +0.000 A 
ATOM     12 BR   UNL     1       4.733  -0.315   0.882  0.00  0.00    +0.000 Br
ATOM     13  C   UNL     1       3.741  -2.924   0.260  0.00  0.00    +0.000 A 
ATOM     14  C   UNL     1       2.726  -3.850   0.063  0.00  0.00    +0.000 A 
ATOM     15  C   UNL     1       1.378  -3.475   0.117  0.00  0.00    +0.000 A 
ATOM     16  C   UNL     1       1.105  -2.130   0.357  0.00  0.00    +0.000 A 
ATOM     17  H   UNL     1      -0.089   1.757  -0.645  0.00  0.00    +0.000 HD
ATOM     18  H   UNL     1       1.393  -0.079   3.770  0.00  0.00    +0.000 HD
ATOM     19  H   UNL     1       4.769  -3.153  -0.003  0.00  0.00    +0.000 HD
ENDROOT
BRANCH   2  20
ATOM     20  C   UNL     1      -1.995  -0.355  -1.091  0.00  0.00    +0.000 A 
ATOM     21  C   UNL     1      -2.571   0.493  -0.130  0.00  0.00    +0.000 A 
ATOM     22  C   UNL     1      -2.835   1.813  -0.486  0.00  0.00    +0.000 A 
ATOM     23  C   UNL     1      -2.570   2.248  -1.799  0.00  0.00    +0.000 A 
ATOM     24  C   UNL     1      -2.241   1.315  -2.796  0.00  0.00    +0.000 A 
ATOM     25  C   UNL     1      -1.961  -0.001  -2.446  0.00  0.00    +0.000 A 
ATOM     26  H   UNL     1      -2.595   0.198   0.922  0.00  0.00    +0.000 HD
ATOM     27  H   UNL     1      -3.071   2.527   0.303  0.00  0.00    +0.000 HD
ATOM     28  H   UNL     1      -2.066   1.641  -3.819  0.00  0.00    +0.000 HD
ATOM     29  H   UNL     1      -1.577  -0.696  -3.177  0.00  0.00    +0.000 HD
BRANCH  23  30
ATOM     30  C   UNL     1      -2.417   3.725  -2.105  0.00  0.00    +0.000 C 
ATOM     31  F   UNL     1      -2.442   4.513  -0.993  0.00  0.00    +0.000 F 
ATOM     32  F   UNL     1      -1.215   3.993  -2.695  0.00  0.00    +0.000 F 
ATOM     33  F   UNL     1      -3.368   4.198  -2.946  0.00  0.00    +0.000 F 
ENDBRANCH  23  30
ENDBRANCH   2  20
BRANCH   6  34
ATOM     34  O   UNL     1      -0.524   3.327   1.499  0.00  0.00    +0.000 OA
ATOM     35  H   UNL     1      -0.338   3.735   0.634  0.00  0.00    +0.000 HD
ENDBRANCH   6  34
BRANCH   7  36
ATOM     36  O   UNL     1      -0.152   2.078   3.877  0.00  0.00    +0.000 OA
ATOM     37  H   UNL     1      -0.729   2.804   3.562  0.00  0.00    +0.000 HD
ENDBRANCH   7  36
BRANCH  14  38
ATOM     38  O   UNL     1       3.005  -5.151  -0.262  0.00  0.00    +0.000 OA
ATOM     39  H   UNL     1       3.972  -5.255  -0.308  0.00  0.00    +0.000 HD
ENDBRANCH  14  38
BRANCH  15  40
ATOM     40  O   UNL     1       0.402  -4.417  -0.043  0.00  0.00    +0.000 OA
ATOM     41  H   UNL     1       0.873  -5.272  -0.070  0.00  0.00    +0.000 HD
ENDBRANCH  15  40
TORSDOF 6
