REMARK  Name = 
REMARK  8 active torsions:
REMARK  status: ('A' for Active; 'I' for Inactive)
REMARK    1  A    between atoms: C_1  and  O_2
REMARK    2  A    between atoms: O_2  and  C_3
REMARK    3  A    between atoms: C_3  and  C_5
REMARK    4  A    between atoms: C_9  and  N_10
REMARK    5  A    between atoms: C_11  and  C_13
REMARK    6  A    between atoms: C_13  and  N_14
REMARK    7  A    between atoms: N_17  and  C_18
REMARK    8  A    between atoms: C_25  and  C_26
REMARK                            x       y       z     vdW  Elec       q    Type
REMARK                         _______ _______ _______ _____ _____    ______ ____
ROOT
ATOM      1  C   UNL     1       0.141   1.084   1.327  0.00  0.00    +0.000 C 
ATOM      2  C   UNL     1       1.491   1.840   1.438  0.00  0.00    +0.000 C 
ATOM      3  C   UNL     1       2.563   1.230   0.520  0.00  0.00    +0.000 C 
ATOM      4  N   UNL     1       2.642  -0.192   0.848  0.00  0.00    +0.000 N 
ATOM      5  C   UNL     1       1.434  -0.921   0.491  0.00  0.00    +0.000 C 
ATOM      6  C   UNL     1       0.353  -0.439   1.465  0.00  0.00    +0.000 C 
ATOM      7  H   UNL     1       1.860   1.789   2.471  0.00  0.00    +0.000 HD
ATOM      8  H   UNL     1       1.371   2.906   1.203  0.00  0.00    +0.000 HD
ATOM      9  H   UNL     1       3.505   1.759   0.718  0.00  0.00    +0.000 HD
ATOM     10  H   UNL     1       2.333   1.378  -0.544  0.00  0.00    +0.000 HD
ATOM     11  H   UNL     1       1.552  -2.002   0.551  0.00  0.00    +0.000 HD
ATOM     12  H   UNL     1       1.140  -0.717  -0.547  0.00  0.00    +0.000 HD
ATOM     13  H   UNL     1       0.681  -0.657   2.491  0.00  0.00    +0.000 HD
ATOM     14  H   UNL     1      -0.573  -1.002   1.307  0.00  0.00    +0.000 HD
ENDROOT
BRANCH   4  15
ATOM     15  C   UNL     1       3.872  -0.804   0.635  0.00  0.00    +0.000 A 
ATOM     16  N   UNL     1       4.766  -0.188  -0.188  0.00  0.00    +0.000 NA
ATOM     17  C   UNL     1       6.023  -0.654  -0.281  0.00  0.00    +0.000 A 
ATOM     18  N   UNL     1       6.563  -1.687   0.372  0.00  0.00    +0.000 NA
ATOM     19  C   UNL     1       5.665  -2.281   1.168  0.00  0.00    +0.000 A 
ATOM     20  N   UNL     1       5.976  -3.331   1.981  0.00  0.00    +0.000 N 
ATOM     21  C   UNL     1       4.870  -3.721   2.677  0.00  0.00    +0.000 A 
ATOM     22  C   UNL     1       3.816  -2.893   2.324  0.00  0.00    +0.000 A 
ATOM     23  C   UNL     1       4.326  -1.947   1.352  0.00  0.00    +0.000 A 
ATOM     24  H   UNL     1       6.683  -0.116  -0.954  0.00  0.00    +0.000 HD
ATOM     25  H   UNL     1       6.902  -3.725   2.055  0.00  0.00    +0.000 HD
ATOM     26  H   UNL     1       4.921  -4.543   3.378  0.00  0.00    +0.000 HD
BRANCH  22  27
ATOM     27  C   UNL     1       2.453  -3.018   2.905  0.00  0.00    +0.000 C 
ATOM     28  H   UNL     1       2.403  -3.860   3.605  0.00  0.00    +0.000 HD
ATOM     29  H   UNL     1       1.707  -3.230   2.138  0.00  0.00    +0.000 HD
ATOM     30  H   UNL     1       2.177  -2.115   3.454  0.00  0.00    +0.000 HD
ENDBRANCH  22  27
ENDBRANCH   4  15
BRANCH   1  32
ATOM     31  N   UNL     1      -1.785   0.879  -0.221  0.00  0.00    +0.000 N 
ATOM     32  C   UNL     1      -0.530   1.442  -0.031  0.00  0.00    +0.000 C 
ATOM     33  O   UNL     1       0.023   2.209  -0.818  0.00  0.00    +0.000 OA
ATOM     34  H   UNL     1      -2.236   0.536   0.623  0.00  0.00    +0.000 HD
BRANCH  31  39
ATOM     35  C   UNL     1      -4.782   1.109  -2.417  0.00  0.00    +0.000 A 
ATOM     36  C   UNL     1      -4.210   1.606  -3.596  0.00  0.00    +0.000 A 
ATOM     37  C   UNL     1      -2.836   1.788  -3.686  0.00  0.00    +0.000 A 
ATOM     38  C   UNL     1      -2.026   1.506  -2.588  0.00  0.00    +0.000 A 
ATOM     39  C   UNL     1      -2.575   1.063  -1.380  0.00  0.00    +0.000 A 
ATOM     40  C   UNL     1      -3.953   0.821  -1.311  0.00  0.00    +0.000 A 
ATOM     41  H   UNL     1      -4.823   1.862  -4.456  0.00  0.00    +0.000 HD
ATOM     42  H   UNL     1      -2.390   2.167  -4.602  0.00  0.00    +0.000 HD
ATOM     43  H   UNL     1      -0.957   1.650  -2.716  0.00  0.00    +0.000 HD
ATOM     44  H   UNL     1      -4.404   0.444  -0.395  0.00  0.00    +0.000 HD
BRANCH  35  45
ATOM     45  C   UNL     1      -6.250   0.911  -2.295  0.00  0.00    +0.000 C 
ATOM     46  O   UNL     1      -6.795   0.440  -1.311  0.00  0.00    +0.000 OA
BRANCH  45  47
ATOM     47  O   UNL     1      -6.866   1.332  -3.430  0.00  0.00    +0.000 OA
BRANCH  47  48
ATOM     48  C   UNL     1      -8.287   1.218  -3.428  0.00  0.00    +0.000 C 
ATOM     49  H   UNL     1      -8.642   1.479  -4.429  0.00  0.00    +0.000 HD
ATOM     50  H   UNL     1      -8.719   1.922  -2.712  0.00  0.00    +0.000 HD
ATOM     51  H   UNL     1      -8.597   0.192  -3.208  0.00  0.00    +0.000 HD
ENDBRANCH  47  48
ENDBRANCH  45  47
ENDBRANCH  35  45
ENDBRANCH  31  39
ENDBRANCH   1  32
BRANCH   1  52
ATOM     52  N   UNL     1      -0.781   1.536   2.407  0.00  0.00    +0.000 NA
ATOM     53  H   UNL     1      -0.881   2.552   2.331  0.00  0.00    +0.000 HD
ATOM     54  H   UNL     1      -0.316   1.392   3.306  0.00  0.00    +0.000 HD
ENDBRANCH   1  52
TORSDOF 8
