
 OpenBabel01112422273D

 66 69  0  0  1  0  0  0  0  0999 V2000
    0.3909    2.2095   -2.8341 O   0  0  0  0  0  0  0  0  0  0  0  0
    1.5750    2.3362   -3.1158 C   0  0  0  0  0  0  0  0  0  0  0  0
    2.5932    2.3849   -2.1899 N   0  0  0  0  0  0  0  0  0  0  0  0
    2.4343    2.4650   -0.7277 C   0  0  2  0  0  0  0  0  0  0  0  0
    1.3188    1.5830   -0.1162 C   0  0  0  0  0  0  0  0  0  0  0  0
    1.6165    1.1648    1.2590 N   0  0  0  0  0  0  0  0  0  0  0  0
    1.3223    2.1038    2.3316 C   0  0  0  0  0  0  0  0  0  0  0  0
    1.3369    3.6067    2.0597 C   0  0  0  0  0  0  0  0  0  0  0  0
    2.5335    4.1029    1.2533 C   0  0  0  0  0  0  0  0  0  0  0  0
    2.3771    3.9333   -0.2607 C   0  0  3  0  0  0  0  0  0  0  0  0
    1.1205    4.5247   -0.6437 O   0  0  0  0  0  0  0  0  0  0  0  0
    1.1532    5.4885   -1.5851 C   0  0  0  0  0  0  0  0  0  0  0  0
    2.1498    5.9274   -2.1343 O   0  0  0  0  0  0  0  0  0  0  0  0
   -0.2163    5.9754   -1.8708 C   0  0  0  0  0  0  0  0  0  0  0  0
   -0.3398    7.1019   -2.6904 C   0  0  0  0  0  0  0  0  0  0  0  0
   -1.6035    7.5689   -3.0429 C   0  0  0  0  0  0  0  0  0  0  0  0
   -1.6898    8.6776   -3.8408 O   0  0  0  0  0  0  0  0  0  0  0  0
   -2.7653    6.9241   -2.5818 C   0  0  0  0  0  0  0  0  0  0  0  0
   -4.0859    7.4070   -3.0403 C   0  0  0  0  0  0  0  0  0  0  0  0
   -4.2219    7.6682   -4.2400 O   0  0  0  0  0  0  0  0  0  0  0  0
   -5.3268    7.4088   -2.2123 C   0  0  0  0  0  0  0  0  0  0  0  0
   -6.5256    7.1105   -2.8970 C   0  0  0  0  0  0  0  0  0  0  0  0
   -6.5772    6.8263   -4.2401 O   0  0  0  0  0  0  0  0  0  0  0  0
   -7.7540    7.0558   -2.2402 C   0  0  0  0  0  0  0  0  0  0  0  0
   -7.8167    7.2992   -0.8763 C   0  0  0  0  0  0  0  0  0  0  0  0
   -6.6490    7.5937   -0.1726 C   0  0  0  0  0  0  0  0  0  0  0  0
   -5.4002    7.6413   -0.8261 C   0  0  0  0  0  0  0  0  0  0  0  0
   -4.2196    8.0014   -0.0076 C   0  0  0  0  0  0  0  0  0  0  0  0
   -3.3467    8.7598   -0.3854 O   0  0  0  0  0  0  0  0  0  0  0  0
   -4.2034    7.4176    1.2152 O   0  0  0  0  0  0  0  0  0  0  0  0
   -2.6304    5.7939   -1.7620 C   0  0  0  0  0  0  0  0  0  0  0  0
   -3.6899    5.0689   -1.2821 O   0  0  0  0  0  0  0  0  0  0  0  0
   -1.3661    5.3330   -1.3914 C   0  0  0  0  0  0  0  0  0  0  0  0
    2.0053    2.5073   -4.5402 C   0  0  0  0  0  0  0  0  0  0  0  0
    1.0960    3.0581   -5.4543 C   0  0  0  0  0  0  0  0  0  0  0  0
    1.4708    3.2918   -6.7844 C   0  0  0  0  0  0  0  0  0  0  0  0
    2.7604    2.9613   -7.1952 C   0  0  0  0  0  0  0  0  0  0  0  0
    3.1822    3.1899   -8.4712 O   0  0  0  0  0  0  0  0  0  0  0  0
    3.6643    2.3865   -6.3098 C   0  0  0  0  0  0  0  0  0  0  0  0
    3.2868    2.1467   -4.9862 C   0  0  0  0  0  0  0  0  0  0  0  0
    3.4727    2.7509   -2.5312 H   0  0  0  0  0  0  0  0  0  0  0  0
    3.3963    2.0602   -0.3769 H   0  0  0  0  0  0  0  0  0  0  0  0
    1.2465    0.6583   -0.7017 H   0  0  0  0  0  0  0  0  0  0  0  0
    0.3303    2.0529   -0.1790 H   0  0  0  0  0  0  0  0  0  0  0  0
    2.5751    0.8277    1.3282 H   0  0  0  0  0  0  0  0  0  0  0  0
    2.0308    1.9007    3.1453 H   0  0  0  0  0  0  0  0  0  0  0  0
    0.3379    1.8502    2.7432 H   0  0  0  0  0  0  0  0  0  0  0  0
    1.3546    4.1152    3.0332 H   0  0  0  0  0  0  0  0  0  0  0  0
    0.3937    3.9086    1.5907 H   0  0  0  0  0  0  0  0  0  0  0  0
    3.4617    3.6333    1.6001 H   0  0  0  0  0  0  0  0  0  0  0  0
    2.6316    5.1788    1.4500 H   0  0  0  0  0  0  0  0  0  0  0  0
    3.2178    4.4637   -0.7254 H   0  0  0  0  0  0  0  0  0  0  0  0
    0.5563    7.6070   -3.0442 H   0  0  0  0  0  0  0  0  0  0  0  0
   -0.8063    8.9340   -4.1530 H   0  0  0  0  0  0  0  0  0  0  0  0
   -5.7303    7.1291   -4.6468 H   0  0  0  0  0  0  0  0  0  0  0  0
   -8.6567    6.8359   -2.8057 H   0  0  0  0  0  0  0  0  0  0  0  0
   -8.7789    7.2815   -0.3677 H   0  0  0  0  0  0  0  0  0  0  0  0
   -6.7345    7.8210    0.8891 H   0  0  0  0  0  0  0  0  0  0  0  0
   -4.8624    6.7109    1.3615 H   0  0  0  0  0  0  0  0  0  0  0  0
   -4.3812    5.0206   -1.9661 H   0  0  0  0  0  0  0  0  0  0  0  0
   -1.2896    4.4519   -0.7580 H   0  0  0  0  0  0  0  0  0  0  0  0
    0.0859    3.3198   -5.1336 H   0  0  0  0  0  0  0  0  0  0  0  0
    0.7561    3.7348   -7.4731 H   0  0  0  0  0  0  0  0  0  0  0  0
    2.4561    3.5966   -8.9733 H   0  0  0  0  0  0  0  0  0  0  0  0
    4.6639    2.1253   -6.6513 H   0  0  0  0  0  0  0  0  0  0  0  0
    4.0023    1.6659   -4.3236 H   0  0  0  0  0  0  0  0  0  0  0  0
  1  2  2  0  0  0  0
  2  3  1  0  0  0  0
  2 34  1  0  0  0  0
  3 41  1  0  0  0  0
  4  5  1  0  0  0  0
  4 10  1  0  0  0  0
  4  3  1  0  0  0  0
  4 42  1  1  0  0  0
  5  6  1  0  0  0  0
  5 43  1  0  0  0  0
  5 44  1  0  0  0  0
  6  7  1  0  0  0  0
  6 45  1  0  0  0  0
  7  8  1  0  0  0  0
  7 46  1  0  0  0  0
  7 47  1  0  0  0  0
  8  9  1  0  0  0  0
  8 48  1  0  0  0  0
  8 49  1  0  0  0  0
  9 10  1  0  0  0  0
  9 50  1  0  0  0  0
  9 51  1  0  0  0  0
 10 11  1  0  0  0  0
 10 52  1  0  0  0  0
 11 12  1  0  0  0  0
 12 13  2  0  0  0  0
 12 14  1  0  0  0  0
 14 15  1  0  0  0  0
 14 33  2  0  0  0  0
 15 16  2  0  0  0  0
 15 53  1  0  0  0  0
 16 17  1  0  0  0  0
 16 18  1  0  0  0  0
 17 54  1  0  0  0  0
 18 19  1  0  0  0  0
 18 31  2  0  0  0  0
 19 20  2  0  0  0  0
 19 21  1  0  0  0  0
 21 22  1  0  0  0  0
 21 27  2  0  0  0  0
 22 23  1  0  0  0  0
 22 24  2  0  0  0  0
 23 55  1  0  0  0  0
 24 25  1  0  0  0  0
 24 56  1  0  0  0  0
 25 26  2  0  0  0  0
 25 57  1  0  0  0  0
 26 27  1  0  0  0  0
 26 58  1  0  0  0  0
 27 28  1  0  0  0  0
 28 29  2  0  0  0  0
 28 30  1  0  0  0  0
 30 59  1  0  0  0  0
 31 32  1  0  0  0  0
 31 33  1  0  0  0  0
 32 60  1  0  0  0  0
 33 61  1  0  0  0  0
 34 35  1  0  0  0  0
 34 40  2  0  0  0  0
 35 36  2  0  0  0  0
 35 62  1  0  0  0  0
 36 37  1  0  0  0  0
 36 63  1  0  0  0  0
 37 38  1  0  0  0  0
 37 39  2  0  0  0  0
 38 64  1  0  0  0  0
 39 40  1  0  0  0  0
 39 65  1  0  0  0  0
 40 66  1  0  0  0  0
M  END
$$$$
