
 OpenBabel01112422233D

 71 79  0  0  1  0  0  0  0  0999 V2000
    1.6876   -2.0296   -1.3472 C   0  0  0  0  0  0  0  0  0  0  0  0
    1.5528   -0.6309   -1.1089 O   0  0  0  0  0  0  0  0  0  0  0  0
    1.7439   -0.2589    0.2642 C   0  0  1  0  0  0  0  0  0  0  0  0
    2.1586    1.2561    0.2719 C   0  0  1  0  0  0  0  0  0  0  0  0
    3.4289    1.5199   -0.4896 N   0  0  0  0  0  0  0  0  0  0  0  0
    3.4670    2.5722   -1.4993 C   0  0  0  0  0  0  0  0  0  0  0  0
    4.5663    0.7167   -0.2566 C   0  0  0  0  0  0  0  0  0  0  0  0
    4.6336   -0.0880    0.6973 O   0  0  0  0  0  0  0  0  0  0  0  0
    5.7209    0.7256   -1.1948 C   0  0  0  0  0  0  0  0  0  0  0  0
    6.2378   -0.4808   -1.6422 C   0  0  0  0  0  0  0  0  0  0  0  0
    7.2970   -0.5461   -2.4900 N   0  0  0  0  0  0  0  0  0  0  0  0
    7.8237    0.6470   -2.8524 C   0  0  0  0  0  0  0  0  0  0  0  0
    7.3040    1.8517   -2.4088 C   0  0  0  0  0  0  0  0  0  0  0  0
    6.2459    1.9188   -1.5740 N   0  0  0  0  0  0  0  0  0  0  0  0
    0.9493    2.1417   -0.1081 C   0  0  0  0  0  0  0  0  0  0  0  0
   -0.4172    1.5962    0.3000 C   0  0  2  0  0  0  0  0  0  0  0  0
   -0.1909    0.7673    1.4557 O   0  0  0  0  0  0  0  0  0  0  0  0
    0.5379   -0.4756    1.2136 C   0  0  2  0  0  0  0  0  0  0  0  0
    1.0042   -0.8690    2.6353 C   0  0  0  0  0  0  0  0  0  0  0  0
   -0.4416   -1.4514    0.7206 N   0  0  0  0  0  0  0  0  0  0  0  0
   -0.8066   -2.6972    1.3143 C   0  0  0  0  0  0  0  0  0  0  0  0
   -0.1439   -3.9355    1.3144 C   0  0  0  0  0  0  0  0  0  0  0  0
   -0.8107   -5.0456    1.8570 C   0  0  0  0  0  0  0  0  0  0  0  0
   -2.0691   -4.9361    2.4451 C   0  0  0  0  0  0  0  0  0  0  0  0
   -2.7379   -3.7220    2.4716 C   0  0  0  0  0  0  0  0  0  0  0  0
   -2.1524   -2.6048    1.8591 C   0  0  0  0  0  0  0  0  0  0  0  0
   -2.6861   -1.3649    1.4635 C   0  0  0  0  0  0  0  0  0  0  0  0
   -4.0568   -1.1728    1.3812 C   0  0  0  0  0  0  0  0  0  0  0  0
   -4.5120   -0.7904    0.1206 C   0  0  0  0  0  0  0  0  0  0  0  0
   -3.4772   -0.1289   -0.5755 C   0  0  0  0  0  0  0  0  0  0  0  0
   -3.6600    1.2522   -0.7505 C   0  0  0  0  0  0  0  0  0  0  0  0
   -4.7207    2.1486   -0.6039 C   0  0  0  0  0  0  0  0  0  0  0  0
   -5.0197    2.7909   -1.7812 C   0  0  0  0  0  0  0  0  0  0  0  0
   -3.9891    2.9819   -2.6994 C   0  0  0  0  0  0  0  0  0  0  0  0
   -2.6371    2.6121   -2.4064 C   0  0  0  0  0  0  0  0  0  0  0  0
   -2.4464    1.7241   -1.3347 C   0  0  0  0  0  0  0  0  0  0  0  0
   -1.3348    1.0012   -0.7258 N   0  0  0  0  0  0  0  0  0  0  0  0
   -2.0815   -0.1211   -0.4205 C   0  0  0  0  0  0  0  0  0  0  0  0
   -1.6964   -1.0006    0.5588 C   0  0  0  0  0  0  0  0  0  0  0  0
   -5.9307   -0.6748    0.1480 C   0  0  0  0  0  0  0  0  0  0  0  0
   -6.7901   -0.5974   -0.7158 O   0  0  0  0  0  0  0  0  0  0  0  0
   -6.1971   -0.6869    1.5155 N   0  0  0  0  0  0  0  0  0  0  0  0
   -5.0351   -0.7436    2.3805 C   0  0  0  0  0  0  0  0  0  0  0  0
    0.6993   -2.4921   -1.3741 H   0  0  0  0  0  0  0  0  0  0  0  0
    2.3126   -2.5345   -0.6013 H   0  0  0  0  0  0  0  0  0  0  0  0
    2.1475   -2.1737   -2.3272 H   0  0  0  0  0  0  0  0  0  0  0  0
    2.5730   -0.8826    0.6585 H   0  0  0  0  0  0  0  0  0  0  0  0
    2.4362    1.4797    1.3135 H   0  0  0  0  0  0  0  0  0  0  0  0
    2.6551    3.2892   -1.3918 H   0  0  0  0  0  0  0  0  0  0  0  0
    4.3659    3.1768   -1.3794 H   0  0  0  0  0  0  0  0  0  0  0  0
    3.4410    2.1086   -2.4859 H   0  0  0  0  0  0  0  0  0  0  0  0
    5.8053   -1.4306   -1.3434 H   0  0  0  0  0  0  0  0  0  0  0  0
    8.6805    0.6087   -3.5176 H   0  0  0  0  0  0  0  0  0  0  0  0
    7.7287    2.8003   -2.7160 H   0  0  0  0  0  0  0  0  0  0  0  0
    0.9071    2.4421   -1.1483 H   0  0  0  0  0  0  0  0  0  0  0  0
    1.1003    3.0617    0.4874 H   0  0  0  0  0  0  0  0  0  0  0  0
   -1.0064    2.4442    0.6795 H   0  0  0  0  0  0  0  0  0  0  0  0
    1.5421   -1.8223    2.6448 H   0  0  0  0  0  0  0  0  0  0  0  0
    1.6472   -0.0983    3.0697 H   0  0  0  0  0  0  0  0  0  0  0  0
    0.1440   -0.9593    3.3139 H   0  0  0  0  0  0  0  0  0  0  0  0
    0.8168   -4.0674    0.8252 H   0  0  0  0  0  0  0  0  0  0  0  0
   -0.3501   -6.0290    1.7950 H   0  0  0  0  0  0  0  0  0  0  0  0
   -2.5728   -5.8138    2.8389 H   0  0  0  0  0  0  0  0  0  0  0  0
   -3.7477   -3.6531    2.8546 H   0  0  0  0  0  0  0  0  0  0  0  0
   -5.3800    2.1537    0.2546 H   0  0  0  0  0  0  0  0  0  0  0  0
   -6.0325    3.1530   -1.9509 H   0  0  0  0  0  0  0  0  0  0  0  0
   -4.2383    3.4762   -3.6360 H   0  0  0  0  0  0  0  0  0  0  0  0
   -1.8467    2.8856   -3.0838 H   0  0  0  0  0  0  0  0  0  0  0  0
   -7.1297   -0.5112    1.8408 H   0  0  0  0  0  0  0  0  0  0  0  0
   -4.7969    0.2926    2.6724 H   0  0  0  0  0  0  0  0  0  0  0  0
   -5.1536   -1.3936    3.2374 H   0  0  0  0  0  0  0  0  0  0  0  0
  1  2  1  0  0  0  0
  1 44  1  0  0  0  0
  1 45  1  0  0  0  0
  1 46  1  0  0  0  0
  3  4  1  0  0  0  0
  3 18  1  0  0  0  0
  3  2  1  0  0  0  0
  3 47  1  1  0  0  0
  4 15  1  0  0  0  0
  4  5  1  0  0  0  0
  4 48  1  1  0  0  0
  5  6  1  0  0  0  0
  5  7  1  0  0  0  0
  6 49  1  0  0  0  0
  6 50  1  0  0  0  0
  6 51  1  0  0  0  0
  7  8  2  0  0  0  0
  7  9  1  0  0  0  0
  9 10  1  0  0  0  0
  9 14  2  0  0  0  0
 10 11  2  0  0  0  0
 10 52  1  0  0  0  0
 11 12  1  0  0  0  0
 12 13  2  0  0  0  0
 12 53  1  0  0  0  0
 13 14  1  0  0  0  0
 13 54  1  0  0  0  0
 15 16  1  0  0  0  0
 15 55  1  0  0  0  0
 15 56  1  0  0  0  0
 16 17  1  0  0  0  0
 16 37  1  0  0  0  0
 16 57  1  1  0  0  0
 17 18  1  0  0  0  0
 18 20  1  0  0  0  0
 18 19  1  1  0  0  0
 19 58  1  0  0  0  0
 19 59  1  0  0  0  0
 19 60  1  0  0  0  0
 20 21  1  0  0  0  0
 20 39  1  0  0  0  0
 21 22  1  0  0  0  0
 21 26  2  0  0  0  0
 22 23  2  0  0  0  0
 22 61  1  0  0  0  0
 23 24  1  0  0  0  0
 23 62  1  0  0  0  0
 24 25  2  0  0  0  0
 24 63  1  0  0  0  0
 25 26  1  0  0  0  0
 25 64  1  0  0  0  0
 26 27  1  0  0  0  0
 27 28  1  0  0  0  0
 27 39  2  0  0  0  0
 28 29  2  0  0  0  0
 28 43  1  0  0  0  0
 29 30  1  0  0  0  0
 29 40  1  0  0  0  0
 30 31  1  0  0  0  0
 30 38  2  0  0  0  0
 31 32  1  0  0  0  0
 31 36  2  0  0  0  0
 32 33  2  0  0  0  0
 32 65  1  0  0  0  0
 33 34  1  0  0  0  0
 33 66  1  0  0  0  0
 34 35  2  0  0  0  0
 34 67  1  0  0  0  0
 35 36  1  0  0  0  0
 35 68  1  0  0  0  0
 36 37  1  0  0  0  0
 37 38  1  0  0  0  0
 38 39  1  0  0  0  0
 40 42  1  0  0  0  0
 40 41  2  0  0  0  0
 42 43  1  0  0  0  0
 42 69  1  0  0  0  0
 43 70  1  0  0  0  0
 43 71  1  0  0  0  0
M  END
$$$$
