MODEL 1
REMARK VINA RESULT:    -6.489      0.000      0.000
REMARK INTER + INTRA:          -8.509
REMARK INTER:                  -8.007
REMARK INTRA:                  -0.502
REMARK UNBOUND:                -0.502
REMARK  Name = 
REMARK  6 active torsions:
REMARK  status: ('A' for Active; 'I' for Inactive)
REMARK    1  A    between atoms: C_1  and  O_2
REMARK    2  A    between atoms: O_2  and  C_3
REMARK    3  A    between atoms: C_4  and  N_5
REMARK    4  A    between atoms: N_5  and  C_6
REMARK    5  A    between atoms: C_7  and  C_8
REMARK    6  A    between atoms: C_13  and  C_14
REMARK                            x       y       z     vdW  Elec       q    Type
REMARK                         _______ _______ _______ _____ _____    ______ ____
ROOT
ATOM      1  C   UNL     1     -11.454   3.495  20.112  0.00  0.00    +0.000 C 
ATOM      2  C   UNL     1     -10.622   2.614  19.170  0.00  0.00    +0.000 C 
ATOM      3  C   UNL     1     -10.249   1.315  19.988  0.00  0.00    +0.000 C 
ATOM      4  C   UNL     1     -11.464   0.647  20.763  0.00  0.00    +0.000 C 
ATOM      5  O   UNL     1     -12.681   1.243  20.387  0.00  0.00    +0.000 OA
ATOM      6  C   UNL     1     -12.736   2.686  20.565  0.00  0.00    +0.000 C 
ATOM      7  N   UNL     1     -13.054   2.982  21.975  0.00  0.00    +0.000 N 
ATOM      8  C   UNL     1     -13.540   4.213  22.460  0.00  0.00    +0.000 A 
ATOM      9  C   UNL     1     -14.517   5.068  21.889  0.00  0.00    +0.000 A 
ATOM     10  C   UNL     1     -15.018   6.137  22.629  0.00  0.00    +0.000 A 
ATOM     11  C   UNL     1     -14.531   6.406  23.898  0.00  0.00    +0.000 A 
ATOM     12  C   UNL     1     -13.425   5.707  24.407  0.00  0.00    +0.000 A 
ATOM     13  C   UNL     1     -12.878   4.621  23.692  0.00  0.00    +0.000 A 
ATOM     14  C   UNL     1     -11.796   3.713  23.896  0.00  0.00    +0.000 A 
ATOM     15  C   UNL     1     -10.504   3.928  24.469  0.00  0.00    +0.000 A 
ATOM     16  C   UNL     1      -9.583   2.859  24.276  0.00  0.00    +0.000 A 
ATOM     17  C   UNL     1     -10.139   1.733  23.658  0.00  0.00    +0.000 A 
ATOM     18  C   UNL     1      -9.576   0.469  23.419  0.00  0.00    +0.000 A 
ATOM     19  C   UNL     1      -8.362  -0.212  23.567  0.00  0.00    +0.000 A 
ATOM     20  C   UNL     1      -8.417  -1.601  23.721  0.00  0.00    +0.000 A 
ATOM     21  C   UNL     1      -9.645  -2.259  23.833  0.00  0.00    +0.000 A 
ATOM     22  C   UNL     1     -10.828  -1.630  23.441  0.00  0.00    +0.000 A 
ATOM     23  C   UNL     1     -10.690  -0.319  22.975  0.00  0.00    +0.000 A 
ATOM     24  N   UNL     1     -11.527   0.526  22.222  0.00  0.00    +0.000 N 
ATOM     25  C   UNL     1     -11.333   1.627  22.977  0.00  0.00    +0.000 A 
ATOM     26  C   UNL     1     -12.164   2.726  22.974  0.00  0.00    +0.000 A 
ATOM     27  C   UNL     1      -8.249   3.267  24.522  0.00  0.00    +0.000 C 
ATOM     28  O   UNL     1      -7.156   2.732  24.379  0.00  0.00    +0.000 OA
ATOM     29  N   UNL     1      -8.397   4.609  24.855  0.00  0.00    +0.000 N 
ATOM     30  C   UNL     1      -9.770   5.135  24.864  0.00  0.00    +0.000 C 
ATOM     31  H   UNL     1     -11.814   4.423  19.654  0.00  0.00    +0.000 HD
ATOM     32  H   UNL     1     -11.257   2.294  18.334  0.00  0.00    +0.000 HD
ATOM     33  H   UNL     1      -9.911   0.577  19.246  0.00  0.00    +0.000 HD
ATOM     34  H   UNL     1      -9.398   1.471  20.659  0.00  0.00    +0.000 HD
ATOM     35  H   UNL     1     -11.511  -0.402  20.432  0.00  0.00    +0.000 HD
ATOM     36  H   UNL     1     -14.942   4.877  20.913  0.00  0.00    +0.000 HD
ATOM     37  H   UNL     1     -15.832   6.725  22.213  0.00  0.00    +0.000 HD
ATOM     38  H   UNL     1     -15.021   7.167  24.499  0.00  0.00    +0.000 HD
ATOM     39  H   UNL     1     -13.067   5.943  25.406  0.00  0.00    +0.000 HD
ATOM     40  H   UNL     1      -7.421   0.323  23.603  0.00  0.00    +0.000 HD
ATOM     41  H   UNL     1      -7.493  -2.159  23.838  0.00  0.00    +0.000 HD
ATOM     42  H   UNL     1      -9.674  -3.288  24.186  0.00  0.00    +0.000 HD
ATOM     43  H   UNL     1     -11.792  -2.127  23.506  0.00  0.00    +0.000 HD
ATOM     44  H   UNL     1      -7.565   5.181  24.799  0.00  0.00    +0.000 HD
ATOM     45  H   UNL     1      -9.997   5.491  25.866  0.00  0.00    +0.000 HD
ATOM     46  H   UNL     1      -9.838   5.926  24.115  0.00  0.00    +0.000 HD
ENDROOT
BRANCH   6  47
ATOM     47  C   UNL     1     -13.907   2.948  19.587  0.00  0.00    +0.000 C 
ATOM     48  H   UNL     1     -14.517   3.792  19.939  0.00  0.00    +0.000 HD
ATOM     49  H   UNL     1     -13.542   3.233  18.599  0.00  0.00    +0.000 HD
ATOM     50  H   UNL     1     -14.578   2.091  19.498  0.00  0.00    +0.000 HD
ENDBRANCH   6  47
BRANCH   2  51
ATOM     51  N   UNL     1      -9.545   3.451  18.485  0.00  0.00    +0.000 N 
ATOM     52  C   UNL     1      -9.820   4.529  17.642  0.00  0.00    +0.000 C 
ATOM     53  O   UNL     1     -10.945   4.999  17.492  0.00  0.00    +0.000 OA
BRANCH  51  54
ATOM     54  C   UNL     1      -8.139   3.138  18.796  0.00  0.00    +0.000 C 
ATOM     55  H   UNL     1      -7.772   3.848  19.544  0.00  0.00    +0.000 HD
ATOM     56  H   UNL     1      -8.013   2.128  19.183  0.00  0.00    +0.000 HD
ATOM     57  H   UNL     1      -7.516   3.221  17.902  0.00  0.00    +0.000 HD
ENDBRANCH  51  54
BRANCH  52  58
ATOM     58  C   UNL     1      -8.645   5.134  16.880  0.00  0.00    +0.000 C 
ATOM     59  H   UNL     1      -8.098   5.838  17.513  0.00  0.00    +0.000 HD
ATOM     60  H   UNL     1      -9.016   5.670  16.000  0.00  0.00    +0.000 HD
ATOM     61  H   UNL     1      -7.965   4.367  16.497  0.00  0.00    +0.000 HD
ENDBRANCH  52  58
ENDBRANCH   2  51
BRANCH   1  62
ATOM     62  O   UNL     1     -10.607   3.910  21.196  0.00  0.00    +0.000 OA
BRANCH  62  63
ATOM     63  C   UNL     1     -10.109   5.237  21.208  0.00  0.00    +0.000 C 
ATOM     64  H   UNL     1      -9.060   5.224  20.904  0.00  0.00    +0.000 HD
ATOM     65  H   UNL     1     -10.150   5.689  22.198  0.00  0.00    +0.000 HD
ATOM     66  H   UNL     1     -10.638   5.842  20.467  0.00  0.00    +0.000 HD
ENDBRANCH  62  63
ENDBRANCH   1  62
TORSDOF 6
ENDMDL
MODEL 2
REMARK VINA RESULT:    -6.246      7.212      9.767
REMARK INTER + INTRA:          -8.208
REMARK INTER:                  -7.685
REMARK INTRA:                  -0.523
REMARK UNBOUND:                -0.502
REMARK  Name = 
REMARK  6 active torsions:
REMARK  status: ('A' for Active; 'I' for Inactive)
REMARK    1  A    between atoms: C_1  and  O_2
REMARK    2  A    between atoms: O_2  and  C_3
REMARK    3  A    between atoms: C_4  and  N_5
REMARK    4  A    between atoms: N_5  and  C_6
REMARK    5  A    between atoms: C_7  and  C_8
REMARK    6  A    between atoms: C_13  and  C_14
REMARK                            x       y       z     vdW  Elec       q    Type
REMARK                         _______ _______ _______ _____ _____    ______ ____
ROOT
ATOM      1  C   UNL     1      -9.956  -0.355  12.110  0.00  0.00    +0.000 C 
ATOM      2  C   UNL     1      -8.590  -0.866  12.589  0.00  0.00    +0.000 C 
ATOM      3  C   UNL     1      -8.885  -2.022  13.625  0.00  0.00    +0.000 C 
ATOM      4  C   UNL     1      -9.958  -3.090  13.140  0.00  0.00    +0.000 C 
ATOM      5  O   UNL     1     -10.275  -2.894  11.785  0.00  0.00    +0.000 OA
ATOM      6  C   UNL     1     -10.747  -1.558  11.452  0.00  0.00    +0.000 C 
ATOM      7  N   UNL     1     -12.182  -1.462  11.778  0.00  0.00    +0.000 N 
ATOM      8  C   UNL     1     -13.067  -0.484  11.282  0.00  0.00    +0.000 A 
ATOM      9  C   UNL     1     -13.161   0.045   9.969  0.00  0.00    +0.000 A 
ATOM     10  C   UNL     1     -14.243   0.851   9.624  0.00  0.00    +0.000 A 
ATOM     11  C   UNL     1     -15.201   1.188  10.568  0.00  0.00    +0.000 A 
ATOM     12  C   UNL     1     -15.028   0.853  11.920  0.00  0.00    +0.000 A 
ATOM     13  C   UNL     1     -13.945   0.043  12.319  0.00  0.00    +0.000 A 
ATOM     14  C   UNL     1     -13.472  -0.480  13.561  0.00  0.00    +0.000 A 
ATOM     15  C   UNL     1     -13.459   0.104  14.865  0.00  0.00    +0.000 A 
ATOM     16  C   UNL     1     -12.674  -0.599  15.824  0.00  0.00    +0.000 A 
ATOM     17  C   UNL     1     -12.146  -1.807  15.351  0.00  0.00    +0.000 A 
ATOM     18  C   UNL     1     -11.438  -2.806  16.036  0.00  0.00    +0.000 A 
ATOM     19  C   UNL     1     -10.904  -3.069  17.303  0.00  0.00    +0.000 A 
ATOM     20  C   UNL     1     -10.784  -4.409  17.687  0.00  0.00    +0.000 A 
ATOM     21  C   UNL     1     -11.281  -5.432  16.875  0.00  0.00    +0.000 A 
ATOM     22  C   UNL     1     -11.577  -5.194  15.531  0.00  0.00    +0.000 A 
ATOM     23  C   UNL     1     -11.372  -3.883  15.090  0.00  0.00    +0.000 A 
ATOM     24  N   UNL     1     -11.243  -3.309  13.811  0.00  0.00    +0.000 N 
ATOM     25  C   UNL     1     -12.044  -2.250  14.050  0.00  0.00    +0.000 A 
ATOM     26  C   UNL     1     -12.622  -1.477  13.067  0.00  0.00    +0.000 A 
ATOM     27  C   UNL     1     -12.394   0.200  16.959  0.00  0.00    +0.000 C 
ATOM     28  O   UNL     1     -11.687   0.054  17.949  0.00  0.00    +0.000 OA
ATOM     29  N   UNL     1     -13.021   1.402  16.648  0.00  0.00    +0.000 N 
ATOM     30  C   UNL     1     -13.731   1.458  15.361  0.00  0.00    +0.000 C 
ATOM     31  H   UNL     1      -9.897   0.433  11.351  0.00  0.00    +0.000 HD
ATOM     32  H   UNL     1      -8.067  -1.324  11.740  0.00  0.00    +0.000 HD
ATOM     33  H   UNL     1      -7.939  -2.568  13.747  0.00  0.00    +0.000 HD
ATOM     34  H   UNL     1      -9.138  -1.641  14.620  0.00  0.00    +0.000 HD
ATOM     35  H   UNL     1      -9.477  -4.076  13.214  0.00  0.00    +0.000 HD
ATOM     36  H   UNL     1     -12.450  -0.215   9.198  0.00  0.00    +0.000 HD
ATOM     37  H   UNL     1     -14.349   1.171   8.591  0.00  0.00    +0.000 HD
ATOM     38  H   UNL     1     -16.095   1.715  10.244  0.00  0.00    +0.000 HD
ATOM     39  H   UNL     1     -15.798   1.133  12.634  0.00  0.00    +0.000 HD
ATOM     40  H   UNL     1     -10.636  -2.264  17.976  0.00  0.00    +0.000 HD
ATOM     41  H   UNL     1     -10.374  -4.646  18.664  0.00  0.00    +0.000 HD
ATOM     42  H   UNL     1     -11.398  -6.434  17.282  0.00  0.00    +0.000 HD
ATOM     43  H   UNL     1     -11.952  -5.977  14.878  0.00  0.00    +0.000 HD
ATOM     44  H   UNL     1     -12.727   2.213  17.175  0.00  0.00    +0.000 HD
ATOM     45  H   UNL     1     -14.780   1.664  15.554  0.00  0.00    +0.000 HD
ATOM     46  H   UNL     1     -13.261   2.228  14.746  0.00  0.00    +0.000 HD
ENDROOT
BRANCH   6  47
ATOM     47  C   UNL     1     -10.448  -1.629   9.935  0.00  0.00    +0.000 C 
ATOM     48  H   UNL     1     -11.023  -2.442   9.470  0.00  0.00    +0.000 HD
ATOM     49  H   UNL     1     -10.757  -0.714   9.428  0.00  0.00    +0.000 HD
ATOM     50  H   UNL     1      -9.395  -1.829   9.724  0.00  0.00    +0.000 HD
ENDBRANCH   6  47
BRANCH   2  51
ATOM     51  N   UNL     1      -7.690   0.310  12.956  0.00  0.00    +0.000 N 
ATOM     52  C   UNL     1      -7.164   1.205  12.023  0.00  0.00    +0.000 C 
ATOM     53  O   UNL     1      -7.497   1.220  10.841  0.00  0.00    +0.000 OA
BRANCH  51  54
ATOM     54  C   UNL     1      -7.428   0.546  14.387  0.00  0.00    +0.000 C 
ATOM     55  H   UNL     1      -8.191   0.033  14.981  0.00  0.00    +0.000 HD
ATOM     56  H   UNL     1      -6.447   0.186  14.696  0.00  0.00    +0.000 HD
ATOM     57  H   UNL     1      -7.467   1.614  14.618  0.00  0.00    +0.000 HD
ENDBRANCH  51  54
BRANCH  52  58
ATOM     58  C   UNL     1      -6.125   2.203  12.524  0.00  0.00    +0.000 C 
ATOM     59  H   UNL     1      -5.732   1.893  13.496  0.00  0.00    +0.000 HD
ATOM     60  H   UNL     1      -6.587   3.190  12.632  0.00  0.00    +0.000 HD
ATOM     61  H   UNL     1      -5.304   2.333  11.813  0.00  0.00    +0.000 HD
ENDBRANCH  52  58
ENDBRANCH   2  51
BRANCH   1  62
ATOM     62  O   UNL     1     -10.624   0.245  13.231  0.00  0.00    +0.000 OA
BRANCH  62  63
ATOM     63  C   UNL     1     -10.693   1.659  13.311  0.00  0.00    +0.000 C 
ATOM     64  H   UNL     1     -11.327   2.029  12.502  0.00  0.00    +0.000 HD
ATOM     65  H   UNL     1      -9.718   2.131  13.195  0.00  0.00    +0.000 HD
ATOM     66  H   UNL     1     -11.177   1.957  14.244  0.00  0.00    +0.000 HD
ENDBRANCH  62  63
ENDBRANCH   1  62
TORSDOF 6
ENDMDL
MODEL 3
REMARK VINA RESULT:    -6.073      7.503     11.293
REMARK INTER + INTRA:          -7.996
REMARK INTER:                  -7.472
REMARK INTRA:                  -0.524
REMARK UNBOUND:                -0.502
REMARK  Name = 
REMARK  6 active torsions:
REMARK  status: ('A' for Active; 'I' for Inactive)
REMARK    1  A    between atoms: C_1  and  O_2
REMARK    2  A    between atoms: O_2  and  C_3
REMARK    3  A    between atoms: C_4  and  N_5
REMARK    4  A    between atoms: N_5  and  C_6
REMARK    5  A    between atoms: C_7  and  C_8
REMARK    6  A    between atoms: C_13  and  C_14
REMARK                            x       y       z     vdW  Elec       q    Type
REMARK                         _______ _______ _______ _____ _____    ______ ____
ROOT
ATOM      1  C   UNL     1      -9.762  -0.084  14.338  0.00  0.00    +0.000 C 
ATOM      2  C   UNL     1      -9.552   1.301  13.712  0.00  0.00    +0.000 C 
ATOM      3  C   UNL     1     -10.915   1.683  13.009  0.00  0.00    +0.000 C 
ATOM      4  C   UNL     1     -12.209   1.451  13.901  0.00  0.00    +0.000 C 
ATOM      5  O   UNL     1     -11.851   1.142  15.224  0.00  0.00    +0.000 OA
ATOM      6  C   UNL     1     -10.961  -0.001  15.368  0.00  0.00    +0.000 C 
ATOM      7  N   UNL     1     -11.761  -1.239  15.319  0.00  0.00    +0.000 N 
ATOM      8  C   UNL     1     -11.334  -2.504  15.772  0.00  0.00    +0.000 A 
ATOM      9  C   UNL     1     -10.603  -2.827  16.943  0.00  0.00    +0.000 A 
ATOM     10  C   UNL     1     -10.462  -4.158  17.325  0.00  0.00    +0.000 A 
ATOM     11  C   UNL     1     -10.983  -5.176  16.541  0.00  0.00    +0.000 A 
ATOM     12  C   UNL     1     -11.529  -4.903  15.277  0.00  0.00    +0.000 A 
ATOM     13  C   UNL     1     -11.687  -3.570  14.844  0.00  0.00    +0.000 A 
ATOM     14  C   UNL     1     -12.187  -2.939  13.665  0.00  0.00    +0.000 A 
ATOM     15  C   UNL     1     -12.081  -3.326  12.293  0.00  0.00    +0.000 A 
ATOM     16  C   UNL     1     -12.474  -2.324  11.360  0.00  0.00    +0.000 A 
ATOM     17  C   UNL     1     -13.007  -1.173  11.953  0.00  0.00    +0.000 A 
ATOM     18  C   UNL     1     -13.600  -0.049  11.357  0.00  0.00    +0.000 A 
ATOM     19  C   UNL     1     -13.868   0.480  10.089  0.00  0.00    +0.000 A 
ATOM     20  C   UNL     1     -14.968   1.337   9.967  0.00  0.00    +0.000 A 
ATOM     21  C   UNL     1     -15.821   1.562  11.051  0.00  0.00    +0.000 A 
ATOM     22  C   UNL     1     -15.422   1.244  12.350  0.00  0.00    +0.000 A 
ATOM     23  C   UNL     1     -14.151   0.672  12.469  0.00  0.00    +0.000 A 
ATOM     24  N   UNL     1     -13.272   0.502  13.555  0.00  0.00    +0.000 N 
ATOM     25  C   UNL     1     -12.939  -0.774  13.270  0.00  0.00    +0.000 A 
ATOM     26  C   UNL     1     -12.372  -1.647  14.172  0.00  0.00    +0.000 A 
ATOM     27  C   UNL     1     -12.006  -2.611  10.055  0.00  0.00    +0.000 C 
ATOM     28  O   UNL     1     -12.011  -1.996   8.995  0.00  0.00    +0.000 OA
ATOM     29  N   UNL     1     -11.313  -3.804  10.235  0.00  0.00    +0.000 N 
ATOM     30  C   UNL     1     -11.299  -4.355  11.598  0.00  0.00    +0.000 C 
ATOM     31  H   UNL     1      -8.896  -0.458  14.895  0.00  0.00    +0.000 HD
ATOM     32  H   UNL     1      -9.392   2.031  14.515  0.00  0.00    +0.000 HD
ATOM     33  H   UNL     1     -10.862   2.765  12.816  0.00  0.00    +0.000 HD
ATOM     34  H   UNL     1     -11.028   1.212  12.028  0.00  0.00    +0.000 HD
ATOM     35  H   UNL     1     -12.746   2.411  13.934  0.00  0.00    +0.000 HD
ATOM     36  H   UNL     1     -10.205  -2.062  17.596  0.00  0.00    +0.000 HD
ATOM     37  H   UNL     1      -9.980  -4.383  18.274  0.00  0.00    +0.000 HD
ATOM     38  H   UNL     1     -10.965  -6.194  16.922  0.00  0.00    +0.000 HD
ATOM     39  H   UNL     1     -11.927  -5.724  14.687  0.00  0.00    +0.000 HD
ATOM     40  H   UNL     1     -13.273   0.201   9.229  0.00  0.00    +0.000 HD
ATOM     41  H   UNL     1     -15.202   1.763   8.997  0.00  0.00    +0.000 HD
ATOM     42  H   UNL     1     -16.789   2.029  10.885  0.00  0.00    +0.000 HD
ATOM     43  H   UNL     1     -16.063   1.423  13.209  0.00  0.00    +0.000 HD
ATOM     44  H   UNL     1     -10.659  -4.058   9.507  0.00  0.00    +0.000 HD
ATOM     45  H   UNL     1     -11.764  -5.337  11.579  0.00  0.00    +0.000 HD
ATOM     46  H   UNL     1     -10.263  -4.391  11.941  0.00  0.00    +0.000 HD
ENDROOT
BRANCH   6  47
ATOM     47  C   UNL     1     -10.432   0.352  16.778  0.00  0.00    +0.000 C 
ATOM     48  H   UNL     1     -11.023   1.169  17.215  0.00  0.00    +0.000 HD
ATOM     49  H   UNL     1     -10.535  -0.491  17.463  0.00  0.00    +0.000 HD
ATOM     50  H   UNL     1      -9.393   0.689  16.764  0.00  0.00    +0.000 HD
ENDBRANCH   6  47
BRANCH   2  51
ATOM     51  N   UNL     1      -8.233   1.336  12.945  0.00  0.00    +0.000 N 
ATOM     52  C   UNL     1      -6.981   1.208  13.549  0.00  0.00    +0.000 C 
ATOM     53  O   UNL     1      -6.830   0.908  14.730  0.00  0.00    +0.000 OA
BRANCH  51  54
ATOM     54  C   UNL     1      -8.302   1.435  11.477  0.00  0.00    +0.000 C 
ATOM     55  H   UNL     1      -7.476   2.060  11.121  0.00  0.00    +0.000 HD
ATOM     56  H   UNL     1      -8.237   0.462  10.989  0.00  0.00    +0.000 HD
ATOM     57  H   UNL     1      -9.244   1.891  11.161  0.00  0.00    +0.000 HD
ENDBRANCH  51  54
BRANCH  52  58
ATOM     58  C   UNL     1      -5.758   1.463  12.675  0.00  0.00    +0.000 C 
ATOM     59  H   UNL     1      -5.945   1.140  11.648  0.00  0.00    +0.000 HD
ATOM     60  H   UNL     1      -4.904   0.902  13.068  0.00  0.00    +0.000 HD
ATOM     61  H   UNL     1      -5.455   2.515  12.688  0.00  0.00    +0.000 HD
ENDBRANCH  52  58
ENDBRANCH   2  51
BRANCH   1  62
ATOM     62  O   UNL     1      -9.965  -1.027  13.274  0.00  0.00    +0.000 OA
BRANCH  62  63
ATOM     63  C   UNL     1      -8.908  -1.904  12.924  0.00  0.00    +0.000 C 
ATOM     64  H   UNL     1      -8.655  -1.753  11.872  0.00  0.00    +0.000 HD
ATOM     65  H   UNL     1      -9.180  -2.953  13.040  0.00  0.00    +0.000 HD
ATOM     66  H   UNL     1      -8.011  -1.655  13.496  0.00  0.00    +0.000 HD
ENDBRANCH  62  63
ENDBRANCH   1  62
TORSDOF 6
ENDMDL
MODEL 4
REMARK VINA RESULT:    -6.014      5.374      9.346
REMARK INTER + INTRA:          -7.922
REMARK INTER:                  -7.425
REMARK INTRA:                  -0.497
REMARK UNBOUND:                -0.502
REMARK  Name = 
REMARK  6 active torsions:
REMARK  status: ('A' for Active; 'I' for Inactive)
REMARK    1  A    between atoms: C_1  and  O_2
REMARK    2  A    between atoms: O_2  and  C_3
REMARK    3  A    between atoms: C_4  and  N_5
REMARK    4  A    between atoms: N_5  and  C_6
REMARK    5  A    between atoms: C_7  and  C_8
REMARK    6  A    between atoms: C_13  and  C_14
REMARK                            x       y       z     vdW  Elec       q    Type
REMARK                         _______ _______ _______ _____ _____    ______ ____
ROOT
ATOM      1  C   UNL     1      -9.436   0.254  16.834  0.00  0.00    +0.000 C 
ATOM      2  C   UNL     1      -9.434   1.765  16.567  0.00  0.00    +0.000 C 
ATOM      3  C   UNL     1     -10.924   2.157  16.216  0.00  0.00    +0.000 C 
ATOM      4  C   UNL     1     -12.016   1.572  17.211  0.00  0.00    +0.000 C 
ATOM      5  O   UNL     1     -11.403   0.987  18.332  0.00  0.00    +0.000 OA
ATOM      6  C   UNL     1     -10.430  -0.051  18.028  0.00  0.00    +0.000 C 
ATOM      7  N   UNL     1     -11.143  -1.319  17.785  0.00  0.00    +0.000 N 
ATOM      8  C   UNL     1     -10.559  -2.602  17.817  0.00  0.00    +0.000 A 
ATOM      9  C   UNL     1      -9.607  -3.122  18.731  0.00  0.00    +0.000 A 
ATOM     10  C   UNL     1      -9.312  -4.482  18.723  0.00  0.00    +0.000 A 
ATOM     11  C   UNL     1      -9.900  -5.326  17.794  0.00  0.00    +0.000 A 
ATOM     12  C   UNL     1     -10.684  -4.811  16.750  0.00  0.00    +0.000 A 
ATOM     13  C   UNL     1     -11.005  -3.439  16.711  0.00  0.00    +0.000 A 
ATOM     14  C   UNL     1     -11.752  -2.595  15.834  0.00  0.00    +0.000 A 
ATOM     15  C   UNL     1     -11.874  -2.619  14.410  0.00  0.00    +0.000 A 
ATOM     16  C   UNL     1     -12.495  -1.467  13.847  0.00  0.00    +0.000 A 
ATOM     17  C   UNL     1     -12.984  -0.563  14.798  0.00  0.00    +0.000 A 
ATOM     18  C   UNL     1     -13.748   0.601  14.620  0.00  0.00    +0.000 A 
ATOM     19  C   UNL     1     -14.277   1.393  13.594  0.00  0.00    +0.000 A 
ATOM     20  C   UNL     1     -15.433   2.128  13.878  0.00  0.00    +0.000 A 
ATOM     21  C   UNL     1     -16.087   1.984  15.104  0.00  0.00    +0.000 A 
ATOM     22  C   UNL     1     -15.437   1.402  16.195  0.00  0.00    +0.000 A 
ATOM     23  C   UNL     1     -14.132   0.961  15.955  0.00  0.00    +0.000 A 
ATOM     24  N   UNL     1     -13.060   0.627  16.803  0.00  0.00    +0.000 N 
ATOM     25  C   UNL     1     -12.703  -0.496  16.145  0.00  0.00    +0.000 A 
ATOM     26  C   UNL     1     -11.925  -1.497  16.684  0.00  0.00    +0.000 A 
ATOM     27  C   UNL     1     -12.255  -1.371  12.454  0.00  0.00    +0.000 C 
ATOM     28  O   UNL     1     -12.493  -0.518  11.608  0.00  0.00    +0.000 OA
ATOM     29  N   UNL     1     -11.465  -2.488  12.203  0.00  0.00    +0.000 N 
ATOM     30  C   UNL     1     -11.166  -3.352  13.354  0.00  0.00    +0.000 C 
ATOM     31  H   UNL     1      -8.460  -0.149  17.128  0.00  0.00    +0.000 HD
ATOM     32  H   UNL     1      -9.177   2.288  17.497  0.00  0.00    +0.000 HD
ATOM     33  H   UNL     1     -10.978   3.251  16.306  0.00  0.00    +0.000 HD
ATOM     34  H   UNL     1     -11.184   1.932  15.177  0.00  0.00    +0.000 HD
ATOM     35  H   UNL     1     -12.599   2.429  17.580  0.00  0.00    +0.000 HD
ATOM     36  H   UNL     1      -9.147  -2.502  19.488  0.00  0.00    +0.000 HD
ATOM     37  H   UNL     1      -8.651  -4.879  19.490  0.00  0.00    +0.000 HD
ATOM     38  H   UNL     1      -9.747  -6.398  17.886  0.00  0.00    +0.000 HD
ATOM     39  H   UNL     1     -11.130  -5.501  16.037  0.00  0.00    +0.000 HD
ATOM     40  H   UNL     1     -13.832   1.402  12.607  0.00  0.00    +0.000 HD
ATOM     41  H   UNL     1     -15.868   2.752  13.104  0.00  0.00    +0.000 HD
ATOM     42  H   UNL     1     -17.098   2.369  15.224  0.00  0.00    +0.000 HD
ATOM     43  H   UNL     1     -15.921   1.293  17.161  0.00  0.00    +0.000 HD
ATOM     44  H   UNL     1     -10.940  -2.482  11.339  0.00  0.00    +0.000 HD
ATOM     45  H   UNL     1     -11.563  -4.344  13.153  0.00  0.00    +0.000 HD
ATOM     46  H   UNL     1     -10.085  -3.358  13.505  0.00  0.00    +0.000 HD
ENDROOT
BRANCH   6  47
ATOM     47  C   UNL     1      -9.676  -0.001  19.378  0.00  0.00    +0.000 C 
ATOM     48  H   UNL     1      -8.777  -0.631  19.338  0.00  0.00    +0.000 HD
ATOM     49  H   UNL     1      -9.324   1.009  19.598  0.00  0.00    +0.000 HD
ATOM     50  H   UNL     1     -10.281  -0.368  20.210  0.00  0.00    +0.000 HD
ENDBRANCH   6  47
BRANCH   2  51
ATOM     51  N   UNL     1      -8.283   2.131  15.635  0.00  0.00    +0.000 N 
ATOM     52  C   UNL     1      -6.938   2.083  16.007  0.00  0.00    +0.000 C 
ATOM     53  O   UNL     1      -6.549   1.600  17.067  0.00  0.00    +0.000 OA
BRANCH  51  54
ATOM     54  C   UNL     1      -8.618   2.484  14.244  0.00  0.00    +0.000 C 
ATOM     55  H   UNL     1      -8.823   3.557  14.186  0.00  0.00    +0.000 HD
ATOM     56  H   UNL     1      -7.814   2.245  13.549  0.00  0.00    +0.000 HD
ATOM     57  H   UNL     1      -9.505   1.941  13.909  0.00  0.00    +0.000 HD
ENDBRANCH  51  54
BRANCH  52  58
ATOM     58  C   UNL     1      -5.924   2.669  15.031  0.00  0.00    +0.000 C 
ATOM     59  H   UNL     1      -4.931   2.708  15.486  0.00  0.00    +0.000 HD
ATOM     60  H   UNL     1      -6.224   3.686  14.757  0.00  0.00    +0.000 HD
ATOM     61  H   UNL     1      -5.884   2.107  14.093  0.00  0.00    +0.000 HD
ENDBRANCH  52  58
ENDBRANCH   2  51
BRANCH   1  62
ATOM     62  O   UNL     1      -9.768  -0.414  15.606  0.00  0.00    +0.000 OA
BRANCH  62  63
ATOM     63  C   UNL     1      -8.726  -0.987  14.834  0.00  0.00    +0.000 C 
ATOM     64  H   UNL     1      -7.836  -1.087  15.458  0.00  0.00    +0.000 HD
ATOM     65  H   UNL     1      -8.452  -0.369  13.980  0.00  0.00    +0.000 HD
ATOM     66  H   UNL     1      -9.003  -1.999  14.526  0.00  0.00    +0.000 HD
ENDBRANCH  62  63
ENDBRANCH   1  62
TORSDOF 6
ENDMDL
MODEL 5
REMARK VINA RESULT:    -5.694      6.042      8.049
REMARK INTER + INTRA:          -7.528
REMARK INTER:                  -7.080
REMARK INTRA:                  -0.448
REMARK UNBOUND:                -0.502
REMARK  Name = 
REMARK  6 active torsions:
REMARK  status: ('A' for Active; 'I' for Inactive)
REMARK    1  A    between atoms: C_1  and  O_2
REMARK    2  A    between atoms: O_2  and  C_3
REMARK    3  A    between atoms: C_4  and  N_5
REMARK    4  A    between atoms: N_5  and  C_6
REMARK    5  A    between atoms: C_7  and  C_8
REMARK    6  A    between atoms: C_13  and  C_14
REMARK                            x       y       z     vdW  Elec       q    Type
REMARK                         _______ _______ _______ _____ _____    ______ ____
ROOT
ATOM      1  C   UNL     1     -10.605  -0.272  13.300  0.00  0.00    +0.000 C 
ATOM      2  C   UNL     1      -9.274  -1.014  13.116  0.00  0.00    +0.000 C 
ATOM      3  C   UNL     1      -9.316  -2.255  14.093  0.00  0.00    +0.000 C 
ATOM      4  C   UNL     1     -10.661  -3.100  14.035  0.00  0.00    +0.000 C 
ATOM      5  O   UNL     1     -11.465  -2.679  12.960  0.00  0.00    +0.000 OA
ATOM      6  C   UNL     1     -11.791  -1.262  12.956  0.00  0.00    +0.000 C 
ATOM      7  N   UNL     1     -12.928  -1.030  13.867  0.00  0.00    +0.000 N 
ATOM      8  C   UNL     1     -13.753   0.113  13.866  0.00  0.00    +0.000 A 
ATOM      9  C   UNL     1     -14.282   0.825  12.759  0.00  0.00    +0.000 A 
ATOM     10  C   UNL     1     -15.252   1.803  12.965  0.00  0.00    +0.000 A 
ATOM     11  C   UNL     1     -15.667   2.125  14.248  0.00  0.00    +0.000 A 
ATOM     12  C   UNL     1     -15.018   1.587  15.370  0.00  0.00    +0.000 A 
ATOM     13  C   UNL     1     -14.025   0.599  15.213  0.00  0.00    +0.000 A 
ATOM     14  C   UNL     1     -13.185  -0.147  16.094  0.00  0.00    +0.000 A 
ATOM     15  C   UNL     1     -12.540   0.245  17.308  0.00  0.00    +0.000 A 
ATOM     16  C   UNL     1     -11.568  -0.678  17.789  0.00  0.00    +0.000 A 
ATOM     17  C   UNL     1     -11.497  -1.866  17.051  0.00  0.00    +0.000 A 
ATOM     18  C   UNL     1     -10.756  -3.033  17.297  0.00  0.00    +0.000 A 
ATOM     19  C   UNL     1      -9.807  -3.534  18.195  0.00  0.00    +0.000 A 
ATOM     20  C   UNL     1      -9.775  -4.919  18.394  0.00  0.00    +0.000 A 
ATOM     21  C   UNL     1     -10.730  -5.747  17.799  0.00  0.00    +0.000 A 
ATOM     22  C   UNL     1     -11.502  -5.291  16.729  0.00  0.00    +0.000 A 
ATOM     23  C   UNL     1     -11.270  -3.968  16.337  0.00  0.00    +0.000 A 
ATOM     24  N   UNL     1     -11.577  -3.244  15.170  0.00  0.00    +0.000 N 
ATOM     25  C   UNL     1     -12.013  -2.134  15.802  0.00  0.00    +0.000 A 
ATOM     26  C   UNL     1     -12.799  -1.166  15.216  0.00  0.00    +0.000 A 
ATOM     27  C   UNL     1     -10.714  -0.085  18.752  0.00  0.00    +0.000 C 
ATOM     28  O   UNL     1      -9.703  -0.456  19.334  0.00  0.00    +0.000 OA
ATOM     29  N   UNL     1     -11.195   1.218  18.824  0.00  0.00    +0.000 N 
ATOM     30  C   UNL     1     -12.346   1.541  17.968  0.00  0.00    +0.000 C 
ATOM     31  H   UNL     1     -10.724   0.600  12.647  0.00  0.00    +0.000 HD
ATOM     32  H   UNL     1      -9.231  -1.413  12.095  0.00  0.00    +0.000 HD
ATOM     33  H   UNL     1      -8.513  -2.929  13.762  0.00  0.00    +0.000 HD
ATOM     34  H   UNL     1      -9.070  -1.986  15.125  0.00  0.00    +0.000 HD
ATOM     35  H   UNL     1     -10.372  -4.140  13.826  0.00  0.00    +0.000 HD
ATOM     36  H   UNL     1     -14.004   0.586  11.742  0.00  0.00    +0.000 HD
ATOM     37  H   UNL     1     -15.713   2.273  12.100  0.00  0.00    +0.000 HD
ATOM     38  H   UNL     1     -16.508   2.802  14.373  0.00  0.00    +0.000 HD
ATOM     39  H   UNL     1     -15.368   1.862  16.363  0.00  0.00    +0.000 HD
ATOM     40  H   UNL     1      -9.152  -2.870  18.745  0.00  0.00    +0.000 HD
ATOM     41  H   UNL     1      -9.050  -5.339  19.084  0.00  0.00    +0.000 HD
ATOM     42  H   UNL     1     -10.842  -6.773  18.143  0.00  0.00    +0.000 HD
ATOM     43  H   UNL     1     -12.241  -5.921  16.242  0.00  0.00    +0.000 HD
ATOM     44  H   UNL     1     -10.575   1.904  19.233  0.00  0.00    +0.000 HD
ATOM     45  H   UNL     1     -13.172   1.850  18.603  0.00  0.00    +0.000 HD
ATOM     46  H   UNL     1     -12.042   2.322  17.269  0.00  0.00    +0.000 HD
ENDROOT
BRANCH   6  47
ATOM     47  C   UNL     1     -12.155  -1.160  11.455  0.00  0.00    +0.000 C 
ATOM     48  H   UNL     1     -12.493  -0.143  11.213  0.00  0.00    +0.000 HD
ATOM     49  H   UNL     1     -11.285  -1.345  10.824  0.00  0.00    +0.000 HD
ATOM     50  H   UNL     1     -12.965  -1.837  11.174  0.00  0.00    +0.000 HD
ENDBRANCH   6  47
BRANCH   2  51
ATOM     51  N   UNL     1      -8.113  -0.024  13.149  0.00  0.00    +0.000 N 
ATOM     52  C   UNL     1      -7.782   0.820  12.088  0.00  0.00    +0.000 C 
ATOM     53  O   UNL     1      -8.483   0.951  11.088  0.00  0.00    +0.000 OA
BRANCH  51  54
ATOM     54  C   UNL     1      -7.351   0.089  14.405  0.00  0.00    +0.000 C 
ATOM     55  H   UNL     1      -8.048   0.089  15.249  0.00  0.00    +0.000 HD
ATOM     56  H   UNL     1      -6.643  -0.728  14.539  0.00  0.00    +0.000 HD
ATOM     57  H   UNL     1      -6.777   1.020  14.429  0.00  0.00    +0.000 HD
ENDBRANCH  51  54
BRANCH  52  58
ATOM     58  C   UNL     1      -6.479   1.603  12.201  0.00  0.00    +0.000 C 
ATOM     59  H   UNL     1      -5.623   0.958  11.989  0.00  0.00    +0.000 HD
ATOM     60  H   UNL     1      -6.376   1.998  13.217  0.00  0.00    +0.000 HD
ATOM     61  H   UNL     1      -6.464   2.475  11.539  0.00  0.00    +0.000 HD
ENDBRANCH  52  58
ENDBRANCH   2  51
BRANCH   1  62
ATOM     62  O   UNL     1     -10.642   0.248  14.639  0.00  0.00    +0.000 OA
BRANCH  62  63
ATOM     63  C   UNL     1     -10.456   1.640  14.839  0.00  0.00    +0.000 C 
ATOM     64  H   UNL     1     -10.678   1.880  15.881  0.00  0.00    +0.000 HD
ATOM     65  H   UNL     1     -11.123   2.242  14.223  0.00  0.00    +0.000 HD
ATOM     66  H   UNL     1      -9.409   1.904  14.676  0.00  0.00    +0.000 HD
ENDBRANCH  62  63
ENDBRANCH   1  62
TORSDOF 6
ENDMDL
MODEL 6
REMARK VINA RESULT:    -5.495      4.279      5.938
REMARK INTER + INTRA:          -7.282
REMARK INTER:                  -6.754
REMARK INTRA:                  -0.528
REMARK UNBOUND:                -0.502
REMARK  Name = 
REMARK  6 active torsions:
REMARK  status: ('A' for Active; 'I' for Inactive)
REMARK    1  A    between atoms: C_1  and  O_2
REMARK    2  A    between atoms: O_2  and  C_3
REMARK    3  A    between atoms: C_4  and  N_5
REMARK    4  A    between atoms: N_5  and  C_6
REMARK    5  A    between atoms: C_7  and  C_8
REMARK    6  A    between atoms: C_13  and  C_14
REMARK                            x       y       z     vdW  Elec       q    Type
REMARK                         _______ _______ _______ _____ _____    ______ ____
ROOT
ATOM      1  C   UNL     1     -10.100   1.370  15.464  0.00  0.00    +0.000 C 
ATOM      2  C   UNL     1      -9.031   0.542  14.738  0.00  0.00    +0.000 C 
ATOM      3  C   UNL     1      -9.289  -0.965  15.135  0.00  0.00    +0.000 C 
ATOM      4  C   UNL     1     -10.804  -1.431  15.023  0.00  0.00    +0.000 C 
ATOM      5  O   UNL     1     -11.580  -0.447  14.387  0.00  0.00    +0.000 OA
ATOM      6  C   UNL     1     -11.530   0.869  15.007  0.00  0.00    +0.000 C 
ATOM      7  N   UNL     1     -12.468   0.898  16.145  0.00  0.00    +0.000 N 
ATOM      8  C   UNL     1     -12.967   2.064  16.760  0.00  0.00    +0.000 A 
ATOM      9  C   UNL     1     -13.407   3.268  16.154  0.00  0.00    +0.000 A 
ATOM     10  C   UNL     1     -14.066   4.226  16.920  0.00  0.00    +0.000 A 
ATOM     11  C   UNL     1     -14.249   4.039  18.281  0.00  0.00    +0.000 A 
ATOM     12  C   UNL     1     -13.647   2.959  18.945  0.00  0.00    +0.000 A 
ATOM     13  C   UNL     1     -12.963   1.965  18.214  0.00  0.00    +0.000 A 
ATOM     14  C   UNL     1     -12.256   0.769  18.541  0.00  0.00    +0.000 A 
ATOM     15  C   UNL     1     -11.409   0.472  19.654  0.00  0.00    +0.000 A 
ATOM     16  C   UNL     1     -10.662  -0.734  19.526  0.00  0.00    +0.000 A 
ATOM     17  C   UNL     1     -10.976  -1.480  18.383  0.00  0.00    +0.000 A 
ATOM     18  C   UNL     1     -10.538  -2.756  17.995  0.00  0.00    +0.000 A 
ATOM     19  C   UNL     1      -9.661  -3.764  18.411  0.00  0.00    +0.000 A 
ATOM     20  C   UNL     1      -9.966  -5.078  18.039  0.00  0.00    +0.000 A 
ATOM     21  C   UNL     1     -11.158  -5.373  17.373  0.00  0.00    +0.000 A 
ATOM     22  C   UNL     1     -11.894  -4.364  16.749  0.00  0.00    +0.000 A 
ATOM     23  C   UNL     1     -11.373  -3.072  16.871  0.00  0.00    +0.000 A 
ATOM     24  N   UNL     1     -11.603  -1.873  16.171  0.00  0.00    +0.000 N 
ATOM     25  C   UNL     1     -11.671  -1.082  17.261  0.00  0.00    +0.000 A 
ATOM     26  C   UNL     1     -12.238   0.173  17.275  0.00  0.00    +0.000 A 
ATOM     27  C   UNL     1      -9.589  -0.786  20.450  0.00  0.00    +0.000 C 
ATOM     28  O   UNL     1      -8.652  -1.556  20.622  0.00  0.00    +0.000 OA
ATOM     29  N   UNL     1      -9.708   0.424  21.124  0.00  0.00    +0.000 N 
ATOM     30  C   UNL     1     -10.820   1.295  20.716  0.00  0.00    +0.000 C 
ATOM     31  H   UNL     1     -10.059   2.443  15.245  0.00  0.00    +0.000 HD
ATOM     32  H   UNL     1      -9.199   0.620  13.656  0.00  0.00    +0.000 HD
ATOM     33  H   UNL     1      -8.725  -1.570  14.411  0.00  0.00    +0.000 HD
ATOM     34  H   UNL     1      -8.876  -1.218  16.117  0.00  0.00    +0.000 HD
ATOM     35  H   UNL     1     -10.815  -2.315  14.368  0.00  0.00    +0.000 HD
ATOM     36  H   UNL     1     -13.308   3.441  15.092  0.00  0.00    +0.000 HD
ATOM     37  H   UNL     1     -14.479   5.101  16.422  0.00  0.00    +0.000 HD
ATOM     38  H   UNL     1     -14.870   4.742  18.830  0.00  0.00    +0.000 HD
ATOM     39  H   UNL     1     -13.809   2.841  20.014  0.00  0.00    +0.000 HD
ATOM     40  H   UNL     1      -8.804  -3.538  19.033  0.00  0.00    +0.000 HD
ATOM     41  H   UNL     1      -9.305  -5.883  18.346  0.00  0.00    +0.000 HD
ATOM     42  H   UNL     1     -11.493  -6.405  17.302  0.00  0.00    +0.000 HD
ATOM     43  H   UNL     1     -12.816  -4.572  16.214  0.00  0.00    +0.000 HD
ATOM     44  H   UNL     1      -8.894   0.737  21.635  0.00  0.00    +0.000 HD
ATOM     45  H   UNL     1     -11.469   1.452  21.574  0.00  0.00    +0.000 HD
ATOM     46  H   UNL     1     -10.401   2.228  20.334  0.00  0.00    +0.000 HD
ENDROOT
BRANCH   6  47
ATOM     47  C   UNL     1     -12.009   1.672  13.774  0.00  0.00    +0.000 C 
ATOM     48  H   UNL     1     -11.189   1.792  13.053  0.00  0.00    +0.000 HD
ATOM     49  H   UNL     1     -12.803   1.145  13.242  0.00  0.00    +0.000 HD
ATOM     50  H   UNL     1     -12.348   2.678  14.035  0.00  0.00    +0.000 HD
ENDBRANCH   6  47
BRANCH   2  51
ATOM     51  N   UNL     1      -7.658   1.181  14.922  0.00  0.00    +0.000 N 
ATOM     52  C   UNL     1      -7.294   2.410  14.369  0.00  0.00    +0.000 C 
ATOM     53  O   UNL     1      -8.090   3.160  13.810  0.00  0.00    +0.000 OA
BRANCH  51  54
ATOM     54  C   UNL     1      -6.695   0.487  15.795  0.00  0.00    +0.000 C 
ATOM     55  H   UNL     1      -7.215   0.126  16.687  0.00  0.00    +0.000 HD
ATOM     56  H   UNL     1      -6.221  -0.361  15.301  0.00  0.00    +0.000 HD
ATOM     57  H   UNL     1      -5.896   1.165  16.108  0.00  0.00    +0.000 HD
ENDBRANCH  51  54
BRANCH  52  58
ATOM     58  C   UNL     1      -5.828   2.816  14.477  0.00  0.00    +0.000 C 
ATOM     59  H   UNL     1      -5.584   3.108  15.502  0.00  0.00    +0.000 HD
ATOM     60  H   UNL     1      -5.633   3.666  13.815  0.00  0.00    +0.000 HD
ATOM     61  H   UNL     1      -5.155   2.019  14.145  0.00  0.00    +0.000 HD
ENDBRANCH  52  58
ENDBRANCH   2  51
BRANCH   1  62
ATOM     62  O   UNL     1      -9.862   1.261  16.877  0.00  0.00    +0.000 OA
BRANCH  62  63
ATOM     63  C   UNL     1      -9.273   2.355  17.559  0.00  0.00    +0.000 C 
ATOM     64  H   UNL     1      -8.230   2.448  17.246  0.00  0.00    +0.000 HD
ATOM     65  H   UNL     1      -9.271   2.220  18.640  0.00  0.00    +0.000 HD
ATOM     66  H   UNL     1      -9.767   3.286  17.270  0.00  0.00    +0.000 HD
ENDBRANCH  62  63
ENDBRANCH   1  62
TORSDOF 6
ENDMDL
MODEL 7
REMARK VINA RESULT:    -5.476      7.415     10.575
REMARK INTER + INTRA:          -7.259
REMARK INTER:                  -6.965
REMARK INTRA:                  -0.294
REMARK UNBOUND:                -0.502
REMARK  Name = 
REMARK  6 active torsions:
REMARK  status: ('A' for Active; 'I' for Inactive)
REMARK    1  A    between atoms: C_1  and  O_2
REMARK    2  A    between atoms: O_2  and  C_3
REMARK    3  A    between atoms: C_4  and  N_5
REMARK    4  A    between atoms: N_5  and  C_6
REMARK    5  A    between atoms: C_7  and  C_8
REMARK    6  A    between atoms: C_13  and  C_14
REMARK                            x       y       z     vdW  Elec       q    Type
REMARK                         _______ _______ _______ _____ _____    ______ ____
ROOT
ATOM      1  C   UNL     1      -9.254   0.514  12.336  0.00  0.00    +0.000 C 
ATOM      2  C   UNL     1      -8.287   0.440  13.526  0.00  0.00    +0.000 C 
ATOM      3  C   UNL     1      -8.792  -0.747  14.437  0.00  0.00    +0.000 C 
ATOM      4  C   UNL     1      -9.122  -2.090  13.655  0.00  0.00    +0.000 C 
ATOM      5  O   UNL     1      -8.695  -2.003  12.318  0.00  0.00    +0.000 OA
ATOM      6  C   UNL     1      -9.230  -0.873  11.575  0.00  0.00    +0.000 C 
ATOM      7  N   UNL     1     -10.584  -1.214  11.096  0.00  0.00    +0.000 N 
ATOM      8  C   UNL     1     -11.274  -0.549  10.062  0.00  0.00    +0.000 A 
ATOM      9  C   UNL     1     -10.774  -0.077   8.821  0.00  0.00    +0.000 A 
ATOM     10  C   UNL     1     -11.660   0.364   7.842  0.00  0.00    +0.000 A 
ATOM     11  C   UNL     1     -13.023   0.399   8.088  0.00  0.00    +0.000 A 
ATOM     12  C   UNL     1     -13.530   0.136   9.371  0.00  0.00    +0.000 A 
ATOM     13  C   UNL     1     -12.671  -0.308  10.397  0.00  0.00    +0.000 A 
ATOM     14  C   UNL     1     -12.829  -0.661  11.772  0.00  0.00    +0.000 A 
ATOM     15  C   UNL     1     -13.670  -0.095  12.780  0.00  0.00    +0.000 A 
ATOM     16  C   UNL     1     -13.380  -0.526  14.106  0.00  0.00    +0.000 A 
ATOM     17  C   UNL     1     -12.396  -1.520  14.179  0.00  0.00    +0.000 A 
ATOM     18  C   UNL     1     -11.945  -2.257  15.285  0.00  0.00    +0.000 A 
ATOM     19  C   UNL     1     -12.134  -2.343  16.669  0.00  0.00    +0.000 A 
ATOM     20  C   UNL     1     -11.906  -3.583  17.276  0.00  0.00    +0.000 A 
ATOM     21  C   UNL     1     -11.610  -4.711  16.505  0.00  0.00    +0.000 A 
ATOM     22  C   UNL     1     -11.182  -4.577  15.183  0.00  0.00    +0.000 A 
ATOM     23  C   UNL     1     -11.109  -3.267  14.700  0.00  0.00    +0.000 A 
ATOM     24  N   UNL     1     -10.461  -2.684  13.595  0.00  0.00    +0.000 N 
ATOM     25  C   UNL     1     -11.500  -1.915  13.210  0.00  0.00    +0.000 A 
ATOM     26  C   UNL     1     -11.629  -1.356  11.957  0.00  0.00    +0.000 A 
ATOM     27  C   UNL     1     -13.969   0.324  15.074  0.00  0.00    +0.000 C 
ATOM     28  O   UNL     1     -13.899   0.400  16.294  0.00  0.00    +0.000 OA
ATOM     29  N   UNL     1     -14.609   1.280  14.291  0.00  0.00    +0.000 N 
ATOM     30  C   UNL     1     -14.498   1.115  12.834  0.00  0.00    +0.000 C 
ATOM     31  H   UNL     1      -8.996   1.282  11.598  0.00  0.00    +0.000 HD
ATOM     32  H   UNL     1      -7.293   0.159  13.156  0.00  0.00    +0.000 HD
ATOM     33  H   UNL     1      -7.959  -0.982  15.116  0.00  0.00    +0.000 HD
ATOM     34  H   UNL     1      -9.627  -0.457  15.082  0.00  0.00    +0.000 HD
ATOM     35  H   UNL     1      -8.527  -2.885  14.126  0.00  0.00    +0.000 HD
ATOM     36  H   UNL     1      -9.720  -0.113   8.581  0.00  0.00    +0.000 HD
ATOM     37  H   UNL     1     -11.267   0.634   6.864  0.00  0.00    +0.000 HD
ATOM     38  H   UNL     1     -13.699   0.631   7.269  0.00  0.00    +0.000 HD
ATOM     39  H   UNL     1     -14.604   0.173   9.530  0.00  0.00    +0.000 HD
ATOM     40  H   UNL     1     -12.485  -1.492  17.240  0.00  0.00    +0.000 HD
ATOM     41  H   UNL     1     -12.044  -3.682  18.348  0.00  0.00    +0.000 HD
ATOM     42  H   UNL     1     -11.670  -5.700  16.954  0.00  0.00    +0.000 HD
ATOM     43  H   UNL     1     -10.933  -5.439  14.570  0.00  0.00    +0.000 HD
ATOM     44  H   UNL     1     -14.861   2.143  14.752  0.00  0.00    +0.000 HD
ATOM     45  H   UNL     1     -15.497   0.995  12.423  0.00  0.00    +0.000 HD
ATOM     46  H   UNL     1     -13.983   1.989  12.430  0.00  0.00    +0.000 HD
ENDROOT
BRANCH   6  47
ATOM     47  C   UNL     1      -8.154  -0.855  10.463  0.00  0.00    +0.000 C 
ATOM     48  H   UNL     1      -8.618  -0.664   9.486  0.00  0.00    +0.000 HD
ATOM     49  H   UNL     1      -7.438  -0.047  10.619  0.00  0.00    +0.000 HD
ATOM     50  H   UNL     1      -7.623  -1.806  10.379  0.00  0.00    +0.000 HD
ENDBRANCH   6  47
BRANCH   2  51
ATOM     51  N   UNL     1      -8.059   1.834  14.103  0.00  0.00    +0.000 N 
ATOM     52  C   UNL     1      -8.502   2.234  15.365  0.00  0.00    +0.000 C 
ATOM     53  O   UNL     1      -8.984   1.459  16.187  0.00  0.00    +0.000 OA
BRANCH  51  54
ATOM     54  C   UNL     1      -7.260   2.780  13.304  0.00  0.00    +0.000 C 
ATOM     55  H   UNL     1      -7.002   2.313  12.348  0.00  0.00    +0.000 HD
ATOM     56  H   UNL     1      -7.792   3.710  13.104  0.00  0.00    +0.000 HD
ATOM     57  H   UNL     1      -6.335   3.043  13.823  0.00  0.00    +0.000 HD
ENDBRANCH  51  54
BRANCH  52  58
ATOM     58  C   UNL     1      -8.371   3.713  15.713  0.00  0.00    +0.000 C 
ATOM     59  H   UNL     1      -7.958   3.836  16.718  0.00  0.00    +0.000 HD
ATOM     60  H   UNL     1      -9.358   4.186  15.680  0.00  0.00    +0.000 HD
ATOM     61  H   UNL     1      -7.756   4.253  14.987  0.00  0.00    +0.000 HD
ENDBRANCH  52  58
ENDBRANCH   2  51
BRANCH   1  62
ATOM     62  O   UNL     1     -10.547   0.889  12.837  0.00  0.00    +0.000 OA
BRANCH  62  63
ATOM     63  C   UNL     1     -10.989   2.225  12.663  0.00  0.00    +0.000 C 
ATOM     64  H   UNL     1     -11.907   2.219  12.071  0.00  0.00    +0.000 HD
ATOM     65  H   UNL     1     -10.265   2.836  12.126  0.00  0.00    +0.000 HD
ATOM     66  H   UNL     1     -11.247   2.662  13.630  0.00  0.00    +0.000 HD
ENDBRANCH  62  63
ENDBRANCH   1  62
TORSDOF 6
ENDMDL
MODEL 8
REMARK VINA RESULT:    -5.427      2.501      3.957
REMARK INTER + INTRA:          -7.199
REMARK INTER:                  -6.741
REMARK INTRA:                  -0.458
REMARK UNBOUND:                -0.502
REMARK  Name = 
REMARK  6 active torsions:
REMARK  status: ('A' for Active; 'I' for Inactive)
REMARK    1  A    between atoms: C_1  and  O_2
REMARK    2  A    between atoms: O_2  and  C_3
REMARK    3  A    between atoms: C_4  and  N_5
REMARK    4  A    between atoms: N_5  and  C_6
REMARK    5  A    between atoms: C_7  and  C_8
REMARK    6  A    between atoms: C_13  and  C_14
REMARK                            x       y       z     vdW  Elec       q    Type
REMARK                         _______ _______ _______ _____ _____    ______ ____
ROOT
ATOM      1  C   UNL     1     -10.552   1.489  17.153  0.00  0.00    +0.000 C 
ATOM      2  C   UNL     1      -9.247   0.688  17.267  0.00  0.00    +0.000 C 
ATOM      3  C   UNL     1      -9.271  -0.002  18.688  0.00  0.00    +0.000 C 
ATOM      4  C   UNL     1     -10.635  -0.735  19.047  0.00  0.00    +0.000 C 
ATOM      5  O   UNL     1     -11.479  -0.791  17.924  0.00  0.00    +0.000 OA
ATOM      6  C   UNL     1     -11.774   0.496  17.313  0.00  0.00    +0.000 C 
ATOM      7  N   UNL     1     -12.862   1.145  18.068  0.00  0.00    +0.000 N 
ATOM      8  C   UNL     1     -13.662   2.206  17.597  0.00  0.00    +0.000 A 
ATOM      9  C   UNL     1     -14.226   2.387  16.308  0.00  0.00    +0.000 A 
ATOM     10  C   UNL     1     -15.164   3.395  16.099  0.00  0.00    +0.000 A 
ATOM     11  C   UNL     1     -15.512   4.258  17.126  0.00  0.00    +0.000 A 
ATOM     12  C   UNL     1     -14.823   4.236  18.349  0.00  0.00    +0.000 A 
ATOM     13  C   UNL     1     -13.860   3.238  18.605  0.00  0.00    +0.000 A 
ATOM     14  C   UNL     1     -12.997   2.917  19.696  0.00  0.00    +0.000 A 
ATOM     15  C   UNL     1     -12.287   3.771  20.596  0.00  0.00    +0.000 A 
ATOM     16  C   UNL     1     -11.314   3.111  21.399  0.00  0.00    +0.000 A 
ATOM     17  C   UNL     1     -11.303   1.718  21.250  0.00  0.00    +0.000 A 
ATOM     18  C   UNL     1     -10.577   0.746  21.956  0.00  0.00    +0.000 A 
ATOM     19  C   UNL     1      -9.597   0.647  22.950  0.00  0.00    +0.000 A 
ATOM     20  C   UNL     1      -9.586  -0.514  23.732  0.00  0.00    +0.000 A 
ATOM     21  C   UNL     1     -10.586  -1.480  23.588  0.00  0.00    +0.000 A 
ATOM     22  C   UNL     1     -11.397  -1.503  22.452  0.00  0.00    +0.000 A 
ATOM     23  C   UNL     1     -11.155  -0.492  21.517  0.00  0.00    +0.000 A 
ATOM     24  N   UNL     1     -11.500  -0.335  20.161  0.00  0.00    +0.000 N 
ATOM     25  C   UNL     1     -11.882   0.955  20.260  0.00  0.00    +0.000 A 
ATOM     26  C   UNL     1     -12.673   1.603  19.337  0.00  0.00    +0.000 A 
ATOM     27  C   UNL     1     -10.404   4.028  21.979  0.00  0.00    +0.000 C 
ATOM     28  O   UNL     1      -9.374   3.907  22.632  0.00  0.00    +0.000 OA
ATOM     29  N   UNL     1     -10.852   5.252  21.493  0.00  0.00    +0.000 N 
ATOM     30  C   UNL     1     -12.035   5.216  20.619  0.00  0.00    +0.000 C 
ATOM     31  H   UNL     1     -10.683   1.994  16.190  0.00  0.00    +0.000 HD
ATOM     32  H   UNL     1      -9.261  -0.116  16.521  0.00  0.00    +0.000 HD
ATOM     33  H   UNL     1      -8.499  -0.785  18.657  0.00  0.00    +0.000 HD
ATOM     34  H   UNL     1      -8.972   0.678  19.491  0.00  0.00    +0.000 HD
ATOM     35  H   UNL     1     -10.378  -1.773  19.303  0.00  0.00    +0.000 HD
ATOM     36  H   UNL     1     -14.001   1.719  15.488  0.00  0.00    +0.000 HD
ATOM     37  H   UNL     1     -15.654   3.461  15.131  0.00  0.00    +0.000 HD
ATOM     38  H   UNL     1     -16.332   4.955  16.972  0.00  0.00    +0.000 HD
ATOM     39  H   UNL     1     -15.121   4.928  19.133  0.00  0.00    +0.000 HD
ATOM     40  H   UNL     1      -8.904   1.458  23.136  0.00  0.00    +0.000 HD
ATOM     41  H   UNL     1      -8.839  -0.621  24.512  0.00  0.00    +0.000 HD
ATOM     42  H   UNL     1     -10.704  -2.249  24.349  0.00  0.00    +0.000 HD
ATOM     43  H   UNL     1     -12.171  -2.253  22.313  0.00  0.00    +0.000 HD
ATOM     44  H   UNL     1     -10.199   6.022  21.541  0.00  0.00    +0.000 HD
ATOM     45  H   UNL     1     -12.824   5.803  21.082  0.00  0.00    +0.000 HD
ATOM     46  H   UNL     1     -11.747   5.604  19.640  0.00  0.00    +0.000 HD
ENDROOT
BRANCH   6  47
ATOM     47  C   UNL     1     -12.205  -0.050  15.930  0.00  0.00    +0.000 C 
ATOM     48  H   UNL     1     -11.322  -0.291  15.323  0.00  0.00    +0.000 HD
ATOM     49  H   UNL     1     -12.765  -0.981  16.029  0.00  0.00    +0.000 HD
ATOM     50  H   UNL     1     -12.792   0.673  15.359  0.00  0.00    +0.000 HD
ENDBRANCH   6  47
BRANCH   2  51
ATOM     51  N   UNL     1      -8.065   1.547  16.828  0.00  0.00    +0.000 N 
ATOM     52  C   UNL     1      -7.775   1.845  15.496  0.00  0.00    +0.000 C 
ATOM     53  O   UNL     1      -8.526   1.569  14.564  0.00  0.00    +0.000 OA
BRANCH  51  54
ATOM     54  C   UNL     1      -7.233   2.152  17.884  0.00  0.00    +0.000 C 
ATOM     55  H   UNL     1      -6.854   3.116  17.533  0.00  0.00    +0.000 HD
ATOM     56  H   UNL     1      -7.786   2.311  18.810  0.00  0.00    +0.000 HD
ATOM     57  H   UNL     1      -6.382   1.509  18.123  0.00  0.00    +0.000 HD
ENDBRANCH  51  54
BRANCH  52  58
ATOM     58  C   UNL     1      -6.450   2.546  15.212  0.00  0.00    +0.000 C 
ATOM     59  H   UNL     1      -6.358   3.453  15.814  0.00  0.00    +0.000 HD
ATOM     60  H   UNL     1      -6.402   2.822  14.153  0.00  0.00    +0.000 HD
ATOM     61  H   UNL     1      -5.592   1.890  15.388  0.00  0.00    +0.000 HD
ENDBRANCH  52  58
ENDBRANCH   2  51
BRANCH   1  62
ATOM     62  O   UNL     1     -10.516   2.540  18.132  0.00  0.00    +0.000 OA
BRANCH  62  63
ATOM     63  C   UNL     1     -10.291   3.871  17.700  0.00  0.00    +0.000 C 
ATOM     64  H   UNL     1      -9.351   4.228  18.127  0.00  0.00    +0.000 HD
ATOM     65  H   UNL     1     -11.073   4.554  18.031  0.00  0.00    +0.000 HD
ATOM     66  H   UNL     1     -10.167   3.896  16.614  0.00  0.00    +0.000 HD
ENDBRANCH  62  63
ENDBRANCH   1  62
TORSDOF 6
ENDMDL
MODEL 9
REMARK VINA RESULT:    -5.334      4.943      8.295
REMARK INTER + INTRA:          -7.084
REMARK INTER:                  -6.558
REMARK INTRA:                  -0.526
REMARK UNBOUND:                -0.502
REMARK  Name = 
REMARK  6 active torsions:
REMARK  status: ('A' for Active; 'I' for Inactive)
REMARK    1  A    between atoms: C_1  and  O_2
REMARK    2  A    between atoms: O_2  and  C_3
REMARK    3  A    between atoms: C_4  and  N_5
REMARK    4  A    between atoms: N_5  and  C_6
REMARK    5  A    between atoms: C_7  and  C_8
REMARK    6  A    between atoms: C_13  and  C_14
REMARK                            x       y       z     vdW  Elec       q    Type
REMARK                         _______ _______ _______ _____ _____    ______ ____
ROOT
ATOM      1  C   UNL     1     -11.567  -0.101  14.521  0.00  0.00    +0.000 C 
ATOM      2  C   UNL     1     -11.459   1.335  13.989  0.00  0.00    +0.000 C 
ATOM      3  C   UNL     1     -10.092   1.910  14.532  0.00  0.00    +0.000 C 
ATOM      4  C   UNL     1      -8.844   0.945  14.343  0.00  0.00    +0.000 C 
ATOM      5  O   UNL     1      -9.185  -0.154  13.534  0.00  0.00    +0.000 OA
ATOM      6  C   UNL     1     -10.323  -0.930  14.002  0.00  0.00    +0.000 C 
ATOM      7  N   UNL     1      -9.866  -1.869  15.044  0.00  0.00    +0.000 N 
ATOM      8  C   UNL     1     -10.569  -3.012  15.476  0.00  0.00    +0.000 A 
ATOM      9  C   UNL     1     -11.282  -3.961  14.701  0.00  0.00    +0.000 A 
ATOM     10  C   UNL     1     -11.730  -5.140  15.292  0.00  0.00    +0.000 A 
ATOM     11  C   UNL     1     -11.534  -5.370  16.645  0.00  0.00    +0.000 A 
ATOM     12  C   UNL     1     -11.017  -4.364  17.478  0.00  0.00    +0.000 A 
ATOM     13  C   UNL     1     -10.556  -3.151  16.927  0.00  0.00    +0.000 A 
ATOM     14  C   UNL     1      -9.988  -1.950  17.449  0.00  0.00    +0.000 A 
ATOM     15  C   UNL     1     -10.275  -1.241  18.657  0.00  0.00    +0.000 A 
ATOM     16  C   UNL     1      -9.701   0.061  18.732  0.00  0.00    +0.000 A 
ATOM     17  C   UNL     1      -8.859   0.375  17.659  0.00  0.00    +0.000 A 
ATOM     18  C   UNL     1      -8.040   1.497  17.458  0.00  0.00    +0.000 A 
ATOM     19  C   UNL     1      -7.728   2.721  18.061  0.00  0.00    +0.000 A 
ATOM     20  C   UNL     1      -6.458   3.255  17.816  0.00  0.00    +0.000 A 
ATOM     21  C   UNL     1      -5.508   2.534  17.088  0.00  0.00    +0.000 A 
ATOM     22  C   UNL     1      -5.892   1.453  16.292  0.00  0.00    +0.000 A 
ATOM     23  C   UNL     1      -7.256   1.143  16.310  0.00  0.00    +0.000 A 
ATOM     24  N   UNL     1      -8.080   0.381  15.460  0.00  0.00    +0.000 N 
ATOM     25  C   UNL     1      -8.740  -0.264  16.443  0.00  0.00    +0.000 A 
ATOM     26  C   UNL     1      -9.451  -1.430  16.265  0.00  0.00    +0.000 A 
ATOM     27  C   UNL     1     -10.309   0.843  19.745  0.00  0.00    +0.000 C 
ATOM     28  O   UNL     1     -10.216   2.016  20.084  0.00  0.00    +0.000 OA
ATOM     29  N   UNL     1     -11.267  -0.022  20.264  0.00  0.00    +0.000 N 
ATOM     30  C   UNL     1     -11.334  -1.363  19.665  0.00  0.00    +0.000 C 
ATOM     31  H   UNL     1     -12.462  -0.636  14.185  0.00  0.00    +0.000 HD
ATOM     32  H   UNL     1     -11.380   1.301  12.895  0.00  0.00    +0.000 HD
ATOM     33  H   UNL     1      -9.882   2.808  13.933  0.00  0.00    +0.000 HD
ATOM     34  H   UNL     1     -10.163   2.256  15.568  0.00  0.00    +0.000 HD
ATOM     35  H   UNL     1      -8.082   1.517  13.795  0.00  0.00    +0.000 HD
ATOM     36  H   UNL     1     -11.432  -3.832  13.638  0.00  0.00    +0.000 HD
ATOM     37  H   UNL     1     -12.193  -5.897  14.664  0.00  0.00    +0.000 HD
ATOM     38  H   UNL     1     -11.784  -6.345  17.054  0.00  0.00    +0.000 HD
ATOM     39  H   UNL     1     -10.877  -4.577  18.535  0.00  0.00    +0.000 HD
ATOM     40  H   UNL     1      -8.428   3.213  18.725  0.00  0.00    +0.000 HD
ATOM     41  H   UNL     1      -6.185   4.203  18.270  0.00  0.00    +0.000 HD
ATOM     42  H   UNL     1      -4.466   2.844  17.106  0.00  0.00    +0.000 HD
ATOM     43  H   UNL     1      -5.174   0.886  15.706  0.00  0.00    +0.000 HD
ATOM     44  H   UNL     1     -12.009   0.401  20.805  0.00  0.00    +0.000 HD
ATOM     45  H   UNL     1     -11.134  -2.098  20.440  0.00  0.00    +0.000 HD
ATOM     46  H   UNL     1     -12.322  -1.488  19.217  0.00  0.00    +0.000 HD
ENDROOT
BRANCH   6  47
ATOM     47  C   UNL     1     -10.655  -1.604  12.649  0.00  0.00    +0.000 C 
ATOM     48  H   UNL     1     -11.373  -2.423  12.796  0.00  0.00    +0.000 HD
ATOM     49  H   UNL     1     -11.137  -0.902  11.965  0.00  0.00    +0.000 HD
ATOM     50  H   UNL     1      -9.775  -2.038  12.169  0.00  0.00    +0.000 HD
ENDBRANCH   6  47
BRANCH   2  51
ATOM     51  N   UNL     1     -12.773   2.078  14.217  0.00  0.00    +0.000 N 
ATOM     52  C   UNL     1     -13.974   1.738  13.593  0.00  0.00    +0.000 C 
ATOM     53  O   UNL     1     -14.121   0.721  12.920  0.00  0.00    +0.000 OA
BRANCH  51  54
ATOM     54  C   UNL     1     -12.776   3.167  15.209  0.00  0.00    +0.000 C 
ATOM     55  H   UNL     1     -13.621   3.029  15.890  0.00  0.00    +0.000 HD
ATOM     56  H   UNL     1     -11.858   3.199  15.796  0.00  0.00    +0.000 HD
ATOM     57  H   UNL     1     -12.879   4.139  14.720  0.00  0.00    +0.000 HD
ENDBRANCH  51  54
BRANCH  52  58
ATOM     58  C   UNL     1     -15.147   2.697  13.771  0.00  0.00    +0.000 C 
ATOM     59  H   UNL     1     -15.375   2.832  14.831  0.00  0.00    +0.000 HD
ATOM     60  H   UNL     1     -16.032   2.291  13.271  0.00  0.00    +0.000 HD
ATOM     61  H   UNL     1     -14.958   3.668  13.302  0.00  0.00    +0.000 HD
ENDBRANCH  52  58
ENDBRANCH   2  51
BRANCH   1  62
ATOM     62  O   UNL     1     -11.676  -0.038  15.952  0.00  0.00    +0.000 OA
BRANCH  62  63
ATOM     63  C   UNL     1     -12.944  -0.243  16.553  0.00  0.00    +0.000 C 
ATOM     64  H   UNL     1     -13.694  -0.350  15.767  0.00  0.00    +0.000 HD
ATOM     65  H   UNL     1     -13.250   0.596  17.177  0.00  0.00    +0.000 HD
ATOM     66  H   UNL     1     -12.945  -1.182  17.111  0.00  0.00    +0.000 HD
ENDBRANCH  62  63
ENDBRANCH   1  62
TORSDOF 6
ENDMDL
