MODEL 1
REMARK VINA RESULT:    -9.933      0.000      0.000
REMARK INTER + INTRA:         -13.919
REMARK INTER:                 -12.836
REMARK INTRA:                  -1.083
REMARK UNBOUND:                -1.083
REMARK  Name = 
REMARK  7 active torsions:
REMARK  status: ('A' for Active; 'I' for Inactive)
REMARK    1  A    between atoms: C_1  and  O_2
REMARK    2  A    between atoms: O_2  and  C_3
REMARK    3  A    between atoms: C_4  and  N_5
REMARK    4  A    between atoms: N_5  and  C_6
REMARK    5  A    between atoms: C_7  and  C_9
REMARK    6  A    between atoms: C_18  and  C_19
REMARK    7  A    between atoms: C_43  and  O_44
REMARK                            x       y       z     vdW  Elec       q    Type
REMARK                         _______ _______ _______ _____ _____    ______ ____
ROOT
ATOM      1  C   UNL     1     -10.092  -1.607  18.276  0.00  0.00    +0.000 C 
ATOM      2  C   UNL     1     -11.553  -1.074  18.118  0.00  0.00    +0.000 C 
ATOM      3  C   UNL     1     -12.418  -2.076  17.333  0.00  0.00    +0.000 C 
ATOM      4  C   UNL     1     -12.046  -3.510  17.713  0.00  0.00    +0.000 C 
ATOM      5  O   UNL     1     -11.571  -3.481  19.091  0.00  0.00    +0.000 OA
ATOM      6  C   UNL     1     -10.266  -2.848  19.271  0.00  0.00    +0.000 C 
ATOM      7  N   UNL     1      -9.308  -3.921  19.174  0.00  0.00    +0.000 N 
ATOM      8  C   UNL     1      -8.133  -4.268  19.870  0.00  0.00    +0.000 A 
ATOM      9  C   UNL     1      -7.589  -3.819  21.080  0.00  0.00    +0.000 A 
ATOM     10  C   UNL     1      -6.224  -4.003  21.311  0.00  0.00    +0.000 A 
ATOM     11  C   UNL     1      -5.426  -4.675  20.398  0.00  0.00    +0.000 A 
ATOM     12  C   UNL     1      -6.016  -5.406  19.371  0.00  0.00    +0.000 A 
ATOM     13  C   UNL     1      -7.407  -5.298  19.163  0.00  0.00    +0.000 A 
ATOM     14  C   UNL     1      -8.348  -5.914  18.348  0.00  0.00    +0.000 A 
ATOM     15  C   UNL     1      -8.368  -7.221  17.835  0.00  0.00    +0.000 A 
ATOM     16  C   UNL     1      -8.994  -7.281  16.546  0.00  0.00    +0.000 A 
ATOM     17  C   UNL     1      -9.781  -6.119  16.346  0.00  0.00    +0.000 A 
ATOM     18  C   UNL     1      -9.894  -5.317  15.208  0.00  0.00    +0.000 A 
ATOM     19  C   UNL     1      -9.174  -4.977  14.047  0.00  0.00    +0.000 A 
ATOM     20  C   UNL     1      -9.815  -4.203  13.075  0.00  0.00    +0.000 A 
ATOM     21  C   UNL     1     -11.194  -4.051  13.154  0.00  0.00    +0.000 A 
ATOM     22  C   UNL     1     -11.878  -4.306  14.353  0.00  0.00    +0.000 A 
ATOM     23  C   UNL     1     -11.076  -4.542  15.486  0.00  0.00    +0.000 A 
ATOM     24  N   UNL     1     -11.156  -4.265  16.855  0.00  0.00    +0.000 N 
ATOM     25  C   UNL     1     -10.222  -5.158  17.259  0.00  0.00    +0.000 A 
ATOM     26  C   UNL     1      -9.376  -4.991  18.337  0.00  0.00    +0.000 A 
ATOM     27  C   UNL     1      -9.591  -8.611  16.398  0.00  0.00    +0.000 C 
ATOM     28  O   UNL     1     -10.245  -9.139  15.508  0.00  0.00    +0.000 OA
ATOM     29  N   UNL     1      -9.438  -9.204  17.647  0.00  0.00    +0.000 N 
ATOM     30  C   UNL     1      -8.885  -8.361  18.663  0.00  0.00    +0.000 C 
ATOM     31  H   UNL     1      -9.457  -0.834  18.725  0.00  0.00    +0.000 HD
ATOM     32  H   UNL     1     -11.965  -1.079  19.127  0.00  0.00    +0.000 HD
ATOM     33  H   UNL     1     -12.429  -1.904  16.256  0.00  0.00    +0.000 HD
ATOM     34  H   UNL     1     -13.450  -1.916  17.675  0.00  0.00    +0.000 HD
ATOM     35  H   UNL     1     -12.961  -4.112  17.724  0.00  0.00    +0.000 HD
ATOM     36  H   UNL     1      -8.187  -3.329  21.837  0.00  0.00    +0.000 HD
ATOM     37  H   UNL     1      -5.782  -3.576  22.208  0.00  0.00    +0.000 HD
ATOM     38  H   UNL     1      -4.347  -4.667  20.513  0.00  0.00    +0.000 HD
ATOM     39  H   UNL     1      -5.399  -5.974  18.677  0.00  0.00    +0.000 HD
ATOM     40  H   UNL     1      -8.122  -5.232  13.946  0.00  0.00    +0.000 HD
ATOM     41  H   UNL     1      -9.271  -3.860  12.198  0.00  0.00    +0.000 HD
ATOM     42  H   UNL     1     -11.752  -3.811  12.251  0.00  0.00    +0.000 HD
ATOM     43  H   UNL     1     -12.882  -4.737  14.284  0.00  0.00    +0.000 HD
ATOM     44  H   UNL     1     -10.019  -9.992  17.893  0.00  0.00    +0.000 HD
ATOM     45  H   UNL     1      -8.131  -8.874  19.257  0.00  0.00    +0.000 HD
ENDROOT
BRANCH   6  46
ATOM     46  C   UNL     1     -10.237  -2.241  20.698  0.00  0.00    +0.000 C 
ATOM     47  H   UNL     1     -10.292  -3.050  21.450  0.00  0.00    +0.000 HD
ATOM     48  H   UNL     1     -11.062  -1.520  20.847  0.00  0.00    +0.000 HD
ATOM     49  H   UNL     1      -9.305  -1.726  20.918  0.00  0.00    +0.000 HD
ENDBRANCH   6  46
BRANCH   2  50
ATOM     50  N   UNL     1     -11.710   0.327  17.692  0.00  0.00    +0.000 N 
ATOM     51  C   UNL     1     -11.300   1.402  18.498  0.00  0.00    +0.000 C 
ATOM     52  O   UNL     1     -10.874   2.457  18.028  0.00  0.00    +0.000 OA
BRANCH  51  53
ATOM     53  C   UNL     1     -11.445   1.327  19.984  0.00  0.00    +0.000 A 
ATOM     54  C   UNL     1     -10.306   1.431  20.794  0.00  0.00    +0.000 A 
ATOM     55  C   UNL     1     -10.438   1.505  22.186  0.00  0.00    +0.000 A 
ATOM     56  C   UNL     1     -11.703   1.474  22.771  0.00  0.00    +0.000 A 
ATOM     57  C   UNL     1     -12.839   1.359  21.972  0.00  0.00    +0.000 A 
ATOM     58  C   UNL     1     -12.713   1.299  20.582  0.00  0.00    +0.000 A 
ATOM     59  H   UNL     1      -9.318   1.484  20.344  0.00  0.00    +0.000 HD
ATOM     60  H   UNL     1      -9.554   1.620  22.811  0.00  0.00    +0.000 HD
ATOM     61  H   UNL     1     -11.804   1.571  23.850  0.00  0.00    +0.000 HD
ATOM     62  H   UNL     1     -13.825   1.351  22.430  0.00  0.00    +0.000 HD
ATOM     63  H   UNL     1     -13.609   1.265  19.970  0.00  0.00    +0.000 HD
ENDBRANCH  51  53
BRANCH  50  64
ATOM     64  C   UNL     1     -11.827   0.607  16.271  0.00  0.00    +0.000 C 
ATOM     65  H   UNL     1     -12.836   0.966  16.050  0.00  0.00    +0.000 HD
ATOM     66  H   UNL     1     -11.651  -0.320  15.715  0.00  0.00    +0.000 HD
ATOM     67  H   UNL     1     -11.082   1.342  15.957  0.00  0.00    +0.000 HD
ENDBRANCH  50  64
ENDBRANCH   2  50
BRANCH  30  68
ATOM     68  O   UNL     1      -9.994  -7.975  19.460  0.00  0.00    +0.000 OA
ATOM     69  H   UNL     1     -10.725  -8.649  19.282  0.00  0.00    +0.000 HD
ENDBRANCH  30  68
BRANCH   1  70
ATOM     70  O   UNL     1      -9.595  -1.909  16.965  0.00  0.00    +0.000 OA
BRANCH  70  71
ATOM     71  C   UNL     1      -8.853  -0.866  16.340  0.00  0.00    +0.000 C 
ATOM     72  H   UNL     1      -9.216   0.135  16.592  0.00  0.00    +0.000 HD
ATOM     73  H   UNL     1      -8.904  -0.993  15.254  0.00  0.00    +0.000 HD
ATOM     74  H   UNL     1      -7.799  -0.950  16.624  0.00  0.00    +0.000 HD
ENDBRANCH  70  71
ENDBRANCH   1  70
TORSDOF 7
ENDMDL
MODEL 2
REMARK VINA RESULT:    -8.163      4.681      8.291
REMARK INTER + INTRA:         -11.632
REMARK INTER:                 -10.327
REMARK INTRA:                  -1.305
REMARK UNBOUND:                -1.083
REMARK  Name = 
REMARK  7 active torsions:
REMARK  status: ('A' for Active; 'I' for Inactive)
REMARK    1  A    between atoms: C_1  and  O_2
REMARK    2  A    between atoms: O_2  and  C_3
REMARK    3  A    between atoms: C_4  and  N_5
REMARK    4  A    between atoms: N_5  and  C_6
REMARK    5  A    between atoms: C_7  and  C_9
REMARK    6  A    between atoms: C_18  and  C_19
REMARK    7  A    between atoms: C_43  and  O_44
REMARK                            x       y       z     vdW  Elec       q    Type
REMARK                         _______ _______ _______ _____ _____    ______ ____
ROOT
ATOM      1  C   UNL     1     -10.247   1.392  20.966  0.00  0.00    +0.000 C 
ATOM      2  C   UNL     1     -10.844   1.093  22.380  0.00  0.00    +0.000 C 
ATOM      3  C   UNL     1     -12.341   1.448  22.425  0.00  0.00    +0.000 C 
ATOM      4  C   UNL     1     -13.012   1.091  21.097  0.00  0.00    +0.000 C 
ATOM      5  O   UNL     1     -12.280  -0.038  20.535  0.00  0.00    +0.000 OA
ATOM      6  C   UNL     1     -10.945   0.291  20.039  0.00  0.00    +0.000 C 
ATOM      7  N   UNL     1     -11.127   0.610  18.644  0.00  0.00    +0.000 N 
ATOM      8  C   UNL     1     -10.419   0.324  17.461  0.00  0.00    +0.000 A 
ATOM      9  C   UNL     1      -9.394  -0.586  17.174  0.00  0.00    +0.000 A 
ATOM     10  C   UNL     1      -8.587  -0.358  16.057  0.00  0.00    +0.000 A 
ATOM     11  C   UNL     1      -8.828   0.708  15.203  0.00  0.00    +0.000 A 
ATOM     12  C   UNL     1     -10.029   1.406  15.292  0.00  0.00    +0.000 A 
ATOM     13  C   UNL     1     -10.900   1.141  16.369  0.00  0.00    +0.000 A 
ATOM     14  C   UNL     1     -12.180   1.532  16.742  0.00  0.00    +0.000 A 
ATOM     15  C   UNL     1     -13.275   1.889  15.939  0.00  0.00    +0.000 A 
ATOM     16  C   UNL     1     -14.099   2.881  16.568  0.00  0.00    +0.000 A 
ATOM     17  C   UNL     1     -13.833   2.905  17.960  0.00  0.00    +0.000 A 
ATOM     18  C   UNL     1     -13.672   4.004  18.807  0.00  0.00    +0.000 A 
ATOM     19  C   UNL     1     -13.316   5.365  18.759  0.00  0.00    +0.000 A 
ATOM     20  C   UNL     1     -13.462   6.128  19.921  0.00  0.00    +0.000 A 
ATOM     21  C   UNL     1     -14.209   5.602  20.968  0.00  0.00    +0.000 A 
ATOM     22  C   UNL     1     -14.470   4.224  21.044  0.00  0.00    +0.000 A 
ATOM     23  C   UNL     1     -13.791   3.413  20.115  0.00  0.00    +0.000 A 
ATOM     24  N   UNL     1     -13.237   2.128  20.112  0.00  0.00    +0.000 N 
ATOM     25  C   UNL     1     -13.159   1.986  18.768  0.00  0.00    +0.000 A 
ATOM     26  C   UNL     1     -12.180   1.276  18.100  0.00  0.00    +0.000 A 
ATOM     27  C   UNL     1     -15.469   2.699  16.083  0.00  0.00    +0.000 C 
ATOM     28  O   UNL     1     -16.525   3.265  16.331  0.00  0.00    +0.000 OA
ATOM     29  N   UNL     1     -15.422   1.528  15.333  0.00  0.00    +0.000 N 
ATOM     30  C   UNL     1     -14.169   0.838  15.351  0.00  0.00    +0.000 C 
ATOM     31  H   UNL     1      -9.159   1.254  20.982  0.00  0.00    +0.000 HD
ATOM     32  H   UNL     1     -10.810   0.009  22.475  0.00  0.00    +0.000 HD
ATOM     33  H   UNL     1     -12.546   2.469  22.750  0.00  0.00    +0.000 HD
ATOM     34  H   UNL     1     -12.783   0.793  23.188  0.00  0.00    +0.000 HD
ATOM     35  H   UNL     1     -14.020   0.718  21.310  0.00  0.00    +0.000 HD
ATOM     36  H   UNL     1      -9.201  -1.454  17.791  0.00  0.00    +0.000 HD
ATOM     37  H   UNL     1      -7.735  -1.011  15.883  0.00  0.00    +0.000 HD
ATOM     38  H   UNL     1      -8.101   0.965  14.439  0.00  0.00    +0.000 HD
ATOM     39  H   UNL     1     -10.247   2.215  14.595  0.00  0.00    +0.000 HD
ATOM     40  H   UNL     1     -12.857   5.793  17.870  0.00  0.00    +0.000 HD
ATOM     41  H   UNL     1     -13.132   7.164  19.944  0.00  0.00    +0.000 HD
ATOM     42  H   UNL     1     -14.662   6.281  21.688  0.00  0.00    +0.000 HD
ATOM     43  H   UNL     1     -15.436   3.912  21.452  0.00  0.00    +0.000 HD
ATOM     44  H   UNL     1     -16.280   1.031  15.141  0.00  0.00    +0.000 HD
ATOM     45  H   UNL     1     -13.878   0.490  14.361  0.00  0.00    +0.000 HD
ENDROOT
BRANCH   6  46
ATOM     46  C   UNL     1     -10.071  -0.982  20.179  0.00  0.00    +0.000 C 
ATOM     47  H   UNL     1     -10.365  -1.541  21.087  0.00  0.00    +0.000 HD
ATOM     48  H   UNL     1      -8.995  -0.731  20.213  0.00  0.00    +0.000 HD
ATOM     49  H   UNL     1     -10.219  -1.687  19.364  0.00  0.00    +0.000 HD
ENDBRANCH   6  46
BRANCH   2  50
ATOM     50  N   UNL     1     -10.074   1.564  23.543  0.00  0.00    +0.000 N 
ATOM     51  C   UNL     1      -8.885   0.938  23.952  0.00  0.00    +0.000 C 
ATOM     52  O   UNL     1      -7.956   1.558  24.472  0.00  0.00    +0.000 OA
BRANCH  51  53
ATOM     53  C   UNL     1      -8.736  -0.545  23.839  0.00  0.00    +0.000 A 
ATOM     54  C   UNL     1      -7.736  -1.077  23.015  0.00  0.00    +0.000 A 
ATOM     55  C   UNL     1      -7.492  -2.456  23.007  0.00  0.00    +0.000 A 
ATOM     56  C   UNL     1      -8.245  -3.304  23.818  0.00  0.00    +0.000 A 
ATOM     57  C   UNL     1      -9.249  -2.782  24.632  0.00  0.00    +0.000 A 
ATOM     58  C   UNL     1      -9.487  -1.405  24.653  0.00  0.00    +0.000 A 
ATOM     59  H   UNL     1      -7.126  -0.419  22.401  0.00  0.00    +0.000 HD
ATOM     60  H   UNL     1      -6.692  -2.863  22.392  0.00  0.00    +0.000 HD
ATOM     61  H   UNL     1      -8.026  -4.370  23.839  0.00  0.00    +0.000 HD
ATOM     62  H   UNL     1      -9.823  -3.444  25.274  0.00  0.00    +0.000 HD
ATOM     63  H   UNL     1     -10.235  -1.008  25.331  0.00  0.00    +0.000 HD
ENDBRANCH  51  53
BRANCH  50  64
ATOM     64  C   UNL     1     -10.249   2.940  23.976  0.00  0.00    +0.000 C 
ATOM     65  H   UNL     1     -10.211   2.988  25.068  0.00  0.00    +0.000 HD
ATOM     66  H   UNL     1     -11.231   3.291  23.640  0.00  0.00    +0.000 HD
ATOM     67  H   UNL     1      -9.486   3.586  23.537  0.00  0.00    +0.000 HD
ENDBRANCH  50  64
ENDBRANCH   2  50
BRANCH  30  68
ATOM     68  O   UNL     1     -14.364  -0.249  16.241  0.00  0.00    +0.000 OA
ATOM     69  H   UNL     1     -13.803  -1.013  15.892  0.00  0.00    +0.000 HD
ENDBRANCH  30  68
BRANCH   1  70
ATOM     70  O   UNL     1     -10.535   2.762  20.652  0.00  0.00    +0.000 OA
BRANCH  70  71
ATOM     71  C   UNL     1      -9.604   3.395  19.780  0.00  0.00    +0.000 C 
ATOM     72  H   UNL     1      -9.865   3.298  18.722  0.00  0.00    +0.000 HD
ATOM     73  H   UNL     1      -8.613   2.957  19.936  0.00  0.00    +0.000 HD
ATOM     74  H   UNL     1      -9.530   4.457  20.036  0.00  0.00    +0.000 HD
ENDBRANCH  70  71
ENDBRANCH   1  70
TORSDOF 7
ENDMDL
MODEL 3
REMARK VINA RESULT:    -7.549      4.832      9.395
REMARK INTER + INTRA:         -10.839
REMARK INTER:                  -9.448
REMARK INTRA:                  -1.391
REMARK UNBOUND:                -1.083
REMARK  Name = 
REMARK  7 active torsions:
REMARK  status: ('A' for Active; 'I' for Inactive)
REMARK    1  A    between atoms: C_1  and  O_2
REMARK    2  A    between atoms: O_2  and  C_3
REMARK    3  A    between atoms: C_4  and  N_5
REMARK    4  A    between atoms: N_5  and  C_6
REMARK    5  A    between atoms: C_7  and  C_9
REMARK    6  A    between atoms: C_18  and  C_19
REMARK    7  A    between atoms: C_43  and  O_44
REMARK                            x       y       z     vdW  Elec       q    Type
REMARK                         _______ _______ _______ _____ _____    ______ ____
ROOT
ATOM      1  C   UNL     1     -12.021   1.454  19.977  0.00  0.00    +0.000 C 
ATOM      2  C   UNL     1     -12.145   2.547  18.865  0.00  0.00    +0.000 C 
ATOM      3  C   UNL     1     -11.908   3.950  19.451  0.00  0.00    +0.000 C 
ATOM      4  C   UNL     1     -10.809   3.903  20.515  0.00  0.00    +0.000 C 
ATOM      5  O   UNL     1      -9.906   2.817  20.152  0.00  0.00    +0.000 OA
ATOM      6  C   UNL     1     -10.463   1.478  20.335  0.00  0.00    +0.000 C 
ATOM      7  N   UNL     1     -10.078   1.086  21.668  0.00  0.00    +0.000 N 
ATOM      8  C   UNL     1      -9.605  -0.105  22.255  0.00  0.00    +0.000 A 
ATOM      9  C   UNL     1      -9.106  -1.292  21.704  0.00  0.00    +0.000 A 
ATOM     10  C   UNL     1      -9.125  -2.452  22.481  0.00  0.00    +0.000 A 
ATOM     11  C   UNL     1      -9.565  -2.428  23.796  0.00  0.00    +0.000 A 
ATOM     12  C   UNL     1      -9.740  -1.208  24.444  0.00  0.00    +0.000 A 
ATOM     13  C   UNL     1      -9.650  -0.015  23.696  0.00  0.00    +0.000 A 
ATOM     14  C   UNL     1      -9.660   1.345  23.978  0.00  0.00    +0.000 A 
ATOM     15  C   UNL     1      -9.219   2.024  25.125  0.00  0.00    +0.000 A 
ATOM     16  C   UNL     1     -10.002   3.197  25.388  0.00  0.00    +0.000 A 
ATOM     17  C   UNL     1     -10.703   3.572  24.214  0.00  0.00    +0.000 A 
ATOM     18  C   UNL     1     -12.029   3.988  24.074  0.00  0.00    +0.000 A 
ATOM     19  C   UNL     1     -13.270   3.887  24.731  0.00  0.00    +0.000 A 
ATOM     20  C   UNL     1     -14.336   4.653  24.251  0.00  0.00    +0.000 A 
ATOM     21  C   UNL     1     -14.062   5.679  23.354  0.00  0.00    +0.000 A 
ATOM     22  C   UNL     1     -12.854   5.706  22.640  0.00  0.00    +0.000 A 
ATOM     23  C   UNL     1     -12.042   4.561  22.754  0.00  0.00    +0.000 A 
ATOM     24  N   UNL     1     -11.176   3.851  21.915  0.00  0.00    +0.000 N 
ATOM     25  C   UNL     1     -10.525   3.171  22.888  0.00  0.00    +0.000 A 
ATOM     26  C   UNL     1     -10.016   1.893  22.761  0.00  0.00    +0.000 A 
ATOM     27  C   UNL     1      -9.145   4.165  26.076  0.00  0.00    +0.000 C 
ATOM     28  O   UNL     1      -9.330   5.303  26.484  0.00  0.00    +0.000 OA
ATOM     29  N   UNL     1      -7.876   3.596  26.039  0.00  0.00    +0.000 N 
ATOM     30  C   UNL     1      -7.771   2.377  25.296  0.00  0.00    +0.000 C 
ATOM     31  H   UNL     1     -12.314   0.476  19.576  0.00  0.00    +0.000 HD
ATOM     32  H   UNL     1     -11.297   2.372  18.204  0.00  0.00    +0.000 HD
ATOM     33  H   UNL     1     -12.817   4.448  19.793  0.00  0.00    +0.000 HD
ATOM     34  H   UNL     1     -11.521   4.560  18.624  0.00  0.00    +0.000 HD
ATOM     35  H   UNL     1     -10.218   4.822  20.440  0.00  0.00    +0.000 HD
ATOM     36  H   UNL     1      -8.715  -1.342  20.697  0.00  0.00    +0.000 HD
ATOM     37  H   UNL     1      -8.824  -3.393  22.026  0.00  0.00    +0.000 HD
ATOM     38  H   UNL     1      -9.726  -3.359  24.330  0.00  0.00    +0.000 HD
ATOM     39  H   UNL     1     -10.040  -1.181  25.490  0.00  0.00    +0.000 HD
ATOM     40  H   UNL     1     -13.422   3.168  25.532  0.00  0.00    +0.000 HD
ATOM     41  H   UNL     1     -15.327   4.549  24.686  0.00  0.00    +0.000 HD
ATOM     42  H   UNL     1     -14.761   6.509  23.272  0.00  0.00    +0.000 HD
ATOM     43  H   UNL     1     -12.410   6.683  22.429  0.00  0.00    +0.000 HD
ATOM     44  H   UNL     1      -7.067   4.185  26.178  0.00  0.00    +0.000 HD
ATOM     45  H   UNL     1      -7.175   1.630  25.816  0.00  0.00    +0.000 HD
ENDROOT
BRANCH   6  46
ATOM     46  C   UNL     1      -9.785   0.548  19.295  0.00  0.00    +0.000 C 
ATOM     47  H   UNL     1      -9.301  -0.302  19.812  0.00  0.00    +0.000 HD
ATOM     48  H   UNL     1      -9.046   1.098  18.683  0.00  0.00    +0.000 HD
ATOM     49  H   UNL     1     -10.497   0.085  18.615  0.00  0.00    +0.000 HD
ENDBRANCH   6  46
BRANCH   2  50
ATOM     50  N   UNL     1     -13.305   2.454  17.964  0.00  0.00    +0.000 N 
ATOM     51  C   UNL     1     -13.521   1.338  17.138  0.00  0.00    +0.000 C 
ATOM     52  O   UNL     1     -14.648   0.940  16.843  0.00  0.00    +0.000 OA
BRANCH  51  53
ATOM     53  C   UNL     1     -12.363   0.628  16.513  0.00  0.00    +0.000 A 
ATOM     54  C   UNL     1     -12.171  -0.736  16.768  0.00  0.00    +0.000 A 
ATOM     55  C   UNL     1     -11.178  -1.446  16.081  0.00  0.00    +0.000 A 
ATOM     56  C   UNL     1     -10.376  -0.797  15.144  0.00  0.00    +0.000 A 
ATOM     57  C   UNL     1     -10.554   0.562  14.894  0.00  0.00    +0.000 A 
ATOM     58  C   UNL     1     -11.553   1.272  15.567  0.00  0.00    +0.000 A 
ATOM     59  H   UNL     1     -12.811  -1.255  17.477  0.00  0.00    +0.000 HD
ATOM     60  H   UNL     1     -11.054  -2.513  16.256  0.00  0.00    +0.000 HD
ATOM     61  H   UNL     1      -9.632  -1.361  14.584  0.00  0.00    +0.000 HD
ATOM     62  H   UNL     1      -9.937   1.062  14.151  0.00  0.00    +0.000 HD
ATOM     63  H   UNL     1     -11.715   2.316  15.322  0.00  0.00    +0.000 HD
ENDBRANCH  51  53
BRANCH  50  64
ATOM     64  C   UNL     1     -14.479   3.258  18.264  0.00  0.00    +0.000 C 
ATOM     65  H   UNL     1     -14.283   4.302  18.004  0.00  0.00    +0.000 HD
ATOM     66  H   UNL     1     -14.683   3.192  19.338  0.00  0.00    +0.000 HD
ATOM     67  H   UNL     1     -15.353   2.886  17.725  0.00  0.00    +0.000 HD
ENDBRANCH  50  64
ENDBRANCH   2  50
BRANCH  30  68
ATOM     68  O   UNL     1      -7.169   2.751  24.067  0.00  0.00    +0.000 OA
ATOM     69  H   UNL     1      -7.018   3.749  24.111  0.00  0.00    +0.000 HD
ENDBRANCH  30  68
BRANCH   1  70
ATOM     70  O   UNL     1     -12.922   1.807  21.036  0.00  0.00    +0.000 OA
BRANCH  70  71
ATOM     71  C   UNL     1     -13.374   0.720  21.838  0.00  0.00    +0.000 C 
ATOM     72  H   UNL     1     -14.361   0.348  21.547  0.00  0.00    +0.000 HD
ATOM     73  H   UNL     1     -13.416   1.041  22.884  0.00  0.00    +0.000 HD
ATOM     74  H   UNL     1     -12.650  -0.099  21.782  0.00  0.00    +0.000 HD
ENDBRANCH  70  71
ENDBRANCH   1  70
TORSDOF 7
ENDMDL
MODEL 4
REMARK VINA RESULT:    -7.222      1.323      2.719
REMARK INTER + INTRA:         -10.417
REMARK INTER:                 -11.105
REMARK INTRA:                   0.688
REMARK UNBOUND:                -1.083
REMARK  Name = 
REMARK  7 active torsions:
REMARK  status: ('A' for Active; 'I' for Inactive)
REMARK    1  A    between atoms: C_1  and  O_2
REMARK    2  A    between atoms: O_2  and  C_3
REMARK    3  A    between atoms: C_4  and  N_5
REMARK    4  A    between atoms: N_5  and  C_6
REMARK    5  A    between atoms: C_7  and  C_9
REMARK    6  A    between atoms: C_18  and  C_19
REMARK    7  A    between atoms: C_43  and  O_44
REMARK                            x       y       z     vdW  Elec       q    Type
REMARK                         _______ _______ _______ _____ _____    ______ ____
ROOT
ATOM      1  C   UNL     1      -9.353  -1.246  18.673  0.00  0.00    +0.000 C 
ATOM      2  C   UNL     1     -10.721  -0.488  18.671  0.00  0.00    +0.000 C 
ATOM      3  C   UNL     1     -11.793  -1.300  17.924  0.00  0.00    +0.000 C 
ATOM      4  C   UNL     1     -11.620  -2.794  18.205  0.00  0.00    +0.000 C 
ATOM      5  O   UNL     1     -11.035  -2.916  19.535  0.00  0.00    +0.000 OA
ATOM      6  C   UNL     1      -9.636  -2.500  19.624  0.00  0.00    +0.000 C 
ATOM      7  N   UNL     1      -8.869  -3.700  19.394  0.00  0.00    +0.000 N 
ATOM      8  C   UNL     1      -7.710  -4.260  19.966  0.00  0.00    +0.000 A 
ATOM      9  C   UNL     1      -7.004  -3.969  21.140  0.00  0.00    +0.000 A 
ATOM     10  C   UNL     1      -5.671  -4.371  21.239  0.00  0.00    +0.000 A 
ATOM     11  C   UNL     1      -5.065  -5.103  20.229  0.00  0.00    +0.000 A 
ATOM     12  C   UNL     1      -5.845  -5.677  19.228  0.00  0.00    +0.000 A 
ATOM     13  C   UNL     1      -7.215  -5.347  19.152  0.00  0.00    +0.000 A 
ATOM     14  C   UNL     1      -8.304  -5.765  18.398  0.00  0.00    +0.000 A 
ATOM     15  C   UNL     1      -8.571  -7.022  17.833  0.00  0.00    +0.000 A 
ATOM     16  C   UNL     1      -9.302  -6.913  16.604  0.00  0.00    +0.000 A 
ATOM     17  C   UNL     1      -9.912  -5.635  16.527  0.00  0.00    +0.000 A 
ATOM     18  C   UNL     1      -9.991  -4.761  15.441  0.00  0.00    +0.000 A 
ATOM     19  C   UNL     1      -9.325  -4.469  14.235  0.00  0.00    +0.000 A 
ATOM     20  C   UNL     1      -9.915  -3.552  13.360  0.00  0.00    +0.000 A 
ATOM     21  C   UNL     1     -11.242  -3.198  13.569  0.00  0.00    +0.000 A 
ATOM     22  C   UNL     1     -11.856  -3.414  14.813  0.00  0.00    +0.000 A 
ATOM     23  C   UNL     1     -11.010  -3.833  15.857  0.00  0.00    +0.000 A 
ATOM     24  N   UNL     1     -10.933  -3.626  17.239  0.00  0.00    +0.000 N 
ATOM     25  C   UNL     1     -10.120  -4.672  17.517  0.00  0.00    +0.000 A 
ATOM     26  C   UNL     1      -9.172  -4.697  18.521  0.00  0.00    +0.000 A 
ATOM     27  C   UNL     1     -10.111  -8.125  16.453  0.00  0.00    +0.000 C 
ATOM     28  O   UNL     1     -10.910  -8.496  15.604  0.00  0.00    +0.000 OA
ATOM     29  N   UNL     1      -9.949  -8.805  17.656  0.00  0.00    +0.000 N 
ATOM     30  C   UNL     1      -9.190  -8.116  18.654  0.00  0.00    +0.000 C 
ATOM     31  H   UNL     1      -8.570  -0.605  19.096  0.00  0.00    +0.000 HD
ATOM     32  H   UNL     1     -11.043  -0.488  19.711  0.00  0.00    +0.000 HD
ATOM     33  H   UNL     1     -11.865  -1.068  16.860  0.00  0.00    +0.000 HD
ATOM     34  H   UNL     1     -12.756  -1.006  18.364  0.00  0.00    +0.000 HD
ATOM     35  H   UNL     1     -12.614  -3.249  18.273  0.00  0.00    +0.000 HD
ATOM     36  H   UNL     1      -7.454  -3.437  21.968  0.00  0.00    +0.000 HD
ATOM     37  H   UNL     1      -5.094  -4.068  22.110  0.00  0.00    +0.000 HD
ATOM     38  H   UNL     1      -3.992  -5.267  20.247  0.00  0.00    +0.000 HD
ATOM     39  H   UNL     1      -5.384  -6.292  18.457  0.00  0.00    +0.000 HD
ATOM     40  H   UNL     1      -8.338  -4.875  14.029  0.00  0.00    +0.000 HD
ATOM     41  H   UNL     1      -9.398  -3.247  12.453  0.00  0.00    +0.000 HD
ATOM     42  H   UNL     1     -11.828  -2.825  12.732  0.00  0.00    +0.000 HD
ATOM     43  H   UNL     1     -12.917  -3.682  14.816  0.00  0.00    +0.000 HD
ATOM     44  H   UNL     1     -10.625  -9.509  17.919  0.00  0.00    +0.000 HD
ATOM     45  H   UNL     1      -8.480  -8.771  19.154  0.00  0.00    +0.000 HD
ENDROOT
BRANCH   6  46
ATOM     46  C   UNL     1      -9.395  -1.988  21.068  0.00  0.00    +0.000 C 
ATOM     47  H   UNL     1      -8.309  -1.893  21.255  0.00  0.00    +0.000 HD
ATOM     48  H   UNL     1      -9.858  -2.657  21.816  0.00  0.00    +0.000 HD
ATOM     49  H   UNL     1      -9.790  -0.987  21.232  0.00  0.00    +0.000 HD
ENDBRANCH   6  46
BRANCH   2  50
ATOM     50  N   UNL     1     -10.691   0.942  18.322  0.00  0.00    +0.000 N 
ATOM     51  C   UNL     1     -11.652   1.525  17.480  0.00  0.00    +0.000 C 
ATOM     52  O   UNL     1     -12.026   2.691  17.609  0.00  0.00    +0.000 OA
BRANCH  51  53
ATOM     53  C   UNL     1     -12.207   0.755  16.325  0.00  0.00    +0.000 A 
ATOM     54  C   UNL     1     -13.539   0.319  16.362  0.00  0.00    +0.000 A 
ATOM     55  C   UNL     1     -14.114  -0.277  15.233  0.00  0.00    +0.000 A 
ATOM     56  C   UNL     1     -13.364  -0.442  14.070  0.00  0.00    +0.000 A 
ATOM     57  C   UNL     1     -12.036  -0.022  14.030  0.00  0.00    +0.000 A 
ATOM     58  C   UNL     1     -11.461   0.587  15.149  0.00  0.00    +0.000 A 
ATOM     59  H   UNL     1     -14.138   0.470  17.256  0.00  0.00    +0.000 HD
ATOM     60  H   UNL     1     -15.158  -0.584  15.254  0.00  0.00    +0.000 HD
ATOM     61  H   UNL     1     -13.826  -0.870  13.183  0.00  0.00    +0.000 HD
ATOM     62  H   UNL     1     -11.459  -0.137  13.116  0.00  0.00    +0.000 HD
ATOM     63  H   UNL     1     -10.444   0.958  15.085  0.00  0.00    +0.000 HD
ENDBRANCH  51  53
BRANCH  50  64
ATOM     64  C   UNL     1      -9.987   1.854  19.209  0.00  0.00    +0.000 C 
ATOM     65  H   UNL     1      -9.215   2.387  18.647  0.00  0.00    +0.000 HD
ATOM     66  H   UNL     1      -9.508   1.272  20.002  0.00  0.00    +0.000 HD
ATOM     67  H   UNL     1     -10.681   2.560  19.671  0.00  0.00    +0.000 HD
ENDBRANCH  50  64
ENDBRANCH   2  50
BRANCH  30  68
ATOM     68  O   UNL     1     -10.155  -7.612  19.564  0.00  0.00    +0.000 OA
ATOM     69  H   UNL     1     -11.040  -8.020  19.301  0.00  0.00    +0.000 HD
ENDBRANCH  30  68
BRANCH   1  70
ATOM     70  O   UNL     1      -9.019  -1.545  17.310  0.00  0.00    +0.000 OA
BRANCH  70  71
ATOM     71  C   UNL     1      -8.473  -0.460  16.565  0.00  0.00    +0.000 C 
ATOM     72  H   UNL     1      -7.386  -0.516  16.453  0.00  0.00    +0.000 HD
ATOM     73  H   UNL     1      -8.725   0.480  17.066  0.00  0.00    +0.000 HD
ATOM     74  H   UNL     1      -8.936  -0.431  15.573  0.00  0.00    +0.000 HD
ENDBRANCH  70  71
ENDBRANCH   1  70
TORSDOF 7
ENDMDL
MODEL 5
REMARK VINA RESULT:    -7.037      2.921      5.227
REMARK INTER + INTRA:         -10.177
REMARK INTER:                  -8.877
REMARK INTRA:                  -1.300
REMARK UNBOUND:                -1.083
REMARK  Name = 
REMARK  7 active torsions:
REMARK  status: ('A' for Active; 'I' for Inactive)
REMARK    1  A    between atoms: C_1  and  O_2
REMARK    2  A    between atoms: O_2  and  C_3
REMARK    3  A    between atoms: C_4  and  N_5
REMARK    4  A    between atoms: N_5  and  C_6
REMARK    5  A    between atoms: C_7  and  C_9
REMARK    6  A    between atoms: C_18  and  C_19
REMARK    7  A    between atoms: C_43  and  O_44
REMARK                            x       y       z     vdW  Elec       q    Type
REMARK                         _______ _______ _______ _____ _____    ______ ____
ROOT
ATOM      1  C   UNL     1     -11.107   2.566  20.989  0.00  0.00    +0.000 C 
ATOM      2  C   UNL     1     -12.360   3.466  20.730  0.00  0.00    +0.000 C 
ATOM      3  C   UNL     1     -13.058   3.064  19.419  0.00  0.00    +0.000 C 
ATOM      4  C   UNL     1     -13.018   1.545  19.239  0.00  0.00    +0.000 C 
ATOM      5  O   UNL     1     -13.002   0.954  20.572  0.00  0.00    +0.000 OA
ATOM      6  C   UNL     1     -11.749   1.135  21.301  0.00  0.00    +0.000 C 
ATOM      7  N   UNL     1     -10.960  -0.032  20.992  0.00  0.00    +0.000 N 
ATOM      8  C   UNL     1     -10.121  -0.887  21.734  0.00  0.00    +0.000 A 
ATOM      9  C   UNL     1      -9.931  -1.057  23.111  0.00  0.00    +0.000 A 
ATOM     10  C   UNL     1      -8.745  -1.645  23.558  0.00  0.00    +0.000 A 
ATOM     11  C   UNL     1      -7.797  -2.115  22.663  0.00  0.00    +0.000 A 
ATOM     12  C   UNL     1      -8.124  -2.254  21.317  0.00  0.00    +0.000 A 
ATOM     13  C   UNL     1      -9.352  -1.737  20.853  0.00  0.00    +0.000 A 
ATOM     14  C   UNL     1     -10.061  -1.762  19.659  0.00  0.00    +0.000 A 
ATOM     15  C   UNL     1     -10.092  -2.745  18.658  0.00  0.00    +0.000 A 
ATOM     16  C   UNL     1     -10.281  -2.177  17.354  0.00  0.00    +0.000 A 
ATOM     17  C   UNL     1     -10.805  -0.866  17.480  0.00  0.00    +0.000 A 
ATOM     18  C   UNL     1     -10.446   0.295  16.792  0.00  0.00    +0.000 A 
ATOM     19  C   UNL     1      -9.359   0.843  16.084  0.00  0.00    +0.000 A 
ATOM     20  C   UNL     1      -9.552   2.049  15.405  0.00  0.00    +0.000 A 
ATOM     21  C   UNL     1     -10.854   2.499  15.213  0.00  0.00    +0.000 A 
ATOM     22  C   UNL     1     -11.908   2.005  15.998  0.00  0.00    +0.000 A 
ATOM     23  C   UNL     1     -11.542   1.184  17.081  0.00  0.00    +0.000 A 
ATOM     24  N   UNL     1     -12.011   0.957  18.380  0.00  0.00    +0.000 N 
ATOM     25  C   UNL     1     -11.379  -0.224  18.580  0.00  0.00    +0.000 A 
ATOM     26  C   UNL     1     -10.901  -0.673  19.795  0.00  0.00    +0.000 A 
ATOM     27  C   UNL     1     -10.973  -3.170  16.528  0.00  0.00    +0.000 C 
ATOM     28  O   UNL     1     -11.376  -3.160  15.373  0.00  0.00    +0.000 OA
ATOM     29  N   UNL     1     -11.300  -4.194  17.412  0.00  0.00    +0.000 N 
ATOM     30  C   UNL     1     -10.989  -3.941  18.785  0.00  0.00    +0.000 C 
ATOM     31  H   UNL     1     -10.550   2.941  21.855  0.00  0.00    +0.000 HD
ATOM     32  H   UNL     1     -13.065   3.197  21.516  0.00  0.00    +0.000 HD
ATOM     33  H   UNL     1     -12.706   3.611  18.542  0.00  0.00    +0.000 HD
ATOM     34  H   UNL     1     -14.115   3.339  19.543  0.00  0.00    +0.000 HD
ATOM     35  H   UNL     1     -13.961   1.227  18.781  0.00  0.00    +0.000 HD
ATOM     36  H   UNL     1     -10.667  -0.742  23.840  0.00  0.00    +0.000 HD
ATOM     37  H   UNL     1      -8.556  -1.695  24.627  0.00  0.00    +0.000 HD
ATOM     38  H   UNL     1      -6.818  -2.418  23.021  0.00  0.00    +0.000 HD
ATOM     39  H   UNL     1      -7.401  -2.667  20.616  0.00  0.00    +0.000 HD
ATOM     40  H   UNL     1      -8.372   0.389  16.137  0.00  0.00    +0.000 HD
ATOM     41  H   UNL     1      -8.719   2.540  14.907  0.00  0.00    +0.000 HD
ATOM     42  H   UNL     1     -11.061   3.180  14.391  0.00  0.00    +0.000 HD
ATOM     43  H   UNL     1     -12.886   1.892  15.521  0.00  0.00    +0.000 HD
ATOM     44  H   UNL     1     -12.029  -4.847  17.161  0.00  0.00    +0.000 HD
ATOM     45  H   UNL     1     -10.536  -4.805  19.269  0.00  0.00    +0.000 HD
ENDROOT
BRANCH   6  46
ATOM     46  C   UNL     1     -12.090   1.156  22.814  0.00  0.00    +0.000 C 
ATOM     47  H   UNL     1     -12.550   2.126  23.081  0.00  0.00    +0.000 HD
ATOM     48  H   UNL     1     -11.193   0.972  23.433  0.00  0.00    +0.000 HD
ATOM     49  H   UNL     1     -12.837   0.414  23.088  0.00  0.00    +0.000 HD
ENDBRANCH   6  46
BRANCH   2  50
ATOM     50  N   UNL     1     -12.188   4.917  20.906  0.00  0.00    +0.000 N 
ATOM     51  C   UNL     1     -11.701   5.471  22.101  0.00  0.00    +0.000 C 
ATOM     52  O   UNL     1     -11.021   6.497  22.127  0.00  0.00    +0.000 OA
BRANCH  51  53
ATOM     53  C   UNL     1     -12.067   4.863  23.417  0.00  0.00    +0.000 A 
ATOM     54  C   UNL     1     -11.053   4.426  24.280  0.00  0.00    +0.000 A 
ATOM     55  C   UNL     1     -11.371   3.986  25.571  0.00  0.00    +0.000 A 
ATOM     56  C   UNL     1     -12.697   3.978  26.001  0.00  0.00    +0.000 A 
ATOM     57  C   UNL     1     -13.711   4.401  25.143  0.00  0.00    +0.000 A 
ATOM     58  C   UNL     1     -13.397   4.854  23.859  0.00  0.00    +0.000 A 
ATOM     59  H   UNL     1     -10.014   4.455  23.962  0.00  0.00    +0.000 HD
ATOM     60  H   UNL     1     -10.578   3.679  26.251  0.00  0.00    +0.000 HD
ATOM     61  H   UNL     1     -12.936   3.673  27.017  0.00  0.00    +0.000 HD
ATOM     62  H   UNL     1     -14.742   4.409  25.486  0.00  0.00    +0.000 HD
ATOM     63  H   UNL     1     -14.191   5.231  23.222  0.00  0.00    +0.000 HD
ENDBRANCH  51  53
BRANCH  50  64
ATOM     64  C   UNL     1     -12.046   5.744  19.719  0.00  0.00    +0.000 C 
ATOM     65  H   UNL     1     -11.447   6.627  19.958  0.00  0.00    +0.000 HD
ATOM     66  H   UNL     1     -13.041   6.068  19.397  0.00  0.00    +0.000 HD
ATOM     67  H   UNL     1     -11.588   5.179  18.904  0.00  0.00    +0.000 HD
ENDBRANCH  50  64
ENDBRANCH   2  50
BRANCH  30  68
ATOM     68  O   UNL     1     -12.231  -3.608  19.385  0.00  0.00    +0.000 OA
ATOM     69  H   UNL     1     -12.061  -2.806  19.974  0.00  0.00    +0.000 HD
ENDBRANCH  30  68
BRANCH   1  70
ATOM     70  O   UNL     1     -10.267   2.647  19.828  0.00  0.00    +0.000 OA
BRANCH  70  71
ATOM     71  C   UNL     1      -9.228   3.619  19.896  0.00  0.00    +0.000 C 
ATOM     72  H   UNL     1      -9.597   4.649  19.878  0.00  0.00    +0.000 HD
ATOM     73  H   UNL     1      -8.550   3.476  19.048  0.00  0.00    +0.000 HD
ATOM     74  H   UNL     1      -8.642   3.462  20.807  0.00  0.00    +0.000 HD
ENDBRANCH  70  71
ENDBRANCH   1  70
TORSDOF 7
ENDMDL
MODEL 6
REMARK VINA RESULT:    -6.967      2.195      3.340
REMARK INTER + INTRA:         -10.087
REMARK INTER:                  -8.839
REMARK INTRA:                  -1.248
REMARK UNBOUND:                -1.083
REMARK  Name = 
REMARK  7 active torsions:
REMARK  status: ('A' for Active; 'I' for Inactive)
REMARK    1  A    between atoms: C_1  and  O_2
REMARK    2  A    between atoms: O_2  and  C_3
REMARK    3  A    between atoms: C_4  and  N_5
REMARK    4  A    between atoms: N_5  and  C_6
REMARK    5  A    between atoms: C_7  and  C_9
REMARK    6  A    between atoms: C_18  and  C_19
REMARK    7  A    between atoms: C_43  and  O_44
REMARK                            x       y       z     vdW  Elec       q    Type
REMARK                         _______ _______ _______ _____ _____    ______ ____
ROOT
ATOM      1  C   UNL     1      -9.816   0.957  19.825  0.00  0.00    +0.000 C 
ATOM      2  C   UNL     1     -10.992   1.984  19.734  0.00  0.00    +0.000 C 
ATOM      3  C   UNL     1     -11.998   1.566  18.647  0.00  0.00    +0.000 C 
ATOM      4  C   UNL     1     -12.160   0.044  18.631  0.00  0.00    +0.000 C 
ATOM      5  O   UNL     1     -11.917  -0.429  19.989  0.00  0.00    +0.000 OA
ATOM      6  C   UNL     1     -10.523  -0.349  20.419  0.00  0.00    +0.000 C 
ATOM      7  N   UNL     1      -9.950  -1.629  20.084  0.00  0.00    +0.000 N 
ATOM      8  C   UNL     1      -9.065  -2.518  20.727  0.00  0.00    +0.000 A 
ATOM      9  C   UNL     1      -8.599  -2.594  22.045  0.00  0.00    +0.000 A 
ATOM     10  C   UNL     1      -7.414  -3.288  22.299  0.00  0.00    +0.000 A 
ATOM     11  C   UNL     1      -6.739  -3.950  21.285  0.00  0.00    +0.000 A 
ATOM     12  C   UNL     1      -7.366  -4.160  20.060  0.00  0.00    +0.000 A 
ATOM     13  C   UNL     1      -8.603  -3.531  19.805  0.00  0.00    +0.000 A 
ATOM     14  C   UNL     1      -9.554  -3.566  18.793  0.00  0.00    +0.000 A 
ATOM     15  C   UNL     1      -9.907  -4.619  17.935  0.00  0.00    +0.000 A 
ATOM     16  C   UNL     1     -10.315  -4.144  16.644  0.00  0.00    +0.000 A 
ATOM     17  C   UNL     1     -10.655  -2.770  16.730  0.00  0.00    +0.000 A 
ATOM     18  C   UNL     1     -10.333  -1.728  15.859  0.00  0.00    +0.000 A 
ATOM     19  C   UNL     1      -9.375  -1.386  14.886  0.00  0.00    +0.000 A 
ATOM     20  C   UNL     1      -9.581  -0.226  14.133  0.00  0.00    +0.000 A 
ATOM     21  C   UNL     1     -10.837   0.368  14.166  0.00  0.00    +0.000 A 
ATOM     22  C   UNL     1     -11.742   0.082  15.200  0.00  0.00    +0.000 A 
ATOM     23  C   UNL     1     -11.238  -0.685  16.269  0.00  0.00    +0.000 A 
ATOM     24  N   UNL     1     -11.434  -0.739  17.653  0.00  0.00    +0.000 N 
ATOM     25  C   UNL     1     -10.904  -1.969  17.847  0.00  0.00    +0.000 A 
ATOM     26  C   UNL     1     -10.223  -2.372  18.979  0.00  0.00    +0.000 A 
ATOM     27  C   UNL     1     -11.272  -5.107  16.093  0.00  0.00    +0.000 C 
ATOM     28  O   UNL     1     -11.914  -5.143  15.052  0.00  0.00    +0.000 OA
ATOM     29  N   UNL     1     -11.506  -6.001  17.132  0.00  0.00    +0.000 N 
ATOM     30  C   UNL     1     -10.878  -5.675  18.376  0.00  0.00    +0.000 C 
ATOM     31  H   UNL     1      -9.046   1.330  20.511  0.00  0.00    +0.000 HD
ATOM     32  H   UNL     1     -11.532   1.876  20.673  0.00  0.00    +0.000 HD
ATOM     33  H   UNL     1     -11.789   1.986  17.662  0.00  0.00    +0.000 HD
ATOM     34  H   UNL     1     -12.966   1.983  18.956  0.00  0.00    +0.000 HD
ATOM     35  H   UNL     1     -13.209  -0.188  18.417  0.00  0.00    +0.000 HD
ATOM     36  H   UNL     1      -9.120  -2.127  22.871  0.00  0.00    +0.000 HD
ATOM     37  H   UNL     1      -7.002  -3.272  23.305  0.00  0.00    +0.000 HD
ATOM     38  H   UNL     1      -5.744  -4.345  21.464  0.00  0.00    +0.000 HD
ATOM     39  H   UNL     1      -6.861  -4.720  19.274  0.00  0.00    +0.000 HD
ATOM     40  H   UNL     1      -8.454  -1.955  14.783  0.00  0.00    +0.000 HD
ATOM     41  H   UNL     1      -8.830   0.109  13.422  0.00  0.00    +0.000 HD
ATOM     42  H   UNL     1     -11.146   0.998  13.334  0.00  0.00    +0.000 HD
ATOM     43  H   UNL     1     -12.807   0.055  14.951  0.00  0.00    +0.000 HD
ATOM     44  H   UNL     1     -12.337  -6.575  17.111  0.00  0.00    +0.000 HD
ATOM     45  H   UNL     1     -10.425  -6.545  18.847  0.00  0.00    +0.000 HD
ENDROOT
BRANCH   6  46
ATOM     46  C   UNL     1     -10.522  -0.156  21.958  0.00  0.00    +0.000 C 
ATOM     47  H   UNL     1      -9.928  -0.958  22.436  0.00  0.00    +0.000 HD
ATOM     48  H   UNL     1     -11.551  -0.145  22.364  0.00  0.00    +0.000 HD
ATOM     49  H   UNL     1     -10.035   0.766  22.268  0.00  0.00    +0.000 HD
ENDBRANCH   6  46
BRANCH   2  50
ATOM     50  N   UNL     1     -10.631   3.411  19.709  0.00  0.00    +0.000 N 
ATOM     51  C   UNL     1      -9.963   4.031  20.778  0.00  0.00    +0.000 C 
ATOM     52  O   UNL     1      -9.166   4.955  20.614  0.00  0.00    +0.000 OA
BRANCH  51  53
ATOM     53  C   UNL     1     -10.261   3.630  22.187  0.00  0.00    +0.000 A 
ATOM     54  C   UNL     1      -9.216   3.213  23.022  0.00  0.00    +0.000 A 
ATOM     55  C   UNL     1      -9.456   2.970  24.380  0.00  0.00    +0.000 A 
ATOM     56  C   UNL     1     -10.737   3.141  24.905  0.00  0.00    +0.000 A 
ATOM     57  C   UNL     1     -11.783   3.544  24.078  0.00  0.00    +0.000 A 
ATOM     58  C   UNL     1     -11.545   3.801  22.724  0.00  0.00    +0.000 A 
ATOM     59  H   UNL     1      -8.210   3.104  22.625  0.00  0.00    +0.000 HD
ATOM     60  H   UNL     1      -8.636   2.679  25.033  0.00  0.00    +0.000 HD
ATOM     61  H   UNL     1     -10.911   2.989  25.969  0.00  0.00    +0.000 HD
ATOM     62  H   UNL     1     -12.776   3.692  24.494  0.00  0.00    +0.000 HD
ATOM     63  H   UNL     1     -12.357   4.167  22.105  0.00  0.00    +0.000 HD
ENDBRANCH  51  53
BRANCH  50  64
ATOM     64  C   UNL     1     -10.514   4.072  18.419  0.00  0.00    +0.000 C 
ATOM     65  H   UNL     1     -11.511   4.315  18.041  0.00  0.00    +0.000 HD
ATOM     66  H   UNL     1     -10.027   3.386  17.718  0.00  0.00    +0.000 HD
ATOM     67  H   UNL     1      -9.903   4.974  18.498  0.00  0.00    +0.000 HD
ENDBRANCH  50  64
ENDBRANCH   2  50
BRANCH  30  68
ATOM     68  O   UNL     1     -11.916  -5.137  19.179  0.00  0.00    +0.000 OA
ATOM     69  H   UNL     1     -11.807  -4.133  19.157  0.00  0.00    +0.000 HD
ENDBRANCH  30  68
BRANCH   1  70
ATOM     70  O   UNL     1      -9.246   0.831  18.515  0.00  0.00    +0.000 OA
BRANCH  70  71
ATOM     71  C   UNL     1      -8.074   1.607  18.284  0.00  0.00    +0.000 C 
ATOM     72  H   UNL     1      -7.828   2.279  19.112  0.00  0.00    +0.000 HD
ATOM     73  H   UNL     1      -8.216   2.207  17.379  0.00  0.00    +0.000 HD
ATOM     74  H   UNL     1      -7.226   0.939  18.098  0.00  0.00    +0.000 HD
ENDBRANCH  70  71
ENDBRANCH   1  70
TORSDOF 7
ENDMDL
