REMARK  Name = 
REMARK  6 active torsions:
REMARK  status: ('A' for Active; 'I' for Inactive)
REMARK    1  A    between atoms: C_1  and  O_2
REMARK    2  A    between atoms: O_2  and  C_3
REMARK    3  A    between atoms: C_4  and  N_5
REMARK    4  A    between atoms: N_5  and  C_6
REMARK    5  A    between atoms: C_7  and  C_9
REMARK    6  A    between atoms: C_18  and  C_19
REMARK                            x       y       z     vdW  Elec       q    Type
REMARK                         _______ _______ _______ _____ _____    ______ ____
ROOT
ATOM      1  C   UNL     1       1.194  -0.749  -0.479  0.00  0.00    +0.000 C 
ATOM      2  C   UNL     1       1.548  -0.154   0.926  0.00  0.00    +0.000 C 
ATOM      3  C   UNL     1       0.325  -0.229   1.822  0.00  0.00    +0.000 C 
ATOM      4  C   UNL     1      -0.093  -1.697   2.017  0.00  0.00    +0.000 C 
ATOM      5  O   UNL     1       0.432  -2.591   1.037  0.00  0.00    +0.000 OA
ATOM      6  C   UNL     1       0.445  -2.129  -0.340  0.00  0.00    +0.000 C 
ATOM      7  N   UNL     1      -0.923  -2.212  -0.863  0.00  0.00    +0.000 N 
ATOM      8  C   UNL     1      -1.395  -2.433  -2.165  0.00  0.00    +0.000 A 
ATOM      9  C   UNL     1      -0.844  -2.190  -3.430  0.00  0.00    +0.000 A 
ATOM     10  C   UNL     1      -1.404  -2.875  -4.517  0.00  0.00    +0.000 A 
ATOM     11  C   UNL     1      -2.412  -3.818  -4.331  0.00  0.00    +0.000 A 
ATOM     12  C   UNL     1      -3.118  -3.850  -3.133  0.00  0.00    +0.000 A 
ATOM     13  C   UNL     1      -2.728  -2.971  -2.111  0.00  0.00    +0.000 A 
ATOM     14  C   UNL     1      -3.299  -2.490  -0.917  0.00  0.00    +0.000 A 
ATOM     15  C   UNL     1      -4.419  -1.610  -0.944  0.00  0.00    +0.000 A 
ATOM     16  C   UNL     1      -4.515  -0.702   0.144  0.00  0.00    +0.000 A 
ATOM     17  C   UNL     1      -3.528  -0.922   1.120  0.00  0.00    +0.000 A 
ATOM     18  C   UNL     1      -3.445  -0.495   2.464  0.00  0.00    +0.000 A 
ATOM     19  C   UNL     1      -4.146   0.389   3.303  0.00  0.00    +0.000 A 
ATOM     20  C   UNL     1      -3.938   0.333   4.688  0.00  0.00    +0.000 A 
ATOM     21  C   UNL     1      -3.090  -0.618   5.250  0.00  0.00    +0.000 A 
ATOM     22  C   UNL     1      -2.274  -1.410   4.448  0.00  0.00    +0.000 A 
ATOM     23  C   UNL     1      -2.366  -1.266   3.060  0.00  0.00    +0.000 A 
ATOM     24  N   UNL     1      -1.530  -1.810   2.066  0.00  0.00    +0.000 N 
ATOM     25  C   UNL     1      -2.349  -1.646   1.015  0.00  0.00    +0.000 A 
ATOM     26  C   UNL     1      -2.127  -2.245  -0.196  0.00  0.00    +0.000 A 
ATOM     27  C   UNL     1      -5.612   0.176  -0.057  0.00  0.00    +0.000 C 
ATOM     28  O   UNL     1      -6.068   1.114   0.580  0.00  0.00    +0.000 OA
ATOM     29  N   UNL     1      -6.152  -0.267  -1.264  0.00  0.00    +0.000 N 
ATOM     30  C   UNL     1      -5.421  -1.325  -1.962  0.00  0.00    +0.000 C 
ATOM     31  H   UNL     1       2.164  -1.003  -0.917  0.00  0.00    +0.000 HD
ATOM     32  H   UNL     1       2.277  -0.839   1.384  0.00  0.00    +0.000 HD
ATOM     33  H   UNL     1       0.509   0.204   2.814  0.00  0.00    +0.000 HD
ATOM     34  H   UNL     1      -0.481   0.387   1.404  0.00  0.00    +0.000 HD
ATOM     35  H   UNL     1       0.274  -2.042   2.976  0.00  0.00    +0.000 HD
ATOM     36  H   UNL     1      -0.015  -1.506  -3.567  0.00  0.00    +0.000 HD
ATOM     37  H   UNL     1      -1.001  -2.714  -5.513  0.00  0.00    +0.000 HD
ATOM     38  H   UNL     1      -2.682  -4.497  -5.135  0.00  0.00    +0.000 HD
ATOM     39  H   UNL     1      -3.922  -4.565  -2.974  0.00  0.00    +0.000 HD
ATOM     40  H   UNL     1      -4.857   1.105   2.892  0.00  0.00    +0.000 HD
ATOM     41  H   UNL     1      -4.485   1.009   5.340  0.00  0.00    +0.000 HD
ATOM     42  H   UNL     1      -3.043  -0.735   6.330  0.00  0.00    +0.000 HD
ATOM     43  H   UNL     1      -1.608  -2.149   4.883  0.00  0.00    +0.000 HD
ATOM     44  H   UNL     1      -7.096   0.005  -1.492  0.00  0.00    +0.000 HD
ATOM     45  H   UNL     1      -4.977  -0.906  -2.871  0.00  0.00    +0.000 HD
ATOM     46  H   UNL     1      -6.084  -2.162  -2.171  0.00  0.00    +0.000 HD
ENDROOT
BRANCH   6  47
ATOM     47  C   UNL     1       1.267  -3.221  -1.046  0.00  0.00    +0.000 C 
ATOM     48  H   UNL     1       2.224  -3.372  -0.536  0.00  0.00    +0.000 HD
ATOM     49  H   UNL     1       0.745  -4.187  -1.024  0.00  0.00    +0.000 HD
ATOM     50  H   UNL     1       1.470  -2.970  -2.090  0.00  0.00    +0.000 HD
ENDBRANCH   6  47
BRANCH   2  51
ATOM     51  N   UNL     1       2.248   1.154   0.897  0.00  0.00    +0.000 N 
ATOM     52  C   UNL     1       3.564   1.123   0.403  0.00  0.00    +0.000 C 
ATOM     53  O   UNL     1       4.088   0.066   0.044  0.00  0.00    +0.000 OA
BRANCH  52  54
ATOM     54  C   UNL     1       4.320   2.453   0.312  0.00  0.00    +0.000 C 
ATOM     55  C   UNL     1       3.638   3.340  -0.740  0.00  0.00    +0.000 C 
ATOM     56  C   UNL     1       4.379   4.655  -0.934  0.00  0.00    +0.000 C 
ATOM     57  C   UNL     1       5.830   4.403  -1.320  0.00  0.00    +0.000 C 
ATOM     58  C   UNL     1       6.536   3.552  -0.269  0.00  0.00    +0.000 C 
ATOM     59  C   UNL     1       5.803   2.234  -0.022  0.00  0.00    +0.000 C 
ATOM     60  H   UNL     1       4.295   2.939   1.296  0.00  0.00    +0.000 HD
ATOM     61  H   UNL     1       2.599   3.563  -0.468  0.00  0.00    +0.000 HD
ATOM     62  H   UNL     1       3.582   2.804  -1.696  0.00  0.00    +0.000 HD
ATOM     63  H   UNL     1       3.883   5.247  -1.711  0.00  0.00    +0.000 HD
ATOM     64  H   UNL     1       4.338   5.242  -0.008  0.00  0.00    +0.000 HD
ATOM     65  H   UNL     1       5.865   3.890  -2.290  0.00  0.00    +0.000 HD
ATOM     66  H   UNL     1       6.353   5.358  -1.441  0.00  0.00    +0.000 HD
ATOM     67  H   UNL     1       6.605   4.116   0.670  0.00  0.00    +0.000 HD
ATOM     68  H   UNL     1       7.563   3.346  -0.592  0.00  0.00    +0.000 HD
ATOM     69  H   UNL     1       6.290   1.705   0.808  0.00  0.00    +0.000 HD
ATOM     70  H   UNL     1       5.910   1.594  -0.904  0.00  0.00    +0.000 HD
ENDBRANCH  52  54
BRANCH  51  71
ATOM     71  C   UNL     1       1.834   2.193   1.839  0.00  0.00    +0.000 C 
ATOM     72  H   UNL     1       2.273   3.167   1.629  0.00  0.00    +0.000 HD
ATOM     73  H   UNL     1       2.162   1.892   2.839  0.00  0.00    +0.000 HD
ATOM     74  H   UNL     1       0.749   2.324   1.813  0.00  0.00    +0.000 HD
ENDBRANCH  51  71
ENDBRANCH   2  51
BRANCH   1  75
ATOM     75  O   UNL     1       0.674   0.144  -1.479  0.00  0.00    +0.000 OA
BRANCH  75  76
ATOM     76  C   UNL     1      -0.471   0.921  -1.186  0.00  0.00    +0.000 C 
ATOM     77  H   UNL     1      -1.265   0.347  -0.716  0.00  0.00    +0.000 HD
ATOM     78  H   UNL     1      -0.207   1.776  -0.560  0.00  0.00    +0.000 HD
ATOM     79  H   UNL     1      -0.866   1.306  -2.131  0.00  0.00    +0.000 HD
ENDBRANCH  75  76
ENDBRANCH   1  75
TORSDOF 6
