MODEL 1
REMARK VINA RESULT:    -9.993      0.000      0.000
REMARK INTER + INTRA:         -14.791
REMARK INTER:                 -15.250
REMARK INTRA:                   0.459
REMARK UNBOUND:                 0.459
REMARK  Name = 
REMARK  11 active torsions:
REMARK  status: ('A' for Active; 'I' for Inactive)
REMARK    1  A    between atoms: C_1  and  O_2
REMARK    2  A    between atoms: O_2  and  C_3
REMARK    3  A    between atoms: C_3  and  C_5
REMARK    4  A    between atoms: C_9  and  N_10
REMARK    5  A    between atoms: C_11  and  C_13
REMARK    6  A    between atoms: C_13  and  C_14
REMARK    7  A    between atoms: C_14  and  N_15
REMARK    8  A    between atoms: N_15  and  C_16
REMARK    9  A    between atoms: N_15  and  C_17
REMARK   10  A    between atoms: N_20  and  C_21
REMARK   11  A    between atoms: C_27  and  C_28
REMARK                            x       y       z     vdW  Elec       q    Type
REMARK                         _______ _______ _______ _____ _____    ______ ____
ROOT
ATOM      1  C   UNL     1     -10.194  -5.675  17.391  0.00  0.00    +0.000 C 
ATOM      2  C   UNL     1     -10.751  -7.010  18.014  0.00  0.00    +0.000 C 
ATOM      3  C   UNL     1      -9.713  -8.132  18.171  0.00  0.00    +0.000 C 
ATOM      4  N   UNL     1      -9.010  -8.292  16.913  0.00  0.00    +0.000 N 
ATOM      5  C   UNL     1      -8.272  -7.136  16.462  0.00  0.00    +0.000 C 
ATOM      6  C   UNL     1      -9.291  -6.029  16.190  0.00  0.00    +0.000 C 
ATOM      7  H   UNL     1     -11.549  -7.391  17.364  0.00  0.00    +0.000 HD
ATOM      8  H   UNL     1     -11.214  -6.819  18.991  0.00  0.00    +0.000 HD
ATOM      9  H   UNL     1     -10.197  -9.051  18.516  0.00  0.00    +0.000 HD
ATOM     10  H   UNL     1      -8.992  -7.909  18.964  0.00  0.00    +0.000 HD
ATOM     11  H   UNL     1      -7.702  -7.314  15.543  0.00  0.00    +0.000 HD
ATOM     12  H   UNL     1      -7.546  -6.823  17.223  0.00  0.00    +0.000 HD
ATOM     13  H   UNL     1      -9.918  -6.330  15.344  0.00  0.00    +0.000 HD
ATOM     14  H   UNL     1      -8.690  -5.167  15.886  0.00  0.00    +0.000 HD
ENDROOT
BRANCH   4  15
ATOM     15  C   UNL     1      -8.994  -9.450  16.170  0.00  0.00    +0.000 A 
ATOM     16  N   UNL     1      -9.049  -9.368  14.812  0.00  0.00    +0.000 NA
ATOM     17  C   UNL     1      -8.982 -10.498  14.078  0.00  0.00    +0.000 A 
ATOM     18  N   UNL     1      -8.889 -11.766  14.507  0.00  0.00    +0.000 NA
ATOM     19  C   UNL     1      -8.871 -11.816  15.848  0.00  0.00    +0.000 A 
ATOM     20  N   UNL     1      -8.769 -12.966  16.581  0.00  0.00    +0.000 N 
ATOM     21  C   UNL     1      -8.722 -12.660  17.921  0.00  0.00    +0.000 A 
ATOM     22  C   UNL     1      -8.942 -11.306  18.029  0.00  0.00    +0.000 A 
ATOM     23  C   UNL     1      -8.935 -10.744  16.726  0.00  0.00    +0.000 A 
ATOM     24  H   UNL     1      -8.998 -10.358  13.001  0.00  0.00    +0.000 HD
ATOM     25  H   UNL     1      -8.693 -13.886  16.171  0.00  0.00    +0.000 HD
ATOM     26  H   UNL     1      -9.021 -10.772  18.968  0.00  0.00    +0.000 HD
BRANCH  21  27
ATOM     27  C   UNL     1      -8.445 -13.647  18.985  0.00  0.00    +0.000 C 
ATOM     28  H   UNL     1      -9.169 -14.464  18.992  0.00  0.00    +0.000 HD
ATOM     29  H   UNL     1      -8.445 -13.164  19.968  0.00  0.00    +0.000 HD
ATOM     30  H   UNL     1      -7.448 -14.073  18.823  0.00  0.00    +0.000 HD
ENDBRANCH  21  27
ENDBRANCH   4  15
BRANCH   1  32
ATOM     31  N   UNL     1      -8.092  -5.467  18.721  0.00  0.00    +0.000 N 
ATOM     32  C   UNL     1      -9.356  -4.956  18.470  0.00  0.00    +0.000 C 
ATOM     33  O   UNL     1      -9.860  -4.042  19.122  0.00  0.00    +0.000 OA
ATOM     34  H   UNL     1      -7.786  -6.238  18.126  0.00  0.00    +0.000 HD
BRANCH  31  39
ATOM     35  C   UNL     1      -6.708  -3.691  21.691  0.00  0.00    +0.000 A 
ATOM     36  C   UNL     1      -5.342  -3.973  21.571  0.00  0.00    +0.000 A 
ATOM     37  C   UNL     1      -4.877  -4.728  20.508  0.00  0.00    +0.000 A 
ATOM     38  C   UNL     1      -5.778  -5.214  19.561  0.00  0.00    +0.000 A 
ATOM     39  C   UNL     1      -7.152  -4.958  19.654  0.00  0.00    +0.000 A 
ATOM     40  C   UNL     1      -7.613  -4.188  20.730  0.00  0.00    +0.000 A 
ATOM     41  H   UNL     1      -4.622  -3.606  22.303  0.00  0.00    +0.000 HD
ATOM     42  H   UNL     1      -3.818  -4.955  20.412  0.00  0.00    +0.000 HD
ATOM     43  H   UNL     1      -5.358  -5.822  18.765  0.00  0.00    +0.000 HD
ATOM     44  H   UNL     1      -8.672  -3.951  20.826  0.00  0.00    +0.000 HD
BRANCH  35  45
ATOM     45  C   UNL     1      -7.228  -2.886  22.835  0.00  0.00    +0.000 C 
ATOM     46  O   UNL     1      -7.200  -1.668  22.879  0.00  0.00    +0.000 OA
BRANCH  45  47
ATOM     47  O   UNL     1      -7.733  -3.708  23.787  0.00  0.00    +0.000 OA
BRANCH  47  48
ATOM     48  C   UNL     1      -8.725  -3.125  24.631  0.00  0.00    +0.000 C 
ATOM     49  H   UNL     1      -9.353  -2.473  24.014  0.00  0.00    +0.000 HD
ATOM     50  H   UNL     1      -8.246  -2.512  25.400  0.00  0.00    +0.000 HD
ATOM     51  H   UNL     1      -9.364  -3.890  25.080  0.00  0.00    +0.000 HD
ENDBRANCH  47  48
ENDBRANCH  45  47
ENDBRANCH  35  45
ENDBRANCH  31  39
ENDBRANCH   1  32
BRANCH   1  52
ATOM     52  C   UNL     1     -11.444  -4.816  16.983  0.00  0.00    +0.000 C 
ATOM     53  H   UNL     1     -11.878  -4.452  17.927  0.00  0.00    +0.000 HD
ATOM     54  H   UNL     1     -12.201  -5.482  16.544  0.00  0.00    +0.000 HD
BRANCH  52  55
ATOM     55  N   UNL     1     -11.296  -3.617  16.109  0.00  0.00    +0.000 NA
BRANCH  55  56
ATOM     56  C   UNL     1     -11.660  -3.836  14.705  0.00  0.00    +0.000 C 
ATOM     57  H   UNL     1     -10.779  -4.021  14.094  0.00  0.00    +0.000 HD
ATOM     58  H   UNL     1     -12.090  -2.928  14.266  0.00  0.00    +0.000 HD
ATOM     59  H   UNL     1     -12.385  -4.648  14.579  0.00  0.00    +0.000 HD
ENDBRANCH  55  56
BRANCH  55  60
ATOM     60  C   UNL     1     -12.189  -2.551  16.612  0.00  0.00    +0.000 C 
ATOM     61  H   UNL     1     -11.625  -1.656  16.898  0.00  0.00    +0.000 HD
ATOM     62  H   UNL     1     -12.773  -2.886  17.478  0.00  0.00    +0.000 HD
ATOM     63  H   UNL     1     -12.890  -2.245  15.828  0.00  0.00    +0.000 HD
ENDBRANCH  55  60
ENDBRANCH  52  55
ENDBRANCH   1  52
TORSDOF 11
ENDMDL
MODEL 2
REMARK VINA RESULT:    -9.918      3.065      8.044
REMARK INTER + INTRA:         -14.677
REMARK INTER:                 -13.888
REMARK INTRA:                  -0.789
REMARK UNBOUND:                 0.459
REMARK  Name = 
REMARK  11 active torsions:
REMARK  status: ('A' for Active; 'I' for Inactive)
REMARK    1  A    between atoms: C_1  and  O_2
REMARK    2  A    between atoms: O_2  and  C_3
REMARK    3  A    between atoms: C_3  and  C_5
REMARK    4  A    between atoms: C_9  and  N_10
REMARK    5  A    between atoms: C_11  and  C_13
REMARK    6  A    between atoms: C_13  and  C_14
REMARK    7  A    between atoms: C_14  and  N_15
REMARK    8  A    between atoms: N_15  and  C_16
REMARK    9  A    between atoms: N_15  and  C_17
REMARK   10  A    between atoms: N_20  and  C_21
REMARK   11  A    between atoms: C_27  and  C_28
REMARK                            x       y       z     vdW  Elec       q    Type
REMARK                         _______ _______ _______ _____ _____    ______ ____
ROOT
ATOM      1  C   UNL     1     -10.066  -6.599  17.685  0.00  0.00    +0.000 C 
ATOM      2  C   UNL     1      -8.871  -5.821  17.016  0.00  0.00    +0.000 C 
ATOM      3  C   UNL     1      -7.473  -6.280  17.458  0.00  0.00    +0.000 C 
ATOM      4  N   UNL     1      -7.437  -6.325  18.907  0.00  0.00    +0.000 N 
ATOM      5  C   UNL     1      -8.365  -7.243  19.524  0.00  0.00    +0.000 C 
ATOM      6  C   UNL     1      -9.774  -6.751  19.194  0.00  0.00    +0.000 C 
ATOM      7  H   UNL     1      -8.963  -4.757  17.269  0.00  0.00    +0.000 HD
ATOM      8  H   UNL     1      -8.933  -5.884  15.921  0.00  0.00    +0.000 HD
ATOM      9  H   UNL     1      -6.706  -5.630  17.027  0.00  0.00    +0.000 HD
ATOM     10  H   UNL     1      -7.225  -7.269  17.059  0.00  0.00    +0.000 HD
ATOM     11  H   UNL     1      -8.266  -7.297  20.615  0.00  0.00    +0.000 HD
ATOM     12  H   UNL     1      -8.206  -8.261  19.147  0.00  0.00    +0.000 HD
ATOM     13  H   UNL     1      -9.935  -5.788  19.690  0.00  0.00    +0.000 HD
ATOM     14  H   UNL     1     -10.441  -7.489  19.648  0.00  0.00    +0.000 HD
ENDROOT
BRANCH   4  15
ATOM     15  C   UNL     1      -6.584  -5.581  19.689  0.00  0.00    +0.000 A 
ATOM     16  N   UNL     1      -5.257  -5.887  19.701  0.00  0.00    +0.000 NA
ATOM     17  C   UNL     1      -4.409  -5.129  20.425  0.00  0.00    +0.000 A 
ATOM     18  N   UNL     1      -4.693  -4.071  21.201  0.00  0.00    +0.000 NA
ATOM     19  C   UNL     1      -6.011  -3.815  21.196  0.00  0.00    +0.000 A 
ATOM     20  N   UNL     1      -6.606  -2.791  21.880  0.00  0.00    +0.000 N 
ATOM     21  C   UNL     1      -7.955  -2.777  21.614  0.00  0.00    +0.000 A 
ATOM     22  C   UNL     1      -8.225  -3.899  20.864  0.00  0.00    +0.000 A 
ATOM     23  C   UNL     1      -6.995  -4.507  20.506  0.00  0.00    +0.000 A 
ATOM     24  H   UNL     1      -3.361  -5.408  20.364  0.00  0.00    +0.000 HD
ATOM     25  H   UNL     1      -6.098  -2.130  22.451  0.00  0.00    +0.000 HD
ATOM     26  H   UNL     1      -9.216  -4.197  20.545  0.00  0.00    +0.000 HD
BRANCH  21  27
ATOM     27  C   UNL     1      -8.873  -1.706  22.053  0.00  0.00    +0.000 C 
ATOM     28  H   UNL     1      -9.390  -1.233  21.216  0.00  0.00    +0.000 HD
ATOM     29  H   UNL     1      -8.330  -0.940  22.615  0.00  0.00    +0.000 HD
ATOM     30  H   UNL     1      -9.628  -2.139  22.721  0.00  0.00    +0.000 HD
ENDBRANCH  21  27
ENDBRANCH   4  15
BRANCH   1  32
ATOM     31  N   UNL     1      -8.969  -8.533  16.552  0.00  0.00    +0.000 N 
ATOM     32  C   UNL     1     -10.153  -7.996  17.035  0.00  0.00    +0.000 C 
ATOM     33  O   UNL     1     -11.251  -8.529  16.883  0.00  0.00    +0.000 OA
ATOM     34  H   UNL     1      -8.121  -7.993  16.723  0.00  0.00    +0.000 HD
BRANCH  31  39
ATOM     35  C   UNL     1      -8.680 -12.227  16.151  0.00  0.00    +0.000 A 
ATOM     36  C   UNL     1      -8.575 -12.348  14.761  0.00  0.00    +0.000 A 
ATOM     37  C   UNL     1      -8.580 -11.218  13.961  0.00  0.00    +0.000 A 
ATOM     38  C   UNL     1      -8.700  -9.958  14.546  0.00  0.00    +0.000 A 
ATOM     39  C   UNL     1      -8.815  -9.801  15.934  0.00  0.00    +0.000 A 
ATOM     40  C   UNL     1      -8.803 -10.950  16.736  0.00  0.00    +0.000 A 
ATOM     41  H   UNL     1      -8.485 -13.324  14.282  0.00  0.00    +0.000 HD
ATOM     42  H   UNL     1      -8.505 -11.305  12.879  0.00  0.00    +0.000 HD
ATOM     43  H   UNL     1      -8.725  -9.112  13.867  0.00  0.00    +0.000 HD
ATOM     44  H   UNL     1      -8.870 -10.867  17.820  0.00  0.00    +0.000 HD
BRANCH  35  45
ATOM     45  C   UNL     1      -8.684 -13.435  17.028  0.00  0.00    +0.000 C 
ATOM     46  O   UNL     1      -8.708 -14.580  16.610  0.00  0.00    +0.000 OA
BRANCH  45  47
ATOM     47  O   UNL     1      -8.645 -13.060  18.330  0.00  0.00    +0.000 OA
BRANCH  47  48
ATOM     48  C   UNL     1      -8.863 -14.109  19.272  0.00  0.00    +0.000 C 
ATOM     49  H   UNL     1      -8.025 -14.109  19.978  0.00  0.00    +0.000 HD
ATOM     50  H   UNL     1      -8.878 -15.074  18.758  0.00  0.00    +0.000 HD
ATOM     51  H   UNL     1      -9.785 -13.951  19.837  0.00  0.00    +0.000 HD
ENDBRANCH  47  48
ENDBRANCH  45  47
ENDBRANCH  35  45
ENDBRANCH  31  39
ENDBRANCH   1  32
BRANCH   1  52
ATOM     52  C   UNL     1     -11.363  -5.761  17.396  0.00  0.00    +0.000 C 
ATOM     53  H   UNL     1     -11.756  -5.469  18.382  0.00  0.00    +0.000 HD
ATOM     54  H   UNL     1     -12.121  -6.425  16.958  0.00  0.00    +0.000 HD
BRANCH  52  55
ATOM     55  N   UNL     1     -11.300  -4.507  16.591  0.00  0.00    +0.000 NA
BRANCH  55  56
ATOM     56  C   UNL     1     -11.724  -4.657  15.195  0.00  0.00    +0.000 C 
ATOM     57  H   UNL     1     -11.367  -3.829  14.585  0.00  0.00    +0.000 HD
ATOM     58  H   UNL     1     -12.815  -4.586  15.107  0.00  0.00    +0.000 HD
ATOM     59  H   UNL     1     -11.411  -5.611  14.758  0.00  0.00    +0.000 HD
ENDBRANCH  55  56
BRANCH  55  60
ATOM     60  C   UNL     1     -12.204  -3.508  17.199  0.00  0.00    +0.000 C 
ATOM     61  H   UNL     1     -13.147  -3.430  16.646  0.00  0.00    +0.000 HD
ATOM     62  H   UNL     1     -11.742  -2.514  17.241  0.00  0.00    +0.000 HD
ATOM     63  H   UNL     1     -12.462  -3.805  18.221  0.00  0.00    +0.000 HD
ENDBRANCH  55  60
ENDBRANCH  52  55
ENDBRANCH   1  52
TORSDOF 11
ENDMDL
MODEL 3
REMARK VINA RESULT:    -9.886      1.361      1.652
REMARK INTER + INTRA:         -14.628
REMARK INTER:                 -14.133
REMARK INTRA:                  -0.495
REMARK UNBOUND:                 0.459
REMARK  Name = 
REMARK  11 active torsions:
REMARK  status: ('A' for Active; 'I' for Inactive)
REMARK    1  A    between atoms: C_1  and  O_2
REMARK    2  A    between atoms: O_2  and  C_3
REMARK    3  A    between atoms: C_3  and  C_5
REMARK    4  A    between atoms: C_9  and  N_10
REMARK    5  A    between atoms: C_11  and  C_13
REMARK    6  A    between atoms: C_13  and  C_14
REMARK    7  A    between atoms: C_14  and  N_15
REMARK    8  A    between atoms: N_15  and  C_16
REMARK    9  A    between atoms: N_15  and  C_17
REMARK   10  A    between atoms: N_20  and  C_21
REMARK   11  A    between atoms: C_27  and  C_28
REMARK                            x       y       z     vdW  Elec       q    Type
REMARK                         _______ _______ _______ _____ _____    ______ ____
ROOT
ATOM      1  C   UNL     1      -9.893  -5.845  18.349  0.00  0.00    +0.000 C 
ATOM      2  C   UNL     1     -10.570  -7.210  18.747  0.00  0.00    +0.000 C 
ATOM      3  C   UNL     1      -9.629  -8.424  18.748  0.00  0.00    +0.000 C 
ATOM      4  N   UNL     1      -8.902  -8.446  17.493  0.00  0.00    +0.000 N 
ATOM      5  C   UNL     1      -8.062  -7.299  17.240  0.00  0.00    +0.000 C 
ATOM      6  C   UNL     1      -8.983  -6.084  17.124  0.00  0.00    +0.000 C 
ATOM      7  H   UNL     1     -11.376  -7.420  18.032  0.00  0.00    +0.000 HD
ATOM      8  H   UNL     1     -11.047  -7.133  19.733  0.00  0.00    +0.000 HD
ATOM      9  H   UNL     1     -10.193  -9.342  18.937  0.00  0.00    +0.000 HD
ATOM     10  H   UNL     1      -8.917  -8.385  19.578  0.00  0.00    +0.000 HD
ATOM     11  H   UNL     1      -7.480  -7.380  16.314  0.00  0.00    +0.000 HD
ATOM     12  H   UNL     1      -7.338  -7.166  18.053  0.00  0.00    +0.000 HD
ATOM     13  H   UNL     1      -9.606  -6.200  16.230  0.00  0.00    +0.000 HD
ATOM     14  H   UNL     1      -8.308  -5.237  16.968  0.00  0.00    +0.000 HD
ENDROOT
BRANCH   4  15
ATOM     15  C   UNL     1      -8.954  -9.474  16.580  0.00  0.00    +0.000 A 
ATOM     16  N   UNL     1      -9.041  -9.180  15.253  0.00  0.00    +0.000 NA
ATOM     17  C   UNL     1      -9.041 -10.183  14.351  0.00  0.00    +0.000 A 
ATOM     18  N   UNL     1      -8.988 -11.505  14.576  0.00  0.00    +0.000 NA
ATOM     19  C   UNL     1      -8.938 -11.764  15.893  0.00  0.00    +0.000 A 
ATOM     20  N   UNL     1      -8.864 -13.017  16.436  0.00  0.00    +0.000 N 
ATOM     21  C   UNL     1      -8.769 -12.926  17.804  0.00  0.00    +0.000 A 
ATOM     22  C   UNL     1      -8.930 -11.597  18.127  0.00  0.00    +0.000 A 
ATOM     23  C   UNL     1      -8.934 -10.841  16.927  0.00  0.00    +0.000 A 
ATOM     24  H   UNL     1      -9.079  -9.877  13.310  0.00  0.00    +0.000 HD
ATOM     25  H   UNL     1      -8.837 -13.865  15.885  0.00  0.00    +0.000 HD
ATOM     26  H   UNL     1      -8.962 -11.214  19.139  0.00  0.00    +0.000 HD
BRANCH  21  27
ATOM     27  C   UNL     1      -8.505 -14.075  18.694  0.00  0.00    +0.000 C 
ATOM     28  H   UNL     1      -7.882 -13.805  19.549  0.00  0.00    +0.000 HD
ATOM     29  H   UNL     1      -8.019 -14.886  18.141  0.00  0.00    +0.000 HD
ATOM     30  H   UNL     1      -9.461 -14.456  19.073  0.00  0.00    +0.000 HD
ENDBRANCH  21  27
ENDBRANCH   4  15
BRANCH   1  32
ATOM     31  N   UNL     1      -8.931  -4.001  19.730  0.00  0.00    +0.000 N 
ATOM     32  C   UNL     1      -9.034  -5.371  19.542  0.00  0.00    +0.000 C 
ATOM     33  O   UNL     1      -8.409  -6.196  20.206  0.00  0.00    +0.000 OA
ATOM     34  H   UNL     1      -9.485  -3.413  19.106  0.00  0.00    +0.000 HD
BRANCH  31  39
ATOM     35  C   UNL     1      -8.198  -1.767  22.621  0.00  0.00    +0.000 A 
ATOM     36  C   UNL     1      -6.854  -2.070  22.872  0.00  0.00    +0.000 A 
ATOM     37  C   UNL     1      -6.188  -2.991  22.081  0.00  0.00    +0.000 A 
ATOM     38  C   UNL     1      -6.865  -3.623  21.039  0.00  0.00    +0.000 A 
ATOM     39  C   UNL     1      -8.212  -3.350  20.765  0.00  0.00    +0.000 A 
ATOM     40  C   UNL     1      -8.876  -2.411  21.566  0.00  0.00    +0.000 A 
ATOM     41  H   UNL     1      -6.308  -1.590  23.685  0.00  0.00    +0.000 HD
ATOM     42  H   UNL     1      -5.146  -3.235  22.274  0.00  0.00    +0.000 HD
ATOM     43  H   UNL     1      -6.299  -4.355  20.471  0.00  0.00    +0.000 HD
ATOM     44  H   UNL     1      -9.917  -2.158  21.372  0.00  0.00    +0.000 HD
BRANCH  35  45
ATOM     45  C   UNL     1      -8.933  -0.783  23.468  0.00  0.00    +0.000 C 
ATOM     46  O   UNL     1      -9.510   0.197  23.029  0.00  0.00    +0.000 OA
BRANCH  45  47
ATOM     47  O   UNL     1      -8.866  -1.154  24.771  0.00  0.00    +0.000 OA
BRANCH  47  48
ATOM     48  C   UNL     1      -9.809  -2.147  25.170  0.00  0.00    +0.000 C 
ATOM     49  H   UNL     1      -9.253  -3.048  25.453  0.00  0.00    +0.000 HD
ATOM     50  H   UNL     1     -10.464  -2.398  24.330  0.00  0.00    +0.000 HD
ATOM     51  H   UNL     1     -10.390  -1.818  26.035  0.00  0.00    +0.000 HD
ENDBRANCH  47  48
ENDBRANCH  45  47
ENDBRANCH  35  45
ENDBRANCH  31  39
ENDBRANCH   1  32
BRANCH   1  52
ATOM     52  C   UNL     1     -11.059  -4.835  18.056  0.00  0.00    +0.000 C 
ATOM     53  H   UNL     1     -11.346  -4.418  19.034  0.00  0.00    +0.000 HD
ATOM     54  H   UNL     1     -11.934  -5.399  17.704  0.00  0.00    +0.000 HD
BRANCH  52  55
ATOM     55  N   UNL     1     -10.849  -3.665  17.156  0.00  0.00    +0.000 NA
BRANCH  55  56
ATOM     56  C   UNL     1     -11.479  -3.789  15.837  0.00  0.00    +0.000 C 
ATOM     57  H   UNL     1     -12.556  -3.918  15.926  0.00  0.00    +0.000 HD
ATOM     58  H   UNL     1     -11.152  -4.705  15.331  0.00  0.00    +0.000 HD
ATOM     59  H   UNL     1     -11.253  -2.941  15.181  0.00  0.00    +0.000 HD
ENDBRANCH  55  56
BRANCH  55  60
ATOM     60  C   UNL     1     -11.439  -2.467  17.791  0.00  0.00    +0.000 C 
ATOM     61  H   UNL     1     -12.210  -2.014  17.157  0.00  0.00    +0.000 HD
ATOM     62  H   UNL     1     -10.679  -1.708  18.012  0.00  0.00    +0.000 HD
ATOM     63  H   UNL     1     -11.927  -2.741  18.733  0.00  0.00    +0.000 HD
ENDBRANCH  55  60
ENDBRANCH  52  55
ENDBRANCH   1  52
TORSDOF 11
ENDMDL
MODEL 4
REMARK VINA RESULT:    -9.727      1.427      2.140
REMARK INTER + INTRA:         -14.386
REMARK INTER:                 -13.096
REMARK INTRA:                  -1.290
REMARK UNBOUND:                 0.459
REMARK  Name = 
REMARK  11 active torsions:
REMARK  status: ('A' for Active; 'I' for Inactive)
REMARK    1  A    between atoms: C_1  and  O_2
REMARK    2  A    between atoms: O_2  and  C_3
REMARK    3  A    between atoms: C_3  and  C_5
REMARK    4  A    between atoms: C_9  and  N_10
REMARK    5  A    between atoms: C_11  and  C_13
REMARK    6  A    between atoms: C_13  and  C_14
REMARK    7  A    between atoms: C_14  and  N_15
REMARK    8  A    between atoms: N_15  and  C_16
REMARK    9  A    between atoms: N_15  and  C_17
REMARK   10  A    between atoms: N_20  and  C_21
REMARK   11  A    between atoms: C_27  and  C_28
REMARK                            x       y       z     vdW  Elec       q    Type
REMARK                         _______ _______ _______ _____ _____    ______ ____
ROOT
ATOM      1  C   UNL     1     -10.489  -5.753  16.421  0.00  0.00    +0.000 C 
ATOM      2  C   UNL     1     -11.412  -7.024  16.531  0.00  0.00    +0.000 C 
ATOM      3  C   UNL     1     -10.764  -8.236  17.218  0.00  0.00    +0.000 C 
ATOM      4  N   UNL     1      -9.467  -8.473  16.613  0.00  0.00    +0.000 N 
ATOM      5  C   UNL     1      -8.515  -7.395  16.740  0.00  0.00    +0.000 C 
ATOM      6  C   UNL     1      -9.082  -6.201  15.970  0.00  0.00    +0.000 C 
ATOM      7  H   UNL     1     -11.697  -7.336  15.518  0.00  0.00    +0.000 HD
ATOM      8  H   UNL     1     -12.346  -6.781  17.054  0.00  0.00    +0.000 HD
ATOM      9  H   UNL     1     -11.430  -9.102  17.167  0.00  0.00    +0.000 HD
ATOM     10  H   UNL     1     -10.637  -8.073  18.293  0.00  0.00    +0.000 HD
ATOM     11  H   UNL     1      -7.528  -7.634  16.327  0.00  0.00    +0.000 HD
ATOM     12  H   UNL     1      -8.359  -7.143  17.796  0.00  0.00    +0.000 HD
ATOM     13  H   UNL     1      -9.108  -6.451  14.904  0.00  0.00    +0.000 HD
ATOM     14  H   UNL     1      -8.351  -5.401  16.121  0.00  0.00    +0.000 HD
ENDROOT
BRANCH   4  15
ATOM     15  C   UNL     1      -9.108  -9.634  15.969  0.00  0.00    +0.000 A 
ATOM     16  N   UNL     1      -8.848  -9.600  14.633  0.00  0.00    +0.000 NA
ATOM     17  C   UNL     1      -8.446 -10.725  14.007  0.00  0.00    +0.000 A 
ATOM     18  N   UNL     1      -8.275 -11.951  14.526  0.00  0.00    +0.000 NA
ATOM     19  C   UNL     1      -8.572 -11.961  15.836  0.00  0.00    +0.000 A 
ATOM     20  N   UNL     1      -8.483 -13.060  16.644  0.00  0.00    +0.000 N 
ATOM     21  C   UNL     1      -8.801 -12.714  17.937  0.00  0.00    +0.000 A 
ATOM     22  C   UNL     1      -9.234 -11.408  17.904  0.00  0.00    +0.000 A 
ATOM     23  C   UNL     1      -8.997 -10.888  16.605  0.00  0.00    +0.000 A 
ATOM     24  H   UNL     1      -8.224 -10.620  12.949  0.00  0.00    +0.000 HD
ATOM     25  H   UNL     1      -8.179 -13.969  16.322  0.00  0.00    +0.000 HD
ATOM     26  H   UNL     1      -9.611 -10.867  18.763  0.00  0.00    +0.000 HD
BRANCH  21  27
ATOM     27  C   UNL     1      -8.647 -13.616  19.096  0.00  0.00    +0.000 C 
ATOM     28  H   UNL     1      -7.745 -14.227  19.030  0.00  0.00    +0.000 HD
ATOM     29  H   UNL     1      -9.517 -14.275  19.190  0.00  0.00    +0.000 HD
ATOM     30  H   UNL     1      -8.586 -13.011  20.010  0.00  0.00    +0.000 HD
ENDBRANCH  21  27
ENDBRANCH   4  15
BRANCH   1  32
ATOM     31  N   UNL     1      -9.514  -4.046  17.960  0.00  0.00    +0.000 N 
ATOM     32  C   UNL     1     -10.399  -5.104  17.819  0.00  0.00    +0.000 C 
ATOM     33  O   UNL     1     -11.023  -5.596  18.758  0.00  0.00    +0.000 OA
ATOM     34  H   UNL     1      -9.039  -3.733  17.112  0.00  0.00    +0.000 HD
BRANCH  31  39
ATOM     35  C   UNL     1      -8.169  -3.101  21.304  0.00  0.00    +0.000 A 
ATOM     36  C   UNL     1      -8.737  -1.834  21.484  0.00  0.00    +0.000 A 
ATOM     37  C   UNL     1      -9.573  -1.302  20.517  0.00  0.00    +0.000 A 
ATOM     38  C   UNL     1      -9.840  -2.030  19.359  0.00  0.00    +0.000 A 
ATOM     39  C   UNL     1      -9.283  -3.298  19.143  0.00  0.00    +0.000 A 
ATOM     40  C   UNL     1      -8.443  -3.831  20.129  0.00  0.00    +0.000 A 
ATOM     41  H   UNL     1      -8.537  -1.245  22.380  0.00  0.00    +0.000 HD
ATOM     42  H   UNL     1     -10.012  -0.316  20.647  0.00  0.00    +0.000 HD
ATOM     43  H   UNL     1     -10.481  -1.550  18.625  0.00  0.00    +0.000 HD
ATOM     44  H   UNL     1      -8.007  -4.821  20.006  0.00  0.00    +0.000 HD
BRANCH  35  45
ATOM     45  C   UNL     1      -7.259  -3.686  22.332  0.00  0.00    +0.000 C 
ATOM     46  O   UNL     1      -7.429  -3.575  23.534  0.00  0.00    +0.000 OA
BRANCH  45  47
ATOM     47  O   UNL     1      -6.247  -4.354  21.726  0.00  0.00    +0.000 OA
BRANCH  47  48
ATOM     48  C   UNL     1      -5.063  -3.591  21.500  0.00  0.00    +0.000 C 
ATOM     49  H   UNL     1      -5.246  -2.570  21.855  0.00  0.00    +0.000 HD
ATOM     50  H   UNL     1      -4.847  -3.548  20.429  0.00  0.00    +0.000 HD
ATOM     51  H   UNL     1      -4.215  -3.999  22.056  0.00  0.00    +0.000 HD
ENDBRANCH  47  48
ENDBRANCH  45  47
ENDBRANCH  35  45
ENDBRANCH  31  39
ENDBRANCH   1  32
BRANCH   1  52
ATOM     52  C   UNL     1     -11.180  -4.786  15.394  0.00  0.00    +0.000 C 
ATOM     53  H   UNL     1     -12.175  -4.567  15.812  0.00  0.00    +0.000 HD
ATOM     54  H   UNL     1     -11.364  -5.337  14.461  0.00  0.00    +0.000 HD
BRANCH  52  55
ATOM     55  N   UNL     1     -10.574  -3.465  15.061  0.00  0.00    +0.000 NA
BRANCH  55  56
ATOM     56  C   UNL     1     -10.108  -3.340  13.675  0.00  0.00    +0.000 C 
ATOM     57  H   UNL     1      -9.402  -2.519  13.571  0.00  0.00    +0.000 HD
ATOM     58  H   UNL     1     -10.932  -3.054  13.009  0.00  0.00    +0.000 HD
ATOM     59  H   UNL     1      -9.670  -4.267  13.292  0.00  0.00    +0.000 HD
ENDBRANCH  55  56
BRANCH  55  60
ATOM     60  C   UNL     1     -11.595  -2.413  15.256  0.00  0.00    +0.000 C 
ATOM     61  H   UNL     1     -12.454  -2.787  15.825  0.00  0.00    +0.000 HD
ATOM     62  H   UNL     1     -11.956  -2.015  14.300  0.00  0.00    +0.000 HD
ATOM     63  H   UNL     1     -11.174  -1.582  15.832  0.00  0.00    +0.000 HD
ENDBRANCH  55  60
ENDBRANCH  52  55
ENDBRANCH   1  52
TORSDOF 11
ENDMDL
MODEL 5
REMARK VINA RESULT:    -9.683      2.141      5.158
REMARK INTER + INTRA:         -14.318
REMARK INTER:                 -13.258
REMARK INTRA:                  -1.060
REMARK UNBOUND:                 0.459
REMARK  Name = 
REMARK  11 active torsions:
REMARK  status: ('A' for Active; 'I' for Inactive)
REMARK    1  A    between atoms: C_1  and  O_2
REMARK    2  A    between atoms: O_2  and  C_3
REMARK    3  A    between atoms: C_3  and  C_5
REMARK    4  A    between atoms: C_9  and  N_10
REMARK    5  A    between atoms: C_11  and  C_13
REMARK    6  A    between atoms: C_13  and  C_14
REMARK    7  A    between atoms: C_14  and  N_15
REMARK    8  A    between atoms: N_15  and  C_16
REMARK    9  A    between atoms: N_15  and  C_17
REMARK   10  A    between atoms: N_20  and  C_21
REMARK   11  A    between atoms: C_27  and  C_28
REMARK                            x       y       z     vdW  Elec       q    Type
REMARK                         _______ _______ _______ _____ _____    ______ ____
ROOT
ATOM      1  C   UNL     1      -8.733  -6.581  18.643  0.00  0.00    +0.000 C 
ATOM      2  C   UNL     1      -7.916  -6.625  17.296  0.00  0.00    +0.000 C 
ATOM      3  C   UNL     1      -8.692  -7.169  16.087  0.00  0.00    +0.000 C 
ATOM      4  N   UNL     1      -9.316  -8.423  16.463  0.00  0.00    +0.000 N 
ATOM      5  C   UNL     1     -10.274  -8.342  17.540  0.00  0.00    +0.000 C 
ATOM      6  C   UNL     1      -9.511  -7.907  18.792  0.00  0.00    +0.000 C 
ATOM      7  H   UNL     1      -7.040  -7.269  17.441  0.00  0.00    +0.000 HD
ATOM      8  H   UNL     1      -7.528  -5.628  17.047  0.00  0.00    +0.000 HD
ATOM      9  H   UNL     1      -8.030  -7.258  15.221  0.00  0.00    +0.000 HD
ATOM     10  H   UNL     1      -9.462  -6.468  15.750  0.00  0.00    +0.000 HD
ATOM     11  H   UNL     1     -10.771  -9.296  17.754  0.00  0.00    +0.000 HD
ATOM     12  H   UNL     1     -11.068  -7.625  17.295  0.00  0.00    +0.000 HD
ATOM     13  H   UNL     1      -8.814  -8.704  19.072  0.00  0.00    +0.000 HD
ATOM     14  H   UNL     1     -10.276  -7.825  19.569  0.00  0.00    +0.000 HD
ENDROOT
BRANCH   4  15
ATOM     15  C   UNL     1      -9.065  -9.631  15.856  0.00  0.00    +0.000 A 
ATOM     16  N   UNL     1      -8.931  -9.679  14.502  0.00  0.00    +0.000 NA
ATOM     17  C   UNL     1      -8.634 -10.852  13.906  0.00  0.00    +0.000 A 
ATOM     18  N   UNL     1      -8.463 -12.055  14.476  0.00  0.00    +0.000 NA
ATOM     19  C   UNL     1      -8.634 -11.983  15.806  0.00  0.00    +0.000 A 
ATOM     20  N   UNL     1      -8.512 -13.041  16.663  0.00  0.00    +0.000 N 
ATOM     21  C   UNL     1      -8.693 -12.613  17.958  0.00  0.00    +0.000 A 
ATOM     22  C   UNL     1      -9.076 -11.293  17.891  0.00  0.00    +0.000 A 
ATOM     23  C   UNL     1      -8.943 -10.854  16.549  0.00  0.00    +0.000 A 
ATOM     24  H   UNL     1      -8.509 -10.812  12.828  0.00  0.00    +0.000 HD
ATOM     25  H   UNL     1      -8.275 -13.978  16.366  0.00  0.00    +0.000 HD
ATOM     26  H   UNL     1      -9.349 -10.691  18.749  0.00  0.00    +0.000 HD
BRANCH  21  27
ATOM     27  C   UNL     1      -8.466 -13.458  19.148  0.00  0.00    +0.000 C 
ATOM     28  H   UNL     1      -7.756 -13.010  19.846  0.00  0.00    +0.000 HD
ATOM     29  H   UNL     1      -8.098 -14.447  18.853  0.00  0.00    +0.000 HD
ATOM     30  H   UNL     1      -9.420 -13.599  19.670  0.00  0.00    +0.000 HD
ENDBRANCH  21  27
ENDBRANCH   4  15
BRANCH   1  32
ATOM     31  N   UNL     1      -9.202  -4.159  18.263  0.00  0.00    +0.000 N 
ATOM     32  C   UNL     1      -9.730  -5.406  18.561  0.00  0.00    +0.000 C 
ATOM     33  O   UNL     1     -10.911  -5.590  18.850  0.00  0.00    +0.000 OA
ATOM     34  H   UNL     1      -8.203  -4.126  18.055  0.00  0.00    +0.000 HD
BRANCH  31  39
ATOM     35  C   UNL     1     -11.596  -1.645  16.909  0.00  0.00    +0.000 A 
ATOM     36  C   UNL     1     -11.454  -0.601  17.832  0.00  0.00    +0.000 A 
ATOM     37  C   UNL     1     -10.561  -0.719  18.884  0.00  0.00    +0.000 A 
ATOM     38  C   UNL     1      -9.810  -1.884  19.025  0.00  0.00    +0.000 A 
ATOM     39  C   UNL     1      -9.931  -2.951  18.124  0.00  0.00    +0.000 A 
ATOM     40  C   UNL     1     -10.833  -2.821  17.059  0.00  0.00    +0.000 A 
ATOM     41  H   UNL     1     -12.036   0.317  17.743  0.00  0.00    +0.000 HD
ATOM     42  H   UNL     1     -10.451   0.085  19.608  0.00  0.00    +0.000 HD
ATOM     43  H   UNL     1      -9.147  -1.929  19.883  0.00  0.00    +0.000 HD
ATOM     44  H   UNL     1     -10.941  -3.620  16.327  0.00  0.00    +0.000 HD
BRANCH  35  45
ATOM     45  C   UNL     1     -12.559  -1.538  15.774  0.00  0.00    +0.000 C 
ATOM     46  O   UNL     1     -13.536  -0.810  15.776  0.00  0.00    +0.000 OA
BRANCH  45  47
ATOM     47  O   UNL     1     -12.171  -2.353  14.762  0.00  0.00    +0.000 OA
BRANCH  47  48
ATOM     48  C   UNL     1     -12.147  -1.750  13.470  0.00  0.00    +0.000 C 
ATOM     49  H   UNL     1     -13.093  -1.987  12.968  0.00  0.00    +0.000 HD
ATOM     50  H   UNL     1     -11.330  -2.170  12.877  0.00  0.00    +0.000 HD
ATOM     51  H   UNL     1     -12.061  -0.662  13.540  0.00  0.00    +0.000 HD
ENDBRANCH  47  48
ENDBRANCH  45  47
ENDBRANCH  35  45
ENDBRANCH  31  39
ENDBRANCH   1  32
BRANCH   1  52
ATOM     52  C   UNL     1      -7.687  -6.355  19.793  0.00  0.00    +0.000 C 
ATOM     53  H   UNL     1      -7.016  -7.228  19.763  0.00  0.00    +0.000 HD
ATOM     54  H   UNL     1      -8.208  -6.414  20.759  0.00  0.00    +0.000 HD
BRANCH  52  55
ATOM     55  N   UNL     1      -6.802  -5.156  19.796  0.00  0.00    +0.000 NA
BRANCH  55  56
ATOM     56  C   UNL     1      -6.913  -4.319  20.996  0.00  0.00    +0.000 C 
ATOM     57  H   UNL     1      -6.086  -3.614  21.062  0.00  0.00    +0.000 HD
ATOM     58  H   UNL     1      -6.806  -4.922  21.906  0.00  0.00    +0.000 HD
ATOM     59  H   UNL     1      -7.869  -3.788  21.053  0.00  0.00    +0.000 HD
ENDBRANCH  55  56
BRANCH  55  60
ATOM     60  C   UNL     1      -5.395  -5.605  19.728  0.00  0.00    +0.000 C 
ATOM     61  H   UNL     1      -5.050  -5.994  20.693  0.00  0.00    +0.000 HD
ATOM     62  H   UNL     1      -4.724  -4.795  19.418  0.00  0.00    +0.000 HD
ATOM     63  H   UNL     1      -5.295  -6.423  19.006  0.00  0.00    +0.000 HD
ENDBRANCH  55  60
ENDBRANCH  52  55
ENDBRANCH   1  52
TORSDOF 11
ENDMDL
MODEL 6
REMARK VINA RESULT:    -9.664      2.046      4.076
REMARK INTER + INTRA:         -14.290
REMARK INTER:                 -13.291
REMARK INTRA:                  -0.998
REMARK UNBOUND:                 0.459
REMARK  Name = 
REMARK  11 active torsions:
REMARK  status: ('A' for Active; 'I' for Inactive)
REMARK    1  A    between atoms: C_1  and  O_2
REMARK    2  A    between atoms: O_2  and  C_3
REMARK    3  A    between atoms: C_3  and  C_5
REMARK    4  A    between atoms: C_9  and  N_10
REMARK    5  A    between atoms: C_11  and  C_13
REMARK    6  A    between atoms: C_13  and  C_14
REMARK    7  A    between atoms: C_14  and  N_15
REMARK    8  A    between atoms: N_15  and  C_16
REMARK    9  A    between atoms: N_15  and  C_17
REMARK   10  A    between atoms: N_20  and  C_21
REMARK   11  A    between atoms: C_27  and  C_28
REMARK                            x       y       z     vdW  Elec       q    Type
REMARK                         _______ _______ _______ _____ _____    ______ ____
ROOT
ATOM      1  C   UNL     1      -8.721  -6.593  18.648  0.00  0.00    +0.000 C 
ATOM      2  C   UNL     1      -7.912  -6.628  17.297  0.00  0.00    +0.000 C 
ATOM      3  C   UNL     1      -8.687  -7.183  16.093  0.00  0.00    +0.000 C 
ATOM      4  N   UNL     1      -9.293  -8.444  16.474  0.00  0.00    +0.000 N 
ATOM      5  C   UNL     1     -10.247  -8.374  17.556  0.00  0.00    +0.000 C 
ATOM      6  C   UNL     1      -9.482  -7.927  18.803  0.00  0.00    +0.000 C 
ATOM      7  H   UNL     1      -7.027  -7.261  17.438  0.00  0.00    +0.000 HD
ATOM      8  H   UNL     1      -7.537  -5.627  17.043  0.00  0.00    +0.000 HD
ATOM      9  H   UNL     1      -8.029  -7.266  15.223  0.00  0.00    +0.000 HD
ATOM     10  H   UNL     1      -9.468  -6.492  15.759  0.00  0.00    +0.000 HD
ATOM     11  H   UNL     1     -10.731  -9.333  17.774  0.00  0.00    +0.000 HD
ATOM     12  H   UNL     1     -11.051  -7.667  17.315  0.00  0.00    +0.000 HD
ATOM     13  H   UNL     1      -8.774  -8.715  19.081  0.00  0.00    +0.000 HD
ATOM     14  H   UNL     1     -10.243  -7.854  19.585  0.00  0.00    +0.000 HD
ENDROOT
BRANCH   4  15
ATOM     15  C   UNL     1      -9.031  -9.650  15.867  0.00  0.00    +0.000 A 
ATOM     16  N   UNL     1      -8.862  -9.692  14.517  0.00  0.00    +0.000 NA
ATOM     17  C   UNL     1      -8.553 -10.863  13.923  0.00  0.00    +0.000 A 
ATOM     18  N   UNL     1      -8.402 -12.069  14.490  0.00  0.00    +0.000 NA
ATOM     19  C   UNL     1      -8.607 -12.003  15.816  0.00  0.00    +0.000 A 
ATOM     20  N   UNL     1      -8.511 -13.066  16.670  0.00  0.00    +0.000 N 
ATOM     21  C   UNL     1      -8.724 -12.645  17.962  0.00  0.00    +0.000 A 
ATOM     22  C   UNL     1      -9.101 -11.322  17.893  0.00  0.00    +0.000 A 
ATOM     23  C   UNL     1      -8.931 -10.877  16.556  0.00  0.00    +0.000 A 
ATOM     24  H   UNL     1      -8.401 -10.818  12.848  0.00  0.00    +0.000 HD
ATOM     25  H   UNL     1      -8.270 -14.002  16.375  0.00  0.00    +0.000 HD
ATOM     26  H   UNL     1      -9.393 -10.725  18.746  0.00  0.00    +0.000 HD
BRANCH  21  27
ATOM     27  C   UNL     1      -8.531 -13.497  19.153  0.00  0.00    +0.000 C 
ATOM     28  H   UNL     1      -7.748 -14.244  19.006  0.00  0.00    +0.000 HD
ATOM     29  H   UNL     1      -9.463 -14.007  19.417  0.00  0.00    +0.000 HD
ATOM     30  H   UNL     1      -8.244 -12.862  20.000  0.00  0.00    +0.000 HD
ENDBRANCH  21  27
ENDBRANCH   4  15
BRANCH   1  32
ATOM     31  N   UNL     1      -9.211  -4.160  18.376  0.00  0.00    +0.000 N 
ATOM     32  C   UNL     1      -9.733  -5.429  18.569  0.00  0.00    +0.000 C 
ATOM     33  O   UNL     1     -10.926  -5.648  18.774  0.00  0.00    +0.000 OA
ATOM     34  H   UNL     1      -8.202  -4.100  18.233  0.00  0.00    +0.000 HD
BRANCH  31  39
ATOM     35  C   UNL     1     -11.010  -1.043  19.341  0.00  0.00    +0.000 A 
ATOM     36  C   UNL     1     -11.371  -0.531  18.089  0.00  0.00    +0.000 A 
ATOM     37  C   UNL     1     -11.040  -1.219  16.934  0.00  0.00    +0.000 A 
ATOM     38  C   UNL     1     -10.337  -2.420  17.023  0.00  0.00    +0.000 A 
ATOM     39  C   UNL     1      -9.953  -2.957  18.260  0.00  0.00    +0.000 A 
ATOM     40  C   UNL     1     -10.298  -2.257  19.424  0.00  0.00    +0.000 A 
ATOM     41  H   UNL     1     -11.917   0.408  17.997  0.00  0.00    +0.000 HD
ATOM     42  H   UNL     1     -11.312  -0.825  15.958  0.00  0.00    +0.000 HD
ATOM     43  H   UNL     1     -10.082  -2.899  16.083  0.00  0.00    +0.000 HD
ATOM     44  H   UNL     1     -10.034  -2.652  20.404  0.00  0.00    +0.000 HD
BRANCH  35  45
ATOM     45  C   UNL     1     -11.352  -0.311  20.596  0.00  0.00    +0.000 C 
ATOM     46  O   UNL     1     -12.161   0.599  20.655  0.00  0.00    +0.000 OA
BRANCH  45  47
ATOM     47  O   UNL     1     -10.643  -0.818  21.634  0.00  0.00    +0.000 OA
BRANCH  47  48
ATOM     48  C   UNL     1     -11.424  -1.295  22.729  0.00  0.00    +0.000 C 
ATOM     49  H   UNL     1     -10.902  -2.152  23.169  0.00  0.00    +0.000 HD
ATOM     50  H   UNL     1     -12.399  -1.637  22.370  0.00  0.00    +0.000 HD
ATOM     51  H   UNL     1     -11.536  -0.530  23.501  0.00  0.00    +0.000 HD
ENDBRANCH  47  48
ENDBRANCH  45  47
ENDBRANCH  35  45
ENDBRANCH  31  39
ENDBRANCH   1  32
BRANCH   1  52
ATOM     52  C   UNL     1      -7.672  -6.352  19.791  0.00  0.00    +0.000 C 
ATOM     53  H   UNL     1      -6.986  -7.213  19.754  0.00  0.00    +0.000 HD
ATOM     54  H   UNL     1      -8.185  -6.422  20.761  0.00  0.00    +0.000 HD
BRANCH  52  55
ATOM     55  N   UNL     1      -6.807  -5.137  19.793  0.00  0.00    +0.000 NA
BRANCH  55  56
ATOM     56  C   UNL     1      -6.897  -4.325  21.011  0.00  0.00    +0.000 C 
ATOM     57  H   UNL     1      -7.800  -4.558  21.573  0.00  0.00    +0.000 HD
ATOM     58  H   UNL     1      -7.015  -3.263  20.766  0.00  0.00    +0.000 HD
ATOM     59  H   UNL     1      -6.015  -4.428  21.653  0.00  0.00    +0.000 HD
ENDBRANCH  55  56
BRANCH  55  60
ATOM     60  C   UNL     1      -5.395  -5.561  19.676  0.00  0.00    +0.000 C 
ATOM     61  H   UNL     1      -4.914  -5.633  20.658  0.00  0.00    +0.000 HD
ATOM     62  H   UNL     1      -4.814  -4.871  19.052  0.00  0.00    +0.000 HD
ATOM     63  H   UNL     1      -5.336  -6.557  19.223  0.00  0.00    +0.000 HD
ENDBRANCH  55  60
ENDBRANCH  52  55
ENDBRANCH   1  52
TORSDOF 11
ENDMDL
MODEL 7
REMARK VINA RESULT:    -9.544      3.000      8.388
REMARK INTER + INTRA:         -14.106
REMARK INTER:                 -12.872
REMARK INTRA:                  -1.234
REMARK UNBOUND:                 0.459
REMARK  Name = 
REMARK  11 active torsions:
REMARK  status: ('A' for Active; 'I' for Inactive)
REMARK    1  A    between atoms: C_1  and  O_2
REMARK    2  A    between atoms: O_2  and  C_3
REMARK    3  A    between atoms: C_3  and  C_5
REMARK    4  A    between atoms: C_9  and  N_10
REMARK    5  A    between atoms: C_11  and  C_13
REMARK    6  A    between atoms: C_13  and  C_14
REMARK    7  A    between atoms: C_14  and  N_15
REMARK    8  A    between atoms: N_15  and  C_16
REMARK    9  A    between atoms: N_15  and  C_17
REMARK   10  A    between atoms: N_20  and  C_21
REMARK   11  A    between atoms: C_27  and  C_28
REMARK                            x       y       z     vdW  Elec       q    Type
REMARK                         _______ _______ _______ _____ _____    ______ ____
ROOT
ATOM      1  C   UNL     1      -9.664  -5.435  17.900  0.00  0.00    +0.000 C 
ATOM      2  C   UNL     1     -11.108  -4.812  17.821  0.00  0.00    +0.000 C 
ATOM      3  C   UNL     1     -11.894  -5.160  16.547  0.00  0.00    +0.000 C 
ATOM      4  N   UNL     1     -11.051  -4.897  15.397  0.00  0.00    +0.000 N 
ATOM      5  C   UNL     1      -9.833  -5.668  15.329  0.00  0.00    +0.000 C 
ATOM      6  C   UNL     1      -8.975  -5.263  16.529  0.00  0.00    +0.000 C 
ATOM      7  H   UNL     1     -11.018  -3.719  17.862  0.00  0.00    +0.000 HD
ATOM      8  H   UNL     1     -11.705  -5.105  18.695  0.00  0.00    +0.000 HD
ATOM      9  H   UNL     1     -12.841  -4.613  16.524  0.00  0.00    +0.000 HD
ATOM     10  H   UNL     1     -12.204  -6.210  16.537  0.00  0.00    +0.000 HD
ATOM     11  H   UNL     1      -9.253  -5.489  14.415  0.00  0.00    +0.000 HD
ATOM     12  H   UNL     1     -10.056  -6.742  15.351  0.00  0.00    +0.000 HD
ATOM     13  H   UNL     1      -8.673  -4.218  16.406  0.00  0.00    +0.000 HD
ATOM     14  H   UNL     1      -8.083  -5.892  16.458  0.00  0.00    +0.000 HD
ENDROOT
BRANCH   4  15
ATOM     15  C   UNL     1     -11.354  -4.001  14.398  0.00  0.00    +0.000 A 
ATOM     16  N   UNL     1     -11.080  -4.329  13.105  0.00  0.00    +0.000 NA
ATOM     17  C   UNL     1     -11.421  -3.476  12.118  0.00  0.00    +0.000 A 
ATOM     18  N   UNL     1     -12.004  -2.272  12.223  0.00  0.00    +0.000 NA
ATOM     19  C   UNL     1     -12.230  -1.962  13.510  0.00  0.00    +0.000 A 
ATOM     20  N   UNL     1     -12.824  -0.806  13.937  0.00  0.00    +0.000 N 
ATOM     21  C   UNL     1     -12.957  -0.830  15.305  0.00  0.00    +0.000 A 
ATOM     22  C   UNL     1     -12.305  -1.958  15.749  0.00  0.00    +0.000 A 
ATOM     23  C   UNL     1     -11.932  -2.734  14.621  0.00  0.00    +0.000 A 
ATOM     24  H   UNL     1     -11.203  -3.815  11.109  0.00  0.00    +0.000 HD
ATOM     25  H   UNL     1     -13.150  -0.080  13.313  0.00  0.00    +0.000 HD
ATOM     26  H   UNL     1     -12.185  -2.224  16.791  0.00  0.00    +0.000 HD
BRANCH  21  27
ATOM     27  C   UNL     1     -13.704   0.180  16.082  0.00  0.00    +0.000 C 
ATOM     28  H   UNL     1     -13.488   1.199  15.755  0.00  0.00    +0.000 HD
ATOM     29  H   UNL     1     -13.475   0.093  17.149  0.00  0.00    +0.000 HD
ATOM     30  H   UNL     1     -14.779   0.001  15.955  0.00  0.00    +0.000 HD
ENDBRANCH  21  27
ENDBRANCH   4  15
BRANCH   1  32
ATOM     31  N   UNL     1      -8.807  -7.775  17.747  0.00  0.00    +0.000 N 
ATOM     32  C   UNL     1      -9.808  -6.940  18.218  0.00  0.00    +0.000 C 
ATOM     33  O   UNL     1     -10.826  -7.347  18.776  0.00  0.00    +0.000 OA
ATOM     34  H   UNL     1      -8.017  -7.324  17.285  0.00  0.00    +0.000 HD
BRANCH  31  39
ATOM     35  C   UNL     1      -8.729 -11.418  16.966  0.00  0.00    +0.000 A 
ATOM     36  C   UNL     1      -8.523 -11.970  18.236  0.00  0.00    +0.000 A 
ATOM     37  C   UNL     1      -8.428 -11.148  19.346  0.00  0.00    +0.000 A 
ATOM     38  C   UNL     1      -8.531  -9.766  19.192  0.00  0.00    +0.000 A 
ATOM     39  C   UNL     1      -8.730  -9.179  17.935  0.00  0.00    +0.000 A 
ATOM     40  C   UNL     1      -8.830 -10.020  16.818  0.00  0.00    +0.000 A 
ATOM     41  H   UNL     1      -8.435 -13.048  18.378  0.00  0.00    +0.000 HD
ATOM     42  H   UNL     1      -8.262 -11.569  20.334  0.00  0.00    +0.000 HD
ATOM     43  H   UNL     1      -8.422  -9.172  20.094  0.00  0.00    +0.000 HD
ATOM     44  H   UNL     1      -9.005  -9.602  15.827  0.00  0.00    +0.000 HD
BRANCH  35  45
ATOM     45  C   UNL     1      -8.825 -12.289  15.758  0.00  0.00    +0.000 C 
ATOM     46  O   UNL     1      -9.190 -11.897  14.663  0.00  0.00    +0.000 OA
BRANCH  45  47
ATOM     47  O   UNL     1      -8.439 -13.551  16.068  0.00  0.00    +0.000 OA
BRANCH  47  48
ATOM     48  C   UNL     1      -8.752 -14.541  15.089  0.00  0.00    +0.000 C 
ATOM     49  H   UNL     1      -7.987 -15.324  15.143  0.00  0.00    +0.000 HD
ATOM     50  H   UNL     1      -8.720 -14.099  14.089  0.00  0.00    +0.000 HD
ATOM     51  H   UNL     1      -9.725 -14.999  15.284  0.00  0.00    +0.000 HD
ENDBRANCH  47  48
ENDBRANCH  45  47
ENDBRANCH  35  45
ENDBRANCH  31  39
ENDBRANCH   1  32
BRANCH   1  52
ATOM     52  C   UNL     1      -8.915  -4.684  19.058  0.00  0.00    +0.000 C 
ATOM     53  H   UNL     1      -9.701  -4.330  19.743  0.00  0.00    +0.000 HD
ATOM     54  H   UNL     1      -8.449  -3.777  18.646  0.00  0.00    +0.000 HD
BRANCH  52  55
ATOM     55  N   UNL     1      -7.916  -5.392  19.909  0.00  0.00    +0.000 NA
BRANCH  55  56
ATOM     56  C   UNL     1      -6.582  -5.515  19.311  0.00  0.00    +0.000 C 
ATOM     57  H   UNL     1      -6.091  -6.432  19.632  0.00  0.00    +0.000 HD
ATOM     58  H   UNL     1      -5.915  -4.726  19.676  0.00  0.00    +0.000 HD
ATOM     59  H   UNL     1      -6.604  -5.461  18.217  0.00  0.00    +0.000 HD
ENDBRANCH  55  56
BRANCH  55  60
ATOM     60  C   UNL     1      -7.743  -4.633  21.166  0.00  0.00    +0.000 C 
ATOM     61  H   UNL     1      -7.296  -5.254  21.952  0.00  0.00    +0.000 HD
ATOM     62  H   UNL     1      -8.696  -4.235  21.536  0.00  0.00    +0.000 HD
ATOM     63  H   UNL     1      -7.062  -3.790  21.007  0.00  0.00    +0.000 HD
ENDBRANCH  55  60
ENDBRANCH  52  55
ENDBRANCH   1  52
TORSDOF 11
ENDMDL
MODEL 8
REMARK VINA RESULT:    -9.457      3.734      6.764
REMARK INTER + INTRA:         -13.974
REMARK INTER:                 -12.759
REMARK INTRA:                  -1.215
REMARK UNBOUND:                 0.459
REMARK  Name = 
REMARK  11 active torsions:
REMARK  status: ('A' for Active; 'I' for Inactive)
REMARK    1  A    between atoms: C_1  and  O_2
REMARK    2  A    between atoms: O_2  and  C_3
REMARK    3  A    between atoms: C_3  and  C_5
REMARK    4  A    between atoms: C_9  and  N_10
REMARK    5  A    between atoms: C_11  and  C_13
REMARK    6  A    between atoms: C_13  and  C_14
REMARK    7  A    between atoms: C_14  and  N_15
REMARK    8  A    between atoms: N_15  and  C_16
REMARK    9  A    between atoms: N_15  and  C_17
REMARK   10  A    between atoms: N_20  and  C_21
REMARK   11  A    between atoms: C_27  and  C_28
REMARK                            x       y       z     vdW  Elec       q    Type
REMARK                         _______ _______ _______ _____ _____    ______ ____
ROOT
ATOM      1  C   UNL     1     -10.181  -5.338  17.089  0.00  0.00    +0.000 C 
ATOM      2  C   UNL     1      -8.836  -5.991  16.593  0.00  0.00    +0.000 C 
ATOM      3  C   UNL     1      -8.963  -7.440  16.099  0.00  0.00    +0.000 C 
ATOM      4  N   UNL     1      -9.683  -8.208  17.096  0.00  0.00    +0.000 N 
ATOM      5  C   UNL     1     -11.031  -7.766  17.368  0.00  0.00    +0.000 C 
ATOM      6  C   UNL     1     -10.933  -6.362  17.967  0.00  0.00    +0.000 C 
ATOM      7  H   UNL     1      -8.121  -5.990  17.426  0.00  0.00    +0.000 HD
ATOM      8  H   UNL     1      -8.381  -5.385  15.798  0.00  0.00    +0.000 HD
ATOM      9  H   UNL     1      -7.976  -7.850  15.867  0.00  0.00    +0.000 HD
ATOM     10  H   UNL     1      -9.496  -7.497  15.144  0.00  0.00    +0.000 HD
ATOM     11  H   UNL     1     -11.565  -8.407  18.079  0.00  0.00    +0.000 HD
ATOM     12  H   UNL     1     -11.626  -7.759  16.447  0.00  0.00    +0.000 HD
ATOM     13  H   UNL     1     -10.439  -6.431  18.942  0.00  0.00    +0.000 HD
ATOM     14  H   UNL     1     -11.970  -6.054  18.124  0.00  0.00    +0.000 HD
ENDROOT
BRANCH   4  15
ATOM     15  C   UNL     1      -9.173  -9.303  17.754  0.00  0.00    +0.000 A 
ATOM     16  N   UNL     1      -8.893  -9.210  19.083  0.00  0.00    +0.000 NA
ATOM     17  C   UNL     1      -8.442 -10.296  19.743  0.00  0.00    +0.000 A 
ATOM     18  N   UNL     1      -8.190 -11.521  19.256  0.00  0.00    +0.000 NA
ATOM     19  C   UNL     1      -8.443 -11.573  17.939  0.00  0.00    +0.000 A 
ATOM     20  N   UNL     1      -8.296 -12.689  17.163  0.00  0.00    +0.000 N 
ATOM     21  C   UNL     1      -8.694 -12.416  15.875  0.00  0.00    +0.000 A 
ATOM     22  C   UNL     1      -8.959 -11.067  15.818  0.00  0.00    +0.000 A 
ATOM     23  C   UNL     1      -8.905 -10.542  17.135  0.00  0.00    +0.000 A 
ATOM     24  H   UNL     1      -8.269 -10.160  20.807  0.00  0.00    +0.000 HD
ATOM     25  H   UNL     1      -7.984 -13.582  17.520  0.00  0.00    +0.000 HD
ATOM     26  H   UNL     1      -9.241 -10.537  14.917  0.00  0.00    +0.000 HD
BRANCH  21  27
ATOM     27  C   UNL     1      -8.825 -13.437  14.816  0.00  0.00    +0.000 C 
ATOM     28  H   UNL     1      -7.861 -13.716  14.386  0.00  0.00    +0.000 HD
ATOM     29  H   UNL     1      -9.480 -13.080  14.015  0.00  0.00    +0.000 HD
ATOM     30  H   UNL     1      -9.282 -14.337  15.245  0.00  0.00    +0.000 HD
ENDBRANCH  21  27
ENDBRANCH   4  15
BRANCH   1  32
ATOM     31  N   UNL     1     -10.608  -3.937  15.068  0.00  0.00    +0.000 N 
ATOM     32  C   UNL     1     -11.035  -5.001  15.848  0.00  0.00    +0.000 C 
ATOM     33  O   UNL     1     -12.088  -5.606  15.652  0.00  0.00    +0.000 OA
ATOM     34  H   UNL     1      -9.725  -3.500  15.337  0.00  0.00    +0.000 HD
BRANCH  31  39
ATOM     35  C   UNL     1     -12.619  -1.793  12.777  0.00  0.00    +0.000 A 
ATOM     36  C   UNL     1     -12.432  -2.445  11.552  0.00  0.00    +0.000 A 
ATOM     37  C   UNL     1     -11.663  -3.594  11.484  0.00  0.00    +0.000 A 
ATOM     38  C   UNL     1     -11.069  -4.096  12.641  0.00  0.00    +0.000 A 
ATOM     39  C   UNL     1     -11.228  -3.465  13.883  0.00  0.00    +0.000 A 
ATOM     40  C   UNL     1     -12.013  -2.305  13.942  0.00  0.00    +0.000 A 
ATOM     41  H   UNL     1     -12.885  -2.067  10.634  0.00  0.00    +0.000 HD
ATOM     42  H   UNL     1     -11.509  -4.102  10.535  0.00  0.00    +0.000 HD
ATOM     43  H   UNL     1     -10.456  -4.984  12.521  0.00  0.00    +0.000 HD
ATOM     44  H   UNL     1     -12.176  -1.798  14.892  0.00  0.00    +0.000 HD
BRANCH  35  45
ATOM     45  C   UNL     1     -13.438  -0.549  12.866  0.00  0.00    +0.000 C 
ATOM     46  O   UNL     1     -13.215   0.358  13.649  0.00  0.00    +0.000 OA
BRANCH  45  47
ATOM     47  O   UNL     1     -14.435  -0.586  11.949  0.00  0.00    +0.000 OA
BRANCH  47  48
ATOM     48  C   UNL     1     -14.959   0.685  11.567  0.00  0.00    +0.000 C 
ATOM     49  H   UNL     1     -14.949   0.740  10.473  0.00  0.00    +0.000 HD
ATOM     50  H   UNL     1     -14.321   1.483  11.957  0.00  0.00    +0.000 HD
ATOM     51  H   UNL     1     -15.991   0.807  11.906  0.00  0.00    +0.000 HD
ENDBRANCH  47  48
ENDBRANCH  45  47
ENDBRANCH  35  45
ENDBRANCH  31  39
ENDBRANCH   1  32
BRANCH   1  52
ATOM     52  C   UNL     1      -9.785  -4.037  17.873  0.00  0.00    +0.000 C 
ATOM     53  H   UNL     1      -8.843  -3.689  17.419  0.00  0.00    +0.000 HD
ATOM     54  H   UNL     1      -9.533  -4.311  18.907  0.00  0.00    +0.000 HD
BRANCH  52  55
ATOM     55  N   UNL     1     -10.691  -2.853  17.896  0.00  0.00    +0.000 NA
BRANCH  55  56
ATOM     56  C   UNL     1     -11.504  -2.731  19.112  0.00  0.00    +0.000 C 
ATOM     57  H   UNL     1     -12.358  -2.075  18.949  0.00  0.00    +0.000 HD
ATOM     58  H   UNL     1     -10.944  -2.229  19.909  0.00  0.00    +0.000 HD
ATOM     59  H   UNL     1     -11.840  -3.701  19.493  0.00  0.00    +0.000 HD
ENDBRANCH  55  56
BRANCH  55  60
ATOM     60  C   UNL     1      -9.870  -1.626  17.818  0.00  0.00    +0.000 C 
ATOM     61  H   UNL     1     -10.316  -0.806  18.391  0.00  0.00    +0.000 HD
ATOM     62  H   UNL     1      -9.734  -1.293  16.781  0.00  0.00    +0.000 HD
ATOM     63  H   UNL     1      -8.879  -1.807  18.248  0.00  0.00    +0.000 HD
ENDBRANCH  55  60
ENDBRANCH  52  55
ENDBRANCH   1  52
TORSDOF 11
ENDMDL
MODEL 9
REMARK VINA RESULT:    -9.445      3.537      6.640
REMARK INTER + INTRA:         -13.955
REMARK INTER:                 -13.170
REMARK INTRA:                  -0.785
REMARK UNBOUND:                 0.459
REMARK  Name = 
REMARK  11 active torsions:
REMARK  status: ('A' for Active; 'I' for Inactive)
REMARK    1  A    between atoms: C_1  and  O_2
REMARK    2  A    between atoms: O_2  and  C_3
REMARK    3  A    between atoms: C_3  and  C_5
REMARK    4  A    between atoms: C_9  and  N_10
REMARK    5  A    between atoms: C_11  and  C_13
REMARK    6  A    between atoms: C_13  and  C_14
REMARK    7  A    between atoms: C_14  and  N_15
REMARK    8  A    between atoms: N_15  and  C_16
REMARK    9  A    between atoms: N_15  and  C_17
REMARK   10  A    between atoms: N_20  and  C_21
REMARK   11  A    between atoms: C_27  and  C_28
REMARK                            x       y       z     vdW  Elec       q    Type
REMARK                         _______ _______ _______ _____ _____    ______ ____
ROOT
ATOM      1  C   UNL     1     -10.661  -5.242  17.289  0.00  0.00    +0.000 C 
ATOM      2  C   UNL     1      -9.124  -5.513  17.507  0.00  0.00    +0.000 C 
ATOM      3  C   UNL     1      -8.592  -6.792  16.842  0.00  0.00    +0.000 C 
ATOM      4  N   UNL     1      -9.464  -7.895  17.198  0.00  0.00    +0.000 N 
ATOM      5  C   UNL     1     -10.835  -7.769  16.765  0.00  0.00    +0.000 C 
ATOM      6  C   UNL     1     -11.430  -6.565  17.496  0.00  0.00    +0.000 C 
ATOM      7  H   UNL     1      -8.936  -5.601  18.585  0.00  0.00    +0.000 HD
ATOM      8  H   UNL     1      -8.527  -4.660  17.158  0.00  0.00    +0.000 HD
ATOM      9  H   UNL     1      -7.548  -6.958  17.121  0.00  0.00    +0.000 HD
ATOM     10  H   UNL     1      -8.555  -6.697  15.752  0.00  0.00    +0.000 HD
ATOM     11  H   UNL     1     -11.448  -8.649  16.996  0.00  0.00    +0.000 HD
ATOM     12  H   UNL     1     -10.884  -7.632  15.678  0.00  0.00    +0.000 HD
ATOM     13  H   UNL     1     -11.475  -6.791  18.567  0.00  0.00    +0.000 HD
ATOM     14  H   UNL     1     -12.452  -6.485  17.115  0.00  0.00    +0.000 HD
ENDROOT
BRANCH   4  15
ATOM     15  C   UNL     1      -9.059  -9.018  17.881  0.00  0.00    +0.000 A 
ATOM     16  N   UNL     1      -8.845  -8.939  19.224  0.00  0.00    +0.000 NA
ATOM     17  C   UNL     1      -8.498 -10.049  19.906  0.00  0.00    +0.000 A 
ATOM     18  N   UNL     1      -8.297 -11.289  19.433  0.00  0.00    +0.000 NA
ATOM     19  C   UNL     1      -8.481 -11.328  18.104  0.00  0.00    +0.000 A 
ATOM     20  N   UNL     1      -8.362 -12.454  17.336  0.00  0.00    +0.000 N 
ATOM     21  C   UNL     1      -8.672 -12.160  16.029  0.00  0.00    +0.000 A 
ATOM     22  C   UNL     1      -8.850 -10.797  15.959  0.00  0.00    +0.000 A 
ATOM     23  C   UNL     1      -8.834 -10.273  17.277  0.00  0.00    +0.000 A 
ATOM     24  H   UNL     1      -8.375  -9.921  20.978  0.00  0.00    +0.000 HD
ATOM     25  H   UNL     1      -8.125 -13.363  17.709  0.00  0.00    +0.000 HD
ATOM     26  H   UNL     1      -9.049 -10.253  15.044  0.00  0.00    +0.000 HD
BRANCH  21  27
ATOM     27  C   UNL     1      -8.808 -13.174  14.964  0.00  0.00    +0.000 C 
ATOM     28  H   UNL     1      -8.002 -13.116  14.231  0.00  0.00    +0.000 HD
ATOM     29  H   UNL     1      -9.767 -13.062  14.446  0.00  0.00    +0.000 HD
ATOM     30  H   UNL     1      -8.788 -14.171  15.419  0.00  0.00    +0.000 HD
ENDBRANCH  21  27
ENDBRANCH   4  15
BRANCH   1  32
ATOM     31  N   UNL     1      -9.961  -3.807  15.370  0.00  0.00    +0.000 N 
ATOM     32  C   UNL     1     -10.860  -4.753  15.839  0.00  0.00    +0.000 C 
ATOM     33  O   UNL     1     -11.839  -5.134  15.199  0.00  0.00    +0.000 OA
ATOM     34  H   UNL     1      -9.196  -3.556  15.998  0.00  0.00    +0.000 HD
BRANCH  31  39
ATOM     35  C   UNL     1     -11.059  -2.896  11.928  0.00  0.00    +0.000 A 
ATOM     36  C   UNL     1     -10.007  -2.071  11.510  0.00  0.00    +0.000 A 
ATOM     37  C   UNL     1      -8.933  -1.832  12.351  0.00  0.00    +0.000 A 
ATOM     38  C   UNL     1      -8.908  -2.410  13.620  0.00  0.00    +0.000 A 
ATOM     39  C   UNL     1      -9.947  -3.233  14.073  0.00  0.00    +0.000 A 
ATOM     40  C   UNL     1     -11.027  -3.474  13.213  0.00  0.00    +0.000 A 
ATOM     41  H   UNL     1     -10.009  -1.606  10.523  0.00  0.00    +0.000 HD
ATOM     42  H   UNL     1      -8.116  -1.188  12.035  0.00  0.00    +0.000 HD
ATOM     43  H   UNL     1      -8.054  -2.164  14.243  0.00  0.00    +0.000 HD
ATOM     44  H   UNL     1     -11.844  -4.125  13.522  0.00  0.00    +0.000 HD
BRANCH  35  45
ATOM     45  C   UNL     1     -12.227  -3.158  11.038  0.00  0.00    +0.000 C 
ATOM     46  O   UNL     1     -12.141  -3.657   9.929  0.00  0.00    +0.000 OA
BRANCH  45  47
ATOM     47  O   UNL     1     -13.372  -2.771  11.653  0.00  0.00    +0.000 OA
BRANCH  47  48
ATOM     48  C   UNL     1     -13.609  -1.364  11.670  0.00  0.00    +0.000 C 
ATOM     49  H   UNL     1     -12.766  -0.886  12.183  0.00  0.00    +0.000 HD
ATOM     50  H   UNL     1     -14.521  -1.147  12.234  0.00  0.00    +0.000 HD
ATOM     51  H   UNL     1     -13.667  -0.959  10.657  0.00  0.00    +0.000 HD
ENDBRANCH  47  48
ENDBRANCH  45  47
ENDBRANCH  35  45
ENDBRANCH  31  39
ENDBRANCH   1  32
BRANCH   1  52
ATOM     52  C   UNL     1     -11.070  -4.131  18.321  0.00  0.00    +0.000 C 
ATOM     53  H   UNL     1     -10.815  -4.535  19.313  0.00  0.00    +0.000 HD
ATOM     54  H   UNL     1     -12.164  -4.028  18.313  0.00  0.00    +0.000 HD
BRANCH  52  55
ATOM     55  N   UNL     1     -10.460  -2.771  18.262  0.00  0.00    +0.000 NA
BRANCH  55  56
ATOM     56  C   UNL     1     -11.404  -1.692  17.951  0.00  0.00    +0.000 C 
ATOM     57  H   UNL     1     -12.290  -2.077  17.452  0.00  0.00    +0.000 HD
ATOM     58  H   UNL     1     -10.978  -0.998  17.217  0.00  0.00    +0.000 HD
ATOM     59  H   UNL     1     -11.689  -1.114  18.837  0.00  0.00    +0.000 HD
ENDBRANCH  55  56
BRANCH  55  60
ATOM     60  C   UNL     1      -9.882  -2.454  19.586  0.00  0.00    +0.000 C 
ATOM     61  H   UNL     1     -10.162  -1.447  19.916  0.00  0.00    +0.000 HD
ATOM     62  H   UNL     1      -8.788  -2.527  19.580  0.00  0.00    +0.000 HD
ATOM     63  H   UNL     1     -10.264  -3.149  20.341  0.00  0.00    +0.000 HD
ENDBRANCH  55  60
ENDBRANCH  52  55
ENDBRANCH   1  52
TORSDOF 11
ENDMDL
