REMARK  Name = 
REMARK  11 active torsions:
REMARK  status: ('A' for Active; 'I' for Inactive)
REMARK    1  A    between atoms: C_1  and  O_2
REMARK    2  A    between atoms: O_2  and  C_3
REMARK    3  A    between atoms: C_3  and  C_5
REMARK    4  A    between atoms: C_9  and  N_10
REMARK    5  A    between atoms: C_11  and  C_13
REMARK    6  A    between atoms: C_13  and  C_14
REMARK    7  A    between atoms: C_14  and  N_15
REMARK    8  A    between atoms: N_15  and  C_16
REMARK    9  A    between atoms: N_15  and  C_17
REMARK   10  A    between atoms: N_20  and  C_21
REMARK   11  A    between atoms: C_28  and  C_29
REMARK                            x       y       z     vdW  Elec       q    Type
REMARK                         _______ _______ _______ _____ _____    ______ ____
ROOT
ATOM      1  C   UNL     1      -0.219   0.731  -0.673  0.00  0.00    +0.000 C 
ATOM      2  C   UNL     1      -0.944   1.607  -1.766  0.00  0.00    +0.000 C 
ATOM      3  C   UNL     1      -2.225   1.005  -2.361  0.00  0.00    +0.000 C 
ATOM      4  N   UNL     1      -1.890  -0.367  -2.726  0.00  0.00    +0.000 N 
ATOM      5  C   UNL     1      -1.723  -1.195  -1.551  0.00  0.00    +0.000 C 
ATOM      6  C   UNL     1      -0.386  -0.783  -0.954  0.00  0.00    +0.000 C 
ATOM      7  H   UNL     1      -0.256   1.759  -2.609  0.00  0.00    +0.000 HD
ATOM      8  H   UNL     1      -1.166   2.608  -1.373  0.00  0.00    +0.000 HD
ATOM      9  H   UNL     1      -2.527   1.613  -3.221  0.00  0.00    +0.000 HD
ATOM     10  H   UNL     1      -3.054   1.034  -1.641  0.00  0.00    +0.000 HD
ATOM     11  H   UNL     1      -1.743  -2.266  -1.774  0.00  0.00    +0.000 HD
ATOM     12  H   UNL     1      -2.532  -1.032  -0.829  0.00  0.00    +0.000 HD
ATOM     13  H   UNL     1       0.401  -1.058  -1.654  0.00  0.00    +0.000 HD
ATOM     14  H   UNL     1      -0.246  -1.372  -0.036  0.00  0.00    +0.000 HD
ENDROOT
BRANCH   4  15
ATOM     15  C   UNL     1      -2.394  -0.913  -3.894  0.00  0.00    +0.000 A 
ATOM     16  N   UNL     1      -3.497  -0.341  -4.451  0.00  0.00    +0.000 NA
ATOM     17  C   UNL     1      -3.951  -0.779  -5.639  0.00  0.00    +0.000 A 
ATOM     18  N   UNL     1      -3.435  -1.737  -6.416  0.00  0.00    +0.000 NA
ATOM     19  C   UNL     1      -2.342  -2.272  -5.859  0.00  0.00    +0.000 A 
ATOM     20  N   UNL     1      -1.600  -3.236  -6.478  0.00  0.00    +0.000 N 
ATOM     21  C   UNL     1      -0.542  -3.580  -5.691  0.00  0.00    +0.000 A 
ATOM     22  C   UNL     1      -0.597  -2.824  -4.532  0.00  0.00    +0.000 A 
ATOM     23  C   UNL     1      -1.761  -1.962  -4.632  0.00  0.00    +0.000 A 
ATOM     24  H   UNL     1      -4.842  -0.289  -6.020  0.00  0.00    +0.000 HD
ATOM     25  H   UNL     1      -1.803  -3.597  -7.398  0.00  0.00    +0.000 HD
ATOM     26  H   UNL     1       0.171  -4.328  -6.014  0.00  0.00    +0.000 HD
BRANCH  22  27
ATOM     27  C   UNL     1       0.426  -2.936  -3.465  0.00  0.00    +0.000 C 
ATOM     28  H   UNL     1       1.119  -3.761  -3.667  0.00  0.00    +0.000 HD
ATOM     29  H   UNL     1      -0.022  -3.163  -2.497  0.00  0.00    +0.000 HD
ATOM     30  H   UNL     1       1.022  -2.022  -3.411  0.00  0.00    +0.000 HD
ENDBRANCH  22  27
ENDBRANCH   4  15
BRANCH   1  32
ATOM     31  N   UNL     1      -0.004   0.813   1.778  0.00  0.00    +0.000 N 
ATOM     32  C   UNL     1      -0.850   1.039   0.706  0.00  0.00    +0.000 C 
ATOM     33  O   UNL     1      -2.028   1.378   0.791  0.00  0.00    +0.000 OA
ATOM     34  H   UNL     1       0.962   0.583   1.533  0.00  0.00    +0.000 HD
BRANCH  31  39
ATOM     35  C   UNL     1       0.717   1.309   5.378  0.00  0.00    +0.000 A 
ATOM     36  C   UNL     1      -0.537   1.686   5.869  0.00  0.00    +0.000 A 
ATOM     37  C   UNL     1      -1.631   1.744   5.012  0.00  0.00    +0.000 A 
ATOM     38  C   UNL     1      -1.479   1.443   3.656  0.00  0.00    +0.000 A 
ATOM     39  C   UNL     1      -0.235   1.077   3.144  0.00  0.00    +0.000 A 
ATOM     40  C   UNL     1       0.861   0.994   4.017  0.00  0.00    +0.000 A 
ATOM     41  H   UNL     1      -0.681   1.943   6.917  0.00  0.00    +0.000 HD
ATOM     42  H   UNL     1      -2.608   2.035   5.392  0.00  0.00    +0.000 HD
ATOM     43  H   UNL     1      -2.358   1.507   3.023  0.00  0.00    +0.000 HD
ATOM     44  H   UNL     1       1.840   0.711   3.638  0.00  0.00    +0.000 HD
BRANCH  35  45
ATOM     45  C   UNL     1       1.919   1.259   6.258  0.00  0.00    +0.000 C 
ATOM     46  O   UNL     1       3.025   0.908   5.881  0.00  0.00    +0.000 OA
BRANCH  45  47
ATOM     47  O   UNL     1       1.599   1.678   7.509  0.00  0.00    +0.000 OA
BRANCH  47  48
ATOM     48  C   UNL     1       2.687   1.705   8.433  0.00  0.00    +0.000 C 
ATOM     49  H   UNL     1       2.283   1.960   9.418  0.00  0.00    +0.000 HD
ATOM     50  H   UNL     1       3.408   2.476   8.146  0.00  0.00    +0.000 HD
ATOM     51  H   UNL     1       3.168   0.725   8.501  0.00  0.00    +0.000 HD
ENDBRANCH  47  48
ENDBRANCH  45  47
ENDBRANCH  35  45
ENDBRANCH  31  39
ENDBRANCH   1  32
BRANCH   1  52
ATOM     52  C   UNL     1       1.303   1.166  -0.704  0.00  0.00    +0.000 C 
ATOM     53  H   UNL     1       1.292   2.249  -0.505  0.00  0.00    +0.000 HD
ATOM     54  H   UNL     1       1.700   1.048  -1.722  0.00  0.00    +0.000 HD
BRANCH  52  55
ATOM     55  N   UNL     1       2.263   0.575   0.272  0.00  0.00    +0.000 NA
BRANCH  55  56
ATOM     56  C   UNL     1       2.621  -0.832   0.024  0.00  0.00    +0.000 C 
ATOM     57  H   UNL     1       1.769  -1.501   0.030  0.00  0.00    +0.000 HD
ATOM     58  H   UNL     1       3.244  -1.194   0.849  0.00  0.00    +0.000 HD
ATOM     59  H   UNL     1       3.168  -0.973  -0.914  0.00  0.00    +0.000 HD
ENDBRANCH  55  56
BRANCH  55  60
ATOM     60  C   UNL     1       3.528   1.336   0.226  0.00  0.00    +0.000 C 
ATOM     61  H   UNL     1       3.363   2.399   0.418  0.00  0.00    +0.000 HD
ATOM     62  H   UNL     1       4.032   1.234  -0.745  0.00  0.00    +0.000 HD
ATOM     63  H   UNL     1       4.215   0.976   1.002  0.00  0.00    +0.000 HD
ENDBRANCH  55  60
ENDBRANCH  52  55
ENDBRANCH   1  52
TORSDOF 11
