
 OpenBabel01112422443D

 26 28  0  0  0  0  0  0  0  0999 V2000
    1.1639   -1.5627   -2.3249 N   0  0  0  0  0  0  0  0  0  0  0  0
    0.8455   -0.7682   -1.2432 C   0  0  0  0  0  0  0  0  0  0  0  0
   -0.0707   -1.2441   -0.3952 N   0  0  0  0  0  0  0  0  0  0  0  0
   -0.3744   -0.4684    0.6577 C   0  0  0  0  0  0  0  0  0  0  0  0
    0.1937    0.7599    0.8766 C   0  0  0  0  0  0  0  0  0  0  0  0
    1.1071    1.1683   -0.0699 C   0  0  0  0  0  0  0  0  0  0  0  0
    1.7982    2.4509    0.0334 C   0  0  0  0  0  0  0  0  0  0  0  0
    1.7208    3.4590    0.9789 C   0  0  0  0  0  0  0  0  0  0  0  0
    2.6489    4.4769    0.6355 C   0  0  0  0  0  0  0  0  0  0  0  0
    3.0205    5.6962    1.2317 C   0  0  0  0  0  0  0  0  0  0  0  0
    4.0071    6.4786    0.6259 C   0  0  0  0  0  0  0  0  0  0  0  0
    4.6145    6.0634   -0.5579 C   0  0  0  0  0  0  0  0  0  0  0  0
    4.2563    4.8569   -1.1707 C   0  0  0  0  0  0  0  0  0  0  0  0
    3.2715    4.0813   -0.5460 C   0  0  0  0  0  0  0  0  0  0  0  0
    2.7330    2.8631   -0.8940 N   0  0  0  0  0  0  0  0  0  0  0  0
    1.4417    0.4245   -1.1437 N   0  0  0  0  0  0  0  0  0  0  0  0
    0.4029   -2.2024   -2.5058 H   0  0  0  0  0  0  0  0  0  0  0  0
    1.4869   -0.9954   -3.0948 H   0  0  0  0  0  0  0  0  0  0  0  0
   -1.1087   -0.8776    1.3446 H   0  0  0  0  0  0  0  0  0  0  0  0
   -0.0667    1.3531    1.7405 H   0  0  0  0  0  0  0  0  0  0  0  0
    1.0796    3.4660    1.8494 H   0  0  0  0  0  0  0  0  0  0  0  0
    2.5510    6.0241    2.1544 H   0  0  0  0  0  0  0  0  0  0  0  0
    4.3049    7.4176    1.0868 H   0  0  0  0  0  0  0  0  0  0  0  0
    5.3823    6.6864   -1.0119 H   0  0  0  0  0  0  0  0  0  0  0  0
    4.7330    4.5377   -2.0913 H   0  0  0  0  0  0  0  0  0  0  0  0
    2.9910    2.3143   -1.7032 H   0  0  0  0  0  0  0  0  0  0  0  0
  1  2  1  0  0  0  0
  1 17  1  0  0  0  0
  1 18  1  0  0  0  0
  2  3  1  0  0  0  0
  2 16  2  0  0  0  0
  3  4  2  0  0  0  0
  4  5  1  0  0  0  0
  4 19  1  0  0  0  0
  5  6  2  0  0  0  0
  5 20  1  0  0  0  0
  6  7  1  0  0  0  0
  6 16  1  0  0  0  0
  7  8  2  0  0  0  0
  7 15  1  0  0  0  0
  8  9  1  0  0  0  0
  8 21  1  0  0  0  0
  9 10  1  0  0  0  0
  9 14  2  0  0  0  0
 10 11  2  0  0  0  0
 10 22  1  0  0  0  0
 11 12  1  0  0  0  0
 11 23  1  0  0  0  0
 12 13  2  0  0  0  0
 12 24  1  0  0  0  0
 13 14  1  0  0  0  0
 13 25  1  0  0  0  0
 14 15  1  0  0  0  0
 15 26  1  0  0  0  0
M  END
$$$$
