MODEL 1
REMARK VINA RESULT:    -9.753      0.000      0.000
REMARK INTER + INTRA:         -13.138
REMARK INTER:                 -12.319
REMARK INTRA:                  -0.819
REMARK UNBOUND:                -0.819
REMARK  Name = 
REMARK  5 active torsions:
REMARK  status: ('A' for Active; 'I' for Inactive)
REMARK    1  A    between atoms: N_1  and  C_2
REMARK    2  A    between atoms: C_2  and  C_3
REMARK    3  A    between atoms: C_3  and  N_4
REMARK    4  A    between atoms: N_4  and  C_5
REMARK    5  A    between atoms: C_6  and  C_7
REMARK                            x       y       z     vdW  Elec       q    Type
REMARK                         _______ _______ _______ _____ _____    ______ ____
ROOT
ATOM      1  C   UNL     1      -9.117  -7.993  18.071  0.00  0.00    +0.000 C 
ATOM      2  C   UNL     1      -8.898  -9.231  18.539  0.00  0.00    +0.000 C 
ATOM      3  C   UNL     1      -8.728  -9.143  20.007  0.00  0.00    +0.000 C 
ATOM      4  O   UNL     1      -8.596 -10.072  20.783  0.00  0.00    +0.000 OA
ATOM      5  N   UNL     1      -8.761  -7.834  20.331  0.00  0.00    +0.000 N 
ATOM      6  C   UNL     1      -8.991  -7.076  19.241  0.00  0.00    +0.000 C 
ATOM      7  O   UNL     1      -9.099  -5.864  19.197  0.00  0.00    +0.000 OA
ATOM      8  H   UNL     1      -8.667  -7.477  21.266  0.00  0.00    +0.000 HD
ENDROOT
BRANCH   2   9
ATOM      9  C   UNL     1      -8.832 -10.412  17.771  0.00  0.00    +0.000 A 
ATOM     10  C   UNL     1      -8.803 -10.676  16.417  0.00  0.00    +0.000 A 
ATOM     11  C   UNL     1      -8.774 -12.088  16.240  0.00  0.00    +0.000 A 
ATOM     12  C   UNL     1      -8.729 -12.934  15.115  0.00  0.00    +0.000 A 
ATOM     13  C   UNL     1      -8.736 -14.321  15.303  0.00  0.00    +0.000 A 
ATOM     14  C   UNL     1      -8.793 -14.867  16.584  0.00  0.00    +0.000 A 
ATOM     15  C   UNL     1      -8.832 -14.046  17.715  0.00  0.00    +0.000 A 
ATOM     16  C   UNL     1      -8.814 -12.663  17.511  0.00  0.00    +0.000 A 
ATOM     17  N   UNL     1      -8.834 -11.628  18.418  0.00  0.00    +0.000 N 
ATOM     18  H   UNL     1      -8.808  -9.932  15.629  0.00  0.00    +0.000 HD
ATOM     19  H   UNL     1      -8.693 -12.516  14.114  0.00  0.00    +0.000 HD
ATOM     20  H   UNL     1      -8.705 -14.979  14.437  0.00  0.00    +0.000 HD
ATOM     21  H   UNL     1      -8.810 -15.947  16.707  0.00  0.00    +0.000 HD
ATOM     22  H   UNL     1      -8.882 -14.473  18.711  0.00  0.00    +0.000 HD
ATOM     23  H   UNL     1      -8.845 -11.744  19.423  0.00  0.00    +0.000 HD
ENDBRANCH   2   9
BRANCH   1  24
ATOM     24  N   UNL     1      -9.415  -7.508  16.801  0.00  0.00    +0.000 N 
ATOM     25  H   UNL     1      -8.921  -6.610  16.662  0.00  0.00    +0.000 HD
BRANCH  24  26
ATOM     26  C   UNL     1     -10.819  -7.296  16.403  0.00  0.00    +0.000 C 
ATOM     27  H   UNL     1     -10.983  -7.794  15.441  0.00  0.00    +0.000 HD
ATOM     28  H   UNL     1     -11.518  -7.737  17.121  0.00  0.00    +0.000 HD
BRANCH  26  29
ATOM     29  C   UNL     1     -11.113  -5.788  16.264  0.00  0.00    +0.000 C 
ATOM     30  H   UNL     1     -10.199  -5.254  15.985  0.00  0.00    +0.000 HD
ATOM     31  H   UNL     1     -11.850  -5.628  15.470  0.00  0.00    +0.000 HD
BRANCH  29  32
ATOM     32  N   UNL     1     -11.650  -5.231  17.511  0.00  0.00    +0.000 NA
ATOM     33  H   UNL     1     -12.006  -5.992  18.092  0.00  0.00    +0.000 HD
ATOM     34  H   UNL     1     -12.452  -4.636  17.305  0.00  0.00    +0.000 HD
ENDBRANCH  29  32
ENDBRANCH  26  29
ENDBRANCH  24  26
ENDBRANCH   1  24
TORSDOF 5
ENDMDL
MODEL 2
REMARK VINA RESULT:    -9.444      1.424      1.497
REMARK INTER + INTRA:         -12.748
REMARK INTER:                 -12.211
REMARK INTRA:                  -0.537
REMARK UNBOUND:                -0.819
REMARK  Name = 
REMARK  5 active torsions:
REMARK  status: ('A' for Active; 'I' for Inactive)
REMARK    1  A    between atoms: N_1  and  C_2
REMARK    2  A    between atoms: C_2  and  C_3
REMARK    3  A    between atoms: C_3  and  N_4
REMARK    4  A    between atoms: N_4  and  C_5
REMARK    5  A    between atoms: C_6  and  C_7
REMARK                            x       y       z     vdW  Elec       q    Type
REMARK                         _______ _______ _______ _____ _____    ______ ____
ROOT
ATOM      1  C   UNL     1      -9.703  -7.366  17.546  0.00  0.00    +0.000 C 
ATOM      2  C   UNL     1      -9.295  -8.491  18.152  0.00  0.00    +0.000 C 
ATOM      3  C   UNL     1      -9.060  -8.184  19.581  0.00  0.00    +0.000 C 
ATOM      4  O   UNL     1      -8.763  -8.974  20.458  0.00  0.00    +0.000 OA
ATOM      5  N   UNL     1      -9.251  -6.857  19.736  0.00  0.00    +0.000 N 
ATOM      6  C   UNL     1      -9.639  -6.289  18.577  0.00  0.00    +0.000 C 
ATOM      7  O   UNL     1      -9.911  -5.118  18.386  0.00  0.00    +0.000 OA
ATOM      8  H   UNL     1      -9.156  -6.367  20.609  0.00  0.00    +0.000 HD
ENDROOT
BRANCH   2   9
ATOM      9  C   UNL     1      -9.112  -9.748  17.539  0.00  0.00    +0.000 A 
ATOM     10  C   UNL     1      -9.046 -10.176  16.229  0.00  0.00    +0.000 A 
ATOM     11  C   UNL     1      -8.883 -11.590  16.231  0.00  0.00    +0.000 A 
ATOM     12  C   UNL     1      -8.750 -12.563  15.222  0.00  0.00    +0.000 A 
ATOM     13  C   UNL     1      -8.628 -13.910  15.582  0.00  0.00    +0.000 A 
ATOM     14  C   UNL     1      -8.646 -14.294  16.922  0.00  0.00    +0.000 A 
ATOM     15  C   UNL     1      -8.771 -13.343  17.941  0.00  0.00    +0.000 A 
ATOM     16  C   UNL     1      -8.881 -12.002  17.564  0.00  0.00    +0.000 A 
ATOM     17  N   UNL     1      -9.006 -10.868  18.334  0.00  0.00    +0.000 N 
ATOM     18  H   UNL     1      -9.113  -9.541  15.354  0.00  0.00    +0.000 HD
ATOM     19  H   UNL     1      -8.743 -12.273  14.176  0.00  0.00    +0.000 HD
ATOM     20  H   UNL     1      -8.528 -14.665  14.806  0.00  0.00    +0.000 HD
ATOM     21  H   UNL     1      -8.562 -15.346  17.180  0.00  0.00    +0.000 HD
ATOM     22  H   UNL     1      -8.791 -13.645  18.983  0.00  0.00    +0.000 HD
ATOM     23  H   UNL     1      -9.015 -10.857  19.346  0.00  0.00    +0.000 HD
ENDBRANCH   2   9
BRANCH   1  24
ATOM     24  N   UNL     1     -10.130  -7.100  16.249  0.00  0.00    +0.000 N 
ATOM     25  H   UNL     1     -10.477  -7.977  15.825  0.00  0.00    +0.000 HD
BRANCH  24  26
ATOM     26  C   UNL     1      -9.204  -6.487  15.278  0.00  0.00    +0.000 C 
ATOM     27  H   UNL     1      -8.240  -6.330  15.774  0.00  0.00    +0.000 HD
ATOM     28  H   UNL     1      -9.025  -7.141  14.418  0.00  0.00    +0.000 HD
BRANCH  26  29
ATOM     29  C   UNL     1      -9.762  -5.136  14.786  0.00  0.00    +0.000 C 
ATOM     30  H   UNL     1     -10.740  -5.286  14.316  0.00  0.00    +0.000 HD
ATOM     31  H   UNL     1      -9.901  -4.462  15.639  0.00  0.00    +0.000 HD
BRANCH  29  32
ATOM     32  N   UNL     1      -8.848  -4.494  13.834  0.00  0.00    +0.000 NA
ATOM     33  H   UNL     1      -8.524  -5.189  13.160  0.00  0.00    +0.000 HD
ATOM     34  H   UNL     1      -8.016  -4.168  14.324  0.00  0.00    +0.000 HD
ENDBRANCH  29  32
ENDBRANCH  26  29
ENDBRANCH  24  26
ENDBRANCH   1  24
TORSDOF 5
ENDMDL
MODEL 3
REMARK VINA RESULT:    -9.281      2.218      3.910
REMARK INTER + INTRA:         -12.542
REMARK INTER:                 -11.972
REMARK INTRA:                  -0.571
REMARK UNBOUND:                -0.819
REMARK  Name = 
REMARK  5 active torsions:
REMARK  status: ('A' for Active; 'I' for Inactive)
REMARK    1  A    between atoms: N_1  and  C_2
REMARK    2  A    between atoms: C_2  and  C_3
REMARK    3  A    between atoms: C_3  and  N_4
REMARK    4  A    between atoms: N_4  and  C_5
REMARK    5  A    between atoms: C_6  and  C_7
REMARK                            x       y       z     vdW  Elec       q    Type
REMARK                         _______ _______ _______ _____ _____    ______ ____
ROOT
ATOM      1  C   UNL     1      -8.443  -6.280  19.003  0.00  0.00    +0.000 C 
ATOM      2  C   UNL     1      -9.312  -7.058  18.342  0.00  0.00    +0.000 C 
ATOM      3  C   UNL     1     -10.489  -6.233  17.986  0.00  0.00    +0.000 C 
ATOM      4  O   UNL     1     -11.443  -6.576  17.311  0.00  0.00    +0.000 OA
ATOM      5  N   UNL     1     -10.301  -5.018  18.540  0.00  0.00    +0.000 N 
ATOM      6  C   UNL     1      -9.108  -4.953  19.163  0.00  0.00    +0.000 C 
ATOM      7  O   UNL     1      -8.630  -3.994  19.742  0.00  0.00    +0.000 OA
ATOM      8  H   UNL     1     -10.948  -4.252  18.463  0.00  0.00    +0.000 HD
ENDROOT
BRANCH   2   9
ATOM      9  C   UNL     1      -9.145  -8.426  18.042  0.00  0.00    +0.000 A 
ATOM     10  C   UNL     1      -8.860  -9.546  18.797  0.00  0.00    +0.000 A 
ATOM     11  C   UNL     1      -8.775 -10.664  17.920  0.00  0.00    +0.000 A 
ATOM     12  C   UNL     1      -8.525 -12.037  18.104  0.00  0.00    +0.000 A 
ATOM     13  C   UNL     1      -8.486 -12.880  16.987  0.00  0.00    +0.000 A 
ATOM     14  C   UNL     1      -8.683 -12.373  15.704  0.00  0.00    +0.000 A 
ATOM     15  C   UNL     1      -8.938 -11.013  15.499  0.00  0.00    +0.000 A 
ATOM     16  C   UNL     1      -8.984 -10.187  16.625  0.00  0.00    +0.000 A 
ATOM     17  N   UNL     1      -9.220  -8.835  16.729  0.00  0.00    +0.000 N 
ATOM     18  H   UNL     1      -8.722  -9.563  19.872  0.00  0.00    +0.000 HD
ATOM     19  H   UNL     1      -8.363 -12.438  19.099  0.00  0.00    +0.000 HD
ATOM     20  H   UNL     1      -8.291 -13.941  17.123  0.00  0.00    +0.000 HD
ATOM     21  H   UNL     1      -8.636 -13.043  14.849  0.00  0.00    +0.000 HD
ATOM     22  H   UNL     1      -9.085 -10.620  14.498  0.00  0.00    +0.000 HD
ATOM     23  H   UNL     1      -9.424  -8.224  15.949  0.00  0.00    +0.000 HD
ENDBRANCH   2   9
BRANCH   1  24
ATOM     24  N   UNL     1      -7.161  -6.509  19.494  0.00  0.00    +0.000 N 
ATOM     25  H   UNL     1      -7.132  -6.236  20.491  0.00  0.00    +0.000 HD
BRANCH  24  26
ATOM     26  C   UNL     1      -5.997  -5.883  18.840  0.00  0.00    +0.000 C 
ATOM     27  H   UNL     1      -5.698  -6.513  17.995  0.00  0.00    +0.000 HD
ATOM     28  H   UNL     1      -6.239  -4.894  18.438  0.00  0.00    +0.000 HD
BRANCH  26  29
ATOM     29  C   UNL     1      -4.827  -5.759  19.837  0.00  0.00    +0.000 C 
ATOM     30  H   UNL     1      -5.148  -6.084  20.831  0.00  0.00    +0.000 HD
ATOM     31  H   UNL     1      -4.004  -6.409  19.521  0.00  0.00    +0.000 HD
BRANCH  29  32
ATOM     32  N   UNL     1      -4.326  -4.381  19.904  0.00  0.00    +0.000 NA
ATOM     33  H   UNL     1      -4.440  -3.938  18.992  0.00  0.00    +0.000 HD
ATOM     34  H   UNL     1      -3.324  -4.388  20.091  0.00  0.00    +0.000 HD
ENDBRANCH  29  32
ENDBRANCH  26  29
ENDBRANCH  24  26
ENDBRANCH   1  24
TORSDOF 5
ENDMDL
MODEL 4
REMARK VINA RESULT:    -8.839      2.404      4.139
REMARK INTER + INTRA:         -11.984
REMARK INTER:                 -11.150
REMARK INTRA:                  -0.834
REMARK UNBOUND:                -0.819
REMARK  Name = 
REMARK  5 active torsions:
REMARK  status: ('A' for Active; 'I' for Inactive)
REMARK    1  A    between atoms: N_1  and  C_2
REMARK    2  A    between atoms: C_2  and  C_3
REMARK    3  A    between atoms: C_3  and  N_4
REMARK    4  A    between atoms: N_4  and  C_5
REMARK    5  A    between atoms: C_6  and  C_7
REMARK                            x       y       z     vdW  Elec       q    Type
REMARK                         _______ _______ _______ _____ _____    ______ ____
ROOT
ATOM      1  C   UNL     1      -9.406  -5.658  18.539  0.00  0.00    +0.000 C 
ATOM      2  C   UNL     1      -9.650  -6.356  17.421  0.00  0.00    +0.000 C 
ATOM      3  C   UNL     1     -10.181  -5.421  16.402  0.00  0.00    +0.000 C 
ATOM      4  O   UNL     1     -10.437  -5.676  15.240  0.00  0.00    +0.000 OA
ATOM      5  N   UNL     1     -10.315  -4.220  17.001  0.00  0.00    +0.000 N 
ATOM      6  C   UNL     1      -9.876  -4.267  18.275  0.00  0.00    +0.000 C 
ATOM      7  O   UNL     1      -9.841  -3.350  19.076  0.00  0.00    +0.000 OA
ATOM      8  H   UNL     1     -10.659  -3.392  16.546  0.00  0.00    +0.000 HD
ENDROOT
BRANCH   2   9
ATOM      9  C   UNL     1      -9.448  -7.740  17.241  0.00  0.00    +0.000 A 
ATOM     10  C   UNL     1      -9.260  -8.802  18.102  0.00  0.00    +0.000 A 
ATOM     11  C   UNL     1      -9.067  -9.977  17.323  0.00  0.00    +0.000 A 
ATOM     12  C   UNL     1      -8.842 -11.332  17.632  0.00  0.00    +0.000 A 
ATOM     13  C   UNL     1      -8.665 -12.251  16.591  0.00  0.00    +0.000 A 
ATOM     14  C   UNL     1      -8.702 -11.837  15.261  0.00  0.00    +0.000 A 
ATOM     15  C   UNL     1      -8.929 -10.497  14.931  0.00  0.00    +0.000 A 
ATOM     16  C   UNL     1      -9.114  -9.594  15.982  0.00  0.00    +0.000 A 
ATOM     17  N   UNL     1      -9.360  -8.240  15.961  0.00  0.00    +0.000 N 
ATOM     18  H   UNL     1      -9.256  -8.743  19.184  0.00  0.00    +0.000 HD
ATOM     19  H   UNL     1      -8.805 -11.661  18.666  0.00  0.00    +0.000 HD
ATOM     20  H   UNL     1      -8.489 -13.299  16.825  0.00  0.00    +0.000 HD
ATOM     21  H   UNL     1      -8.550 -12.565  14.468  0.00  0.00    +0.000 HD
ATOM     22  H   UNL     1      -8.951 -10.176  13.895  0.00  0.00    +0.000 HD
ATOM     23  H   UNL     1      -9.466  -7.687  15.120  0.00  0.00    +0.000 HD
ENDBRANCH   2   9
BRANCH   1  24
ATOM     24  N   UNL     1      -8.840  -6.009  19.761  0.00  0.00    +0.000 N 
ATOM     25  H   UNL     1      -9.287  -5.453  20.509  0.00  0.00    +0.000 HD
BRANCH  24  26
ATOM     26  C   UNL     1      -7.381  -5.903  19.956  0.00  0.00    +0.000 C 
ATOM     27  H   UNL     1      -7.046  -6.775  20.527  0.00  0.00    +0.000 HD
ATOM     28  H   UNL     1      -6.841  -5.911  19.003  0.00  0.00    +0.000 HD
BRANCH  26  29
ATOM     29  C   UNL     1      -7.038  -4.612  20.727  0.00  0.00    +0.000 C 
ATOM     30  H   UNL     1      -6.148  -4.772  21.343  0.00  0.00    +0.000 HD
ATOM     31  H   UNL     1      -6.814  -3.808  20.017  0.00  0.00    +0.000 HD
BRANCH  29  32
ATOM     32  N   UNL     1      -8.156  -4.182  21.574  0.00  0.00    +0.000 NA
ATOM     33  H   UNL     1      -8.086  -3.177  21.737  0.00  0.00    +0.000 HD
ATOM     34  H   UNL     1      -8.081  -4.621  22.492  0.00  0.00    +0.000 HD
ENDBRANCH  29  32
ENDBRANCH  26  29
ENDBRANCH  24  26
ENDBRANCH   1  24
TORSDOF 5
ENDMDL
MODEL 5
REMARK VINA RESULT:    -8.455      1.867      2.783
REMARK INTER + INTRA:         -11.499
REMARK INTER:                 -10.875
REMARK INTRA:                  -0.624
REMARK UNBOUND:                -0.819
REMARK  Name = 
REMARK  5 active torsions:
REMARK  status: ('A' for Active; 'I' for Inactive)
REMARK    1  A    between atoms: N_1  and  C_2
REMARK    2  A    between atoms: C_2  and  C_3
REMARK    3  A    between atoms: C_3  and  N_4
REMARK    4  A    between atoms: N_4  and  C_5
REMARK    5  A    between atoms: C_6  and  C_7
REMARK                            x       y       z     vdW  Elec       q    Type
REMARK                         _______ _______ _______ _____ _____    ______ ____
ROOT
ATOM      1  C   UNL     1     -10.004  -5.595  18.120  0.00  0.00    +0.000 C 
ATOM      2  C   UNL     1      -9.025  -6.497  18.274  0.00  0.00    +0.000 C 
ATOM      3  C   UNL     1      -7.997  -5.911  19.165  0.00  0.00    +0.000 C 
ATOM      4  O   UNL     1      -7.004  -6.466  19.598  0.00  0.00    +0.000 OA
ATOM      5  N   UNL     1      -8.375  -4.642  19.423  0.00  0.00    +0.000 N 
ATOM      6  C   UNL     1      -9.560  -4.367  18.843  0.00  0.00    +0.000 C 
ATOM      7  O   UNL     1     -10.184  -3.322  18.899  0.00  0.00    +0.000 OA
ATOM      8  H   UNL     1      -7.861  -4.002  20.002  0.00  0.00    +0.000 HD
ENDROOT
BRANCH   2   9
ATOM      9  C   UNL     1      -8.972  -7.778  17.688  0.00  0.00    +0.000 A 
ATOM     10  C   UNL     1      -9.107  -8.250  16.398  0.00  0.00    +0.000 A 
ATOM     11  C   UNL     1      -8.992  -9.668  16.428  0.00  0.00    +0.000 A 
ATOM     12  C   UNL     1      -9.035 -10.676  15.446  0.00  0.00    +0.000 A 
ATOM     13  C   UNL     1      -8.908 -12.015  15.835  0.00  0.00    +0.000 A 
ATOM     14  C   UNL     1      -8.747 -12.355  17.177  0.00  0.00    +0.000 A 
ATOM     15  C   UNL     1      -8.695 -11.370  18.168  0.00  0.00    +0.000 A 
ATOM     16  C   UNL     1      -8.814 -10.037  17.762  0.00  0.00    +0.000 A 
ATOM     17  N   UNL     1      -8.791  -8.876  18.500  0.00  0.00    +0.000 N 
ATOM     18  H   UNL     1      -9.277  -7.640  15.519  0.00  0.00    +0.000 HD
ATOM     19  H   UNL     1      -9.168 -10.419  14.400  0.00  0.00    +0.000 HD
ATOM     20  H   UNL     1      -8.944 -12.797  15.080  0.00  0.00    +0.000 HD
ATOM     21  H   UNL     1      -8.662 -13.402  17.458  0.00  0.00    +0.000 HD
ATOM     22  H   UNL     1      -8.576 -11.638  19.213  0.00  0.00    +0.000 HD
ATOM     23  H   UNL     1      -8.655  -8.833  19.502  0.00  0.00    +0.000 HD
ENDBRANCH   2   9
BRANCH   1  24
ATOM     24  N   UNL     1     -11.230  -5.642  17.462  0.00  0.00    +0.000 N 
ATOM     25  H   UNL     1     -11.737  -6.493  17.762  0.00  0.00    +0.000 HD
BRANCH  24  26
ATOM     26  C   UNL     1     -11.279  -5.606  15.989  0.00  0.00    +0.000 C 
ATOM     27  H   UNL     1     -10.928  -6.572  15.609  0.00  0.00    +0.000 HD
ATOM     28  H   UNL     1     -12.300  -5.463  15.619  0.00  0.00    +0.000 HD
BRANCH  26  29
ATOM     29  C   UNL     1     -10.378  -4.476  15.451  0.00  0.00    +0.000 C 
ATOM     30  H   UNL     1     -10.951  -3.830  14.779  0.00  0.00    +0.000 HD
ATOM     31  H   UNL     1     -10.023  -3.860  16.285  0.00  0.00    +0.000 HD
BRANCH  29  32
ATOM     32  N   UNL     1      -9.210  -5.014  14.744  0.00  0.00    +0.000 NA
ATOM     33  H   UNL     1      -8.366  -4.561  15.097  0.00  0.00    +0.000 HD
ATOM     34  H   UNL     1      -9.266  -4.774  13.755  0.00  0.00    +0.000 HD
ENDBRANCH  29  32
ENDBRANCH  26  29
ENDBRANCH  24  26
ENDBRANCH   1  24
TORSDOF 5
ENDMDL
MODEL 6
REMARK VINA RESULT:    -8.393      2.958      6.962
REMARK INTER + INTRA:         -11.421
REMARK INTER:                 -10.526
REMARK INTRA:                  -0.895
REMARK UNBOUND:                -0.819
REMARK  Name = 
REMARK  5 active torsions:
REMARK  status: ('A' for Active; 'I' for Inactive)
REMARK    1  A    between atoms: N_1  and  C_2
REMARK    2  A    between atoms: C_2  and  C_3
REMARK    3  A    between atoms: C_3  and  N_4
REMARK    4  A    between atoms: N_4  and  C_5
REMARK    5  A    between atoms: C_6  and  C_7
REMARK                            x       y       z     vdW  Elec       q    Type
REMARK                         _______ _______ _______ _____ _____    ______ ____
ROOT
ATOM      1  C   UNL     1      -9.615  -7.795  17.639  0.00  0.00    +0.000 C 
ATOM      2  C   UNL     1      -9.515  -6.565  18.165  0.00  0.00    +0.000 C 
ATOM      3  C   UNL     1     -10.817  -5.882  17.983  0.00  0.00    +0.000 C 
ATOM      4  O   UNL     1     -11.129  -4.784  18.407  0.00  0.00    +0.000 OA
ATOM      5  N   UNL     1     -11.603  -6.713  17.269  0.00  0.00    +0.000 N 
ATOM      6  C   UNL     1     -10.971  -7.877  17.021  0.00  0.00    +0.000 C 
ATOM      7  O   UNL     1     -11.411  -8.841  16.421  0.00  0.00    +0.000 OA
ATOM      8  H   UNL     1     -12.548  -6.506  16.994  0.00  0.00    +0.000 HD
ENDROOT
BRANCH   2   9
ATOM      9  C   UNL     1      -8.373  -6.011  18.777  0.00  0.00    +0.000 A 
ATOM     10  C   UNL     1      -7.015  -6.123  18.555  0.00  0.00    +0.000 A 
ATOM     11  C   UNL     1      -6.338  -5.345  19.535  0.00  0.00    +0.000 A 
ATOM     12  C   UNL     1      -4.984  -5.071  19.805  0.00  0.00    +0.000 A 
ATOM     13  C   UNL     1      -4.655  -4.259  20.897  0.00  0.00    +0.000 A 
ATOM     14  C   UNL     1      -5.650  -3.729  21.717  0.00  0.00    +0.000 A 
ATOM     15  C   UNL     1      -7.002  -3.984  21.463  0.00  0.00    +0.000 A 
ATOM     16  C   UNL     1      -7.313  -4.788  20.364  0.00  0.00    +0.000 A 
ATOM     17  N   UNL     1      -8.534  -5.195  19.874  0.00  0.00    +0.000 N 
ATOM     18  H   UNL     1      -6.551  -6.710  17.770  0.00  0.00    +0.000 HD
ATOM     19  H   UNL     1      -4.203  -5.485  19.175  0.00  0.00    +0.000 HD
ATOM     20  H   UNL     1      -3.610  -4.046  21.111  0.00  0.00    +0.000 HD
ATOM     21  H   UNL     1      -5.372  -3.111  22.566  0.00  0.00    +0.000 HD
ATOM     22  H   UNL     1      -7.774  -3.576  22.107  0.00  0.00    +0.000 HD
ATOM     23  H   UNL     1      -9.428  -4.928  20.265  0.00  0.00    +0.000 HD
ENDBRANCH   2   9
BRANCH   1  24
ATOM     24  N   UNL     1      -8.737  -8.874  17.601  0.00  0.00    +0.000 N 
ATOM     25  H   UNL     1      -8.784  -9.311  16.665  0.00  0.00    +0.000 HD
BRANCH  24  26
ATOM     26  C   UNL     1      -8.860  -9.961  18.591  0.00  0.00    +0.000 C 
ATOM     27  H   UNL     1      -7.995  -9.916  19.261  0.00  0.00    +0.000 HD
ATOM     28  H   UNL     1      -9.757  -9.849  19.209  0.00  0.00    +0.000 HD
BRANCH  26  29
ATOM     29  C   UNL     1      -8.897 -11.330  17.880  0.00  0.00    +0.000 C 
ATOM     30  H   UNL     1      -7.891 -11.761  17.850  0.00  0.00    +0.000 HD
ATOM     31  H   UNL     1      -9.539 -12.018  18.440  0.00  0.00    +0.000 HD
BRANCH  29  32
ATOM     32  N   UNL     1      -9.425 -11.210  16.516  0.00  0.00    +0.000 NA
ATOM     33  H   UNL     1     -10.210 -10.558  16.517  0.00  0.00    +0.000 HD
ATOM     34  H   UNL     1      -9.805 -12.107  16.215  0.00  0.00    +0.000 HD
ENDBRANCH  29  32
ENDBRANCH  26  29
ENDBRANCH  24  26
ENDBRANCH   1  24
TORSDOF 5
ENDMDL
MODEL 7
REMARK VINA RESULT:    -8.264      1.843      3.409
REMARK INTER + INTRA:         -11.257
REMARK INTER:                 -11.460
REMARK INTRA:                   0.203
REMARK UNBOUND:                -0.819
REMARK  Name = 
REMARK  5 active torsions:
REMARK  status: ('A' for Active; 'I' for Inactive)
REMARK    1  A    between atoms: N_1  and  C_2
REMARK    2  A    between atoms: C_2  and  C_3
REMARK    3  A    between atoms: C_3  and  N_4
REMARK    4  A    between atoms: N_4  and  C_5
REMARK    5  A    between atoms: C_6  and  C_7
REMARK                            x       y       z     vdW  Elec       q    Type
REMARK                         _______ _______ _______ _____ _____    ______ ____
ROOT
ATOM      1  C   UNL     1      -9.752  -7.410  18.042  0.00  0.00    +0.000 C 
ATOM      2  C   UNL     1      -9.402  -7.865  16.830  0.00  0.00    +0.000 C 
ATOM      3  C   UNL     1      -9.305  -6.705  15.915  0.00  0.00    +0.000 C 
ATOM      4  O   UNL     1      -8.931  -6.719  14.756  0.00  0.00    +0.000 OA
ATOM      5  N   UNL     1      -9.697  -5.618  16.612  0.00  0.00    +0.000 N 
ATOM      6  C   UNL     1      -9.979  -5.944  17.889  0.00  0.00    +0.000 C 
ATOM      7  O   UNL     1     -10.338  -5.193  18.778  0.00  0.00    +0.000 OA
ATOM      8  H   UNL     1      -9.733  -4.686  16.239  0.00  0.00    +0.000 HD
ENDROOT
BRANCH   2   9
ATOM      9  C   UNL     1      -9.174  -9.212  16.479  0.00  0.00    +0.000 A 
ATOM     10  C   UNL     1      -9.162  -9.903  15.285  0.00  0.00    +0.000 A 
ATOM     11  C   UNL     1      -8.904 -11.274  15.567  0.00  0.00    +0.000 A 
ATOM     12  C   UNL     1      -8.769 -12.430  14.774  0.00  0.00    +0.000 A 
ATOM     13  C   UNL     1      -8.535 -13.662  15.396  0.00  0.00    +0.000 A 
ATOM     14  C   UNL     1      -8.442 -13.754  16.783  0.00  0.00    +0.000 A 
ATOM     15  C   UNL     1      -8.567 -12.618  17.590  0.00  0.00    +0.000 A 
ATOM     16  C   UNL     1      -8.791 -11.394  16.953  0.00  0.00    +0.000 A 
ATOM     17  N   UNL     1      -8.943 -10.131  17.478  0.00  0.00    +0.000 N 
ATOM     18  H   UNL     1      -9.327  -9.471  14.305  0.00  0.00    +0.000 HD
ATOM     19  H   UNL     1      -8.848 -12.367  13.694  0.00  0.00    +0.000 HD
ATOM     20  H   UNL     1      -8.433 -14.558  14.788  0.00  0.00    +0.000 HD
ATOM     21  H   UNL     1      -8.272 -14.722  17.247  0.00  0.00    +0.000 HD
ATOM     22  H   UNL     1      -8.500 -12.694  18.670  0.00  0.00    +0.000 HD
ATOM     23  H   UNL     1      -8.889  -9.907  18.463  0.00  0.00    +0.000 HD
ENDBRANCH   2   9
BRANCH   1  24
ATOM     24  N   UNL     1      -9.907  -8.041  19.273  0.00  0.00    +0.000 N 
ATOM     25  H   UNL     1     -10.740  -7.651  19.746  0.00  0.00    +0.000 HD
BRANCH  24  26
ATOM     26  C   UNL     1      -8.806  -8.023  20.255  0.00  0.00    +0.000 C 
ATOM     27  H   UNL     1      -7.999  -7.399  19.856  0.00  0.00    +0.000 HD
ATOM     28  H   UNL     1      -9.117  -7.583  21.208  0.00  0.00    +0.000 HD
BRANCH  26  29
ATOM     29  C   UNL     1      -8.285  -9.455  20.499  0.00  0.00    +0.000 C 
ATOM     30  H   UNL     1      -8.556 -10.099  19.656  0.00  0.00    +0.000 HD
ATOM     31  H   UNL     1      -7.192  -9.441  20.572  0.00  0.00    +0.000 HD
BRANCH  29  32
ATOM     32  N   UNL     1      -8.824 -10.015  21.744  0.00  0.00    +0.000 NA
ATOM     33  H   UNL     1      -8.059 -10.407  22.294  0.00  0.00    +0.000 HD
ATOM     34  H   UNL     1      -9.445 -10.795  21.529  0.00  0.00    +0.000 HD
ENDBRANCH  29  32
ENDBRANCH  26  29
ENDBRANCH  24  26
ENDBRANCH   1  24
TORSDOF 5
ENDMDL
MODEL 8
REMARK VINA RESULT:    -8.032      2.505      6.546
REMARK INTER + INTRA:         -10.964
REMARK INTER:                 -10.349
REMARK INTRA:                  -0.616
REMARK UNBOUND:                -0.819
REMARK  Name = 
REMARK  5 active torsions:
REMARK  status: ('A' for Active; 'I' for Inactive)
REMARK    1  A    between atoms: N_1  and  C_2
REMARK    2  A    between atoms: C_2  and  C_3
REMARK    3  A    between atoms: C_3  and  N_4
REMARK    4  A    between atoms: N_4  and  C_5
REMARK    5  A    between atoms: C_6  and  C_7
REMARK                            x       y       z     vdW  Elec       q    Type
REMARK                         _______ _______ _______ _____ _____    ______ ____
ROOT
ATOM      1  C   UNL     1      -9.086 -10.877  17.017  0.00  0.00    +0.000 C 
ATOM      2  C   UNL     1      -9.243  -9.838  16.185  0.00  0.00    +0.000 C 
ATOM      3  C   UNL     1      -9.087 -10.333  14.798  0.00  0.00    +0.000 C 
ATOM      4  O   UNL     1      -9.246  -9.694  13.774  0.00  0.00    +0.000 OA
ATOM      5  N   UNL     1      -8.750 -11.636  14.880  0.00  0.00    +0.000 N 
ATOM      6  C   UNL     1      -8.727 -12.047  16.163  0.00  0.00    +0.000 C 
ATOM      7  O   UNL     1      -8.481 -13.166  16.574  0.00  0.00    +0.000 OA
ATOM      8  H   UNL     1      -8.578 -12.230  14.087  0.00  0.00    +0.000 HD
ENDROOT
BRANCH   2   9
ATOM      9  C   UNL     1      -9.503  -8.503  16.558  0.00  0.00    +0.000 A 
ATOM     10  C   UNL     1      -8.929  -7.630  17.460  0.00  0.00    +0.000 A 
ATOM     11  C   UNL     1      -9.659  -6.409  17.423  0.00  0.00    +0.000 A 
ATOM     12  C   UNL     1      -9.543  -5.177  18.095  0.00  0.00    +0.000 A 
ATOM     13  C   UNL     1     -10.473  -4.164  17.831  0.00  0.00    +0.000 A 
ATOM     14  C   UNL     1     -11.508  -4.367  16.921  0.00  0.00    +0.000 A 
ATOM     15  C   UNL     1     -11.638  -5.580  16.237  0.00  0.00    +0.000 A 
ATOM     16  C   UNL     1     -10.696  -6.577  16.505  0.00  0.00    +0.000 A 
ATOM     17  N   UNL     1     -10.569  -7.846  15.986  0.00  0.00    +0.000 N 
ATOM     18  H   UNL     1      -8.073  -7.845  18.089  0.00  0.00    +0.000 HD
ATOM     19  H   UNL     1      -8.745  -5.015  18.812  0.00  0.00    +0.000 HD
ATOM     20  H   UNL     1     -10.389  -3.212  18.350  0.00  0.00    +0.000 HD
ATOM     21  H   UNL     1     -12.227  -3.572  16.739  0.00  0.00    +0.000 HD
ATOM     22  H   UNL     1     -12.449  -5.738  15.533  0.00  0.00    +0.000 HD
ATOM     23  H   UNL     1     -11.175  -8.242  15.279  0.00  0.00    +0.000 HD
ENDBRANCH   2   9
BRANCH   1  24
ATOM     24  N   UNL     1      -9.203 -11.001  18.399  0.00  0.00    +0.000 N 
ATOM     25  H   UNL     1      -9.992 -10.415  18.721  0.00  0.00    +0.000 HD
BRANCH  24  26
ATOM     26  C   UNL     1      -8.052 -10.691  19.267  0.00  0.00    +0.000 C 
ATOM     27  H   UNL     1      -7.783 -11.599  19.819  0.00  0.00    +0.000 HD
ATOM     28  H   UNL     1      -7.173 -10.391  18.687  0.00  0.00    +0.000 HD
BRANCH  26  29
ATOM     29  C   UNL     1      -8.417  -9.568  20.260  0.00  0.00    +0.000 C 
ATOM     30  H   UNL     1      -7.544  -8.934  20.443  0.00  0.00    +0.000 HD
ATOM     31  H   UNL     1      -9.203  -8.938  19.829  0.00  0.00    +0.000 HD
BRANCH  29  32
ATOM     32  N   UNL     1      -8.907 -10.115  21.530  0.00  0.00    +0.000 NA
ATOM     33  H   UNL     1      -8.885 -11.135  21.486  0.00  0.00    +0.000 HD
ATOM     34  H   UNL     1      -9.886  -9.861  21.659  0.00  0.00    +0.000 HD
ENDBRANCH  29  32
ENDBRANCH  26  29
ENDBRANCH  24  26
ENDBRANCH   1  24
TORSDOF 5
ENDMDL
MODEL 9
REMARK VINA RESULT:    -7.976      1.841      6.175
REMARK INTER + INTRA:         -10.893
REMARK INTER:                 -10.293
REMARK INTRA:                  -0.600
REMARK UNBOUND:                -0.819
REMARK  Name = 
REMARK  5 active torsions:
REMARK  status: ('A' for Active; 'I' for Inactive)
REMARK    1  A    between atoms: N_1  and  C_2
REMARK    2  A    between atoms: C_2  and  C_3
REMARK    3  A    between atoms: C_3  and  N_4
REMARK    4  A    between atoms: N_4  and  C_5
REMARK    5  A    between atoms: C_6  and  C_7
REMARK                            x       y       z     vdW  Elec       q    Type
REMARK                         _______ _______ _______ _____ _____    ______ ____
ROOT
ATOM      1  C   UNL     1      -8.946 -11.139  17.279  0.00  0.00    +0.000 C 
ATOM      2  C   UNL     1      -8.971  -9.907  17.807  0.00  0.00    +0.000 C 
ATOM      3  C   UNL     1      -8.624 -10.016  19.243  0.00  0.00    +0.000 C 
ATOM      4  O   UNL     1      -8.465  -9.098  20.027  0.00  0.00    +0.000 OA
ATOM      5  N   UNL     1      -8.500 -11.330  19.521  0.00  0.00    +0.000 N 
ATOM      6  C   UNL     1      -8.673 -12.074  18.410  0.00  0.00    +0.000 C 
ATOM      7  O   UNL     1      -8.605 -13.286  18.318  0.00  0.00    +0.000 OA
ATOM      8  H   UNL     1      -8.269 -11.701  20.426  0.00  0.00    +0.000 HD
ENDROOT
BRANCH   2   9
ATOM      9  C   UNL     1      -9.281  -8.713  17.124  0.00  0.00    +0.000 A 
ATOM     10  C   UNL     1      -8.701  -8.031  16.074  0.00  0.00    +0.000 A 
ATOM     11  C   UNL     1      -9.453  -6.845  15.844  0.00  0.00    +0.000 A 
ATOM     12  C   UNL     1      -9.354  -5.783  14.925  0.00  0.00    +0.000 A 
ATOM     13  C   UNL     1     -10.273  -4.730  14.994  0.00  0.00    +0.000 A 
ATOM     14  C   UNL     1     -11.275  -4.722  15.963  0.00  0.00    +0.000 A 
ATOM     15  C   UNL     1     -11.396  -5.769  16.882  0.00  0.00    +0.000 A 
ATOM     16  C   UNL     1     -10.476  -6.817  16.793  0.00  0.00    +0.000 A 
ATOM     17  N   UNL     1     -10.358  -7.965  17.544  0.00  0.00    +0.000 N 
ATOM     18  H   UNL     1      -7.820  -8.346  15.527  0.00  0.00    +0.000 HD
ATOM     19  H   UNL     1      -8.572  -5.779  14.173  0.00  0.00    +0.000 HD
ATOM     20  H   UNL     1     -10.199  -3.907  14.288  0.00  0.00    +0.000 HD
ATOM     21  H   UNL     1     -11.972  -3.888  16.007  0.00  0.00    +0.000 HD
ATOM     22  H   UNL     1     -12.174  -5.757  17.639  0.00  0.00    +0.000 HD
ATOM     23  H   UNL     1     -10.979  -8.226  18.299  0.00  0.00    +0.000 HD
ENDBRANCH   2   9
BRANCH   1  24
ATOM     24  N   UNL     1      -9.114 -11.608  15.980  0.00  0.00    +0.000 N 
ATOM     25  H   UNL     1     -10.044 -12.054  15.903  0.00  0.00    +0.000 HD
BRANCH  24  26
ATOM     26  C   UNL     1      -8.135 -12.548  15.402  0.00  0.00    +0.000 C 
ATOM     27  H   UNL     1      -7.600 -12.034  14.596  0.00  0.00    +0.000 HD
ATOM     28  H   UNL     1      -7.389 -12.863  16.139  0.00  0.00    +0.000 HD
BRANCH  26  29
ATOM     29  C   UNL     1      -8.855 -13.791  14.839  0.00  0.00    +0.000 C 
ATOM     30  H   UNL     1      -9.897 -13.546  14.612  0.00  0.00    +0.000 HD
ATOM     31  H   UNL     1      -8.374 -14.104  13.906  0.00  0.00    +0.000 HD
BRANCH  29  32
ATOM     32  N   UNL     1      -8.804 -14.912  15.785  0.00  0.00    +0.000 NA
ATOM     33  H   UNL     1      -8.911 -15.788  15.272  0.00  0.00    +0.000 HD
ATOM     34  H   UNL     1      -9.598 -14.860  16.422  0.00  0.00    +0.000 HD
ENDBRANCH  29  32
ENDBRANCH  26  29
ENDBRANCH  24  26
ENDBRANCH   1  24
TORSDOF 5
ENDMDL
