
 OpenBabel01112422243D

 62 69  0  0  1  0  0  0  0  0999 V2000
    4.6512   -2.9210   -0.3384 C   0  0  0  0  0  0  0  0  0  0  0  0
    3.3865   -3.0463   -1.0584 N   0  0  0  0  0  0  0  0  0  0  0  0
    2.5795   -1.8107   -1.0428 C   0  0  1  0  0  0  0  0  0  0  0  0
    1.2723   -2.1065   -1.8120 C   0  0  0  0  0  0  0  0  0  0  0  0
    0.1228   -1.1821   -1.4237 C   0  0  2  0  0  0  0  0  0  0  0  0
    0.6850    0.1095   -1.1933 O   0  0  0  0  0  0  0  0  0  0  0  0
    1.4999    0.1724    0.0045 C   0  0  2  0  0  0  0  0  0  0  0  0
    2.5004    1.2667   -0.4292 C   0  0  0  0  0  0  0  0  0  0  0  0
    2.2390   -1.1803    0.3305 C   0  0  1  0  0  0  0  0  0  0  0  0
    1.4908   -2.2035    1.0260 O   0  0  0  0  0  0  0  0  0  0  0  0
    1.1876   -1.9457    2.3900 C   0  0  0  0  0  0  0  0  0  0  0  0
    0.6219    0.6152    1.0680 N   0  0  0  0  0  0  0  0  0  0  0  0
    0.7891    1.5542    2.0910 C   0  0  0  0  0  0  0  0  0  0  0  0
    1.9621    2.0083    2.7114 C   0  0  0  0  0  0  0  0  0  0  0  0
    1.8499    2.6854    3.9258 C   0  0  0  0  0  0  0  0  0  0  0  0
    0.6044    3.0081    4.4516 C   0  0  0  0  0  0  0  0  0  0  0  0
   -0.5665    2.7779    3.7202 C   0  0  0  0  0  0  0  0  0  0  0  0
   -0.5100    2.0414    2.5153 C   0  0  0  0  0  0  0  0  0  0  0  0
   -1.5183    1.4470    1.6987 C   0  0  0  0  0  0  0  0  0  0  0  0
   -2.5041    2.1630    0.9445 C   0  0  0  0  0  0  0  0  0  0  0  0
   -3.1280    1.3888   -0.0638 C   0  0  0  0  0  0  0  0  0  0  0  0
   -2.6166    0.0842   -0.1814 C   0  0  0  0  0  0  0  0  0  0  0  0
   -2.9065   -0.8524   -1.1868 C   0  0  0  0  0  0  0  0  0  0  0  0
   -3.6435   -0.9682   -2.3634 C   0  0  0  0  0  0  0  0  0  0  0  0
   -3.9631   -2.2548   -2.7897 C   0  0  0  0  0  0  0  0  0  0  0  0
   -3.6410   -3.3649   -2.0019 C   0  0  0  0  0  0  0  0  0  0  0  0
   -2.6831   -3.2761   -0.9840 C   0  0  0  0  0  0  0  0  0  0  0  0
   -2.1464   -2.0025   -0.7912 C   0  0  0  0  0  0  0  0  0  0  0  0
   -0.8679   -1.5071   -0.3657 N   0  0  0  0  0  0  0  0  0  0  0  0
   -1.4136   -0.4237    0.2926 C   0  0  0  0  0  0  0  0  0  0  0  0
   -0.7267    0.4711    1.0830 C   0  0  0  0  0  0  0  0  0  0  0  0
   -3.7033    2.1959   -1.1170 C   0  0  1  0  0  0  0  0  0  0  0  0
   -5.1002    2.2342   -1.0816 O   0  0  0  0  0  0  0  0  0  0  0  0
   -3.2371    3.4974   -0.7247 N   0  0  0  0  0  0  0  0  0  0  0  0
   -2.5802    3.5281    0.5230 C   0  0  0  0  0  0  0  0  0  0  0  0
   -2.0609    4.5568    0.9328 O   0  0  0  0  0  0  0  0  0  0  0  0
    4.5681   -3.3796    0.6512 H   0  0  0  0  0  0  0  0  0  0  0  0
    5.4340   -3.4414   -0.8967 H   0  0  0  0  0  0  0  0  0  0  0  0
    4.9731   -1.8813   -0.2169 H   0  0  0  0  0  0  0  0  0  0  0  0
    2.8410   -3.7960   -0.6381 H   0  0  0  0  0  0  0  0  0  0  0  0
    3.1491   -1.0778   -1.6298 H   0  0  0  0  0  0  0  0  0  0  0  0
    1.5063   -1.8617   -2.8607 H   0  0  0  0  0  0  0  0  0  0  0  0
    0.9656   -3.1548   -1.8089 H   0  0  0  0  0  0  0  0  0  0  0  0
   -0.4870   -1.0742   -2.3320 H   0  0  0  0  0  0  0  0  0  0  0  0
    3.3698    1.3314    0.2251 H   0  0  0  0  0  0  0  0  0  0  0  0
    2.8639    1.0861   -1.4492 H   0  0  0  0  0  0  0  0  0  0  0  0
    2.0156    2.2507   -0.4751 H   0  0  0  0  0  0  0  0  0  0  0  0
    3.1411   -0.9719    0.9144 H   0  0  0  0  0  0  0  0  0  0  0  0
    1.2777   -2.8828    2.9451 H   0  0  0  0  0  0  0  0  0  0  0  0
    1.8497   -1.2017    2.8393 H   0  0  0  0  0  0  0  0  0  0  0  0
    0.1444   -1.6364    2.4857 H   0  0  0  0  0  0  0  0  0  0  0  0
    2.9470    1.7608    2.3326 H   0  0  0  0  0  0  0  0  0  0  0  0
    2.7517    2.9242    4.4858 H   0  0  0  0  0  0  0  0  0  0  0  0
    0.5382    3.4177    5.4573 H   0  0  0  0  0  0  0  0  0  0  0  0
   -1.5318    3.0220    4.1569 H   0  0  0  0  0  0  0  0  0  0  0  0
   -3.9596   -0.0988   -2.9249 H   0  0  0  0  0  0  0  0  0  0  0  0
   -4.5294   -2.3802   -3.7077 H   0  0  0  0  0  0  0  0  0  0  0  0
   -4.0974   -4.3245   -2.2307 H   0  0  0  0  0  0  0  0  0  0  0  0
   -2.3707   -4.1406   -0.4092 H   0  0  0  0  0  0  0  0  0  0  0  0
   -3.3288    1.9431   -2.1128 H   0  0  0  0  0  0  0  0  0  0  0  0
   -5.3052    3.1633   -1.2751 H   0  0  0  0  0  0  0  0  0  0  0  0
   -2.7016    4.0131   -1.4124 H   0  0  0  0  0  0  0  0  0  0  0  0
  1  2  1  0  0  0  0
  1 37  1  0  0  0  0
  1 38  1  0  0  0  0
  1 39  1  0  0  0  0
  2 40  1  0  0  0  0
  3  4  1  0  0  0  0
  3  9  1  0  0  0  0
  3  2  1  0  0  0  0
  3 41  1  6  0  0  0
  4  5  1  0  0  0  0
  4 42  1  0  0  0  0
  4 43  1  0  0  0  0
  5  6  1  0  0  0  0
  5 29  1  0  0  0  0
  5 44  1  6  0  0  0
  6  7  1  0  0  0  0
  7  8  1  6  0  0  0
  7  9  1  0  0  0  0
  7 12  1  0  0  0  0
  8 45  1  0  0  0  0
  8 46  1  0  0  0  0
  8 47  1  0  0  0  0
  9 10  1  0  0  0  0
  9 48  1  1  0  0  0
 10 11  1  0  0  0  0
 11 49  1  0  0  0  0
 11 50  1  0  0  0  0
 11 51  1  0  0  0  0
 12 13  1  0  0  0  0
 12 31  1  0  0  0  0
 13 14  1  0  0  0  0
 13 18  2  0  0  0  0
 14 15  2  0  0  0  0
 14 52  1  0  0  0  0
 15 16  1  0  0  0  0
 15 53  1  0  0  0  0
 16 17  2  0  0  0  0
 16 54  1  0  0  0  0
 17 18  1  0  0  0  0
 17 55  1  0  0  0  0
 18 19  1  0  0  0  0
 19 20  1  0  0  0  0
 19 31  2  0  0  0  0
 20 21  2  0  0  0  0
 20 35  1  0  0  0  0
 21 22  1  0  0  0  0
 21 32  1  0  0  0  0
 22 23  1  0  0  0  0
 22 30  2  0  0  0  0
 23 24  1  0  0  0  0
 23 28  2  0  0  0  0
 24 25  2  0  0  0  0
 24 56  1  0  0  0  0
 25 26  1  0  0  0  0
 25 57  1  0  0  0  0
 26 27  2  0  0  0  0
 26 58  1  0  0  0  0
 27 28  1  0  0  0  0
 27 59  1  0  0  0  0
 28 29  1  0  0  0  0
 29 30  1  0  0  0  0
 30 31  1  0  0  0  0
 32 33  1  0  0  0  0
 32 34  1  0  0  0  0
 32 60  1  6  0  0  0
 33 61  1  0  0  0  0
 34 35  1  0  0  0  0
 34 62  1  0  0  0  0
 35 36  2  0  0  0  0
M  END
$$$$
