REMARK  Name = 
REMARK  7 active torsions:
REMARK  status: ('A' for Active; 'I' for Inactive)
REMARK    1  A    between atoms: C_6  and  C_7
REMARK    2  A    between atoms: C_11  and  O_12
REMARK    3  A    between atoms: O_12  and  C_13
REMARK    4  A    between atoms: C_13  and  C_14
REMARK    5  A    between atoms: C_14  and  N_15
REMARK    6  A    between atoms: C_14  and  C_16
REMARK    7  A    between atoms: C_16  and  C_17
REMARK                            x       y       z     vdW  Elec       q    Type
REMARK                         _______ _______ _______ _____ _____    ______ ____
ROOT
ATOM      1  C   UNL     1       0.330  -2.631  -1.535  0.00  0.00    +0.000 A 
ATOM      2  C   UNL     1       1.038  -2.126  -2.624  0.00  0.00    +0.000 A 
ATOM      3  N   UNL     1       1.767  -0.986  -2.625  0.00  0.00    +0.000 NA
ATOM      4  C   UNL     1       1.759  -0.268  -1.480  0.00  0.00    +0.000 A 
ATOM      5  C   UNL     1       1.050  -0.626  -0.345  0.00  0.00    +0.000 A 
ATOM      6  C   UNL     1       0.368  -1.847  -0.365  0.00  0.00    +0.000 A 
ATOM      7  H   UNL     1       1.034  -2.631  -3.589  0.00  0.00    +0.000 HD
ATOM      8  H   UNL     1       2.368   0.623  -1.526  0.00  0.00    +0.000 HD
ATOM      9  H   UNL     1      -0.153  -2.160   0.535  0.00  0.00    +0.000 HD
ENDROOT
BRANCH   1  15
ATOM     10  N   UNL     1      -0.724  -9.393  -4.303  0.00  0.00    +0.000 N 
ATOM     11  C   UNL     1      -1.093  -8.360  -3.447  0.00  0.00    +0.000 A 
ATOM     12  C   UNL     1      -0.326  -7.203  -3.373  0.00  0.00    +0.000 A 
ATOM     13  C   UNL     1      -0.735  -6.161  -2.538  0.00  0.00    +0.000 A 
ATOM     14  C   UNL     1      -0.002  -4.958  -2.425  0.00  0.00    +0.000 A 
ATOM     15  C   UNL     1      -0.430  -3.896  -1.611  0.00  0.00    +0.000 A 
ATOM     16  C   UNL     1      -1.631  -4.079  -0.888  0.00  0.00    +0.000 A 
ATOM     17  C   UNL     1      -2.354  -5.273  -0.970  0.00  0.00    +0.000 A 
ATOM     18  C   UNL     1      -1.917  -6.314  -1.796  0.00  0.00    +0.000 A 
ATOM     19  C   UNL     1      -2.621  -7.517  -1.937  0.00  0.00    +0.000 A 
ATOM     20  N   UNL     1      -2.227  -8.527  -2.751  0.00  0.00    +0.000 NA
ATOM     21  H   UNL     1       0.230  -9.695  -4.136  0.00  0.00    +0.000 HD
ATOM     22  H   UNL     1      -1.393 -10.146  -4.164  0.00  0.00    +0.000 HD
ATOM     23  H   UNL     1       0.567  -7.113  -3.984  0.00  0.00    +0.000 HD
ATOM     24  H   UNL     1       0.921  -4.868  -2.991  0.00  0.00    +0.000 HD
ATOM     25  H   UNL     1      -2.018  -3.290  -0.256  0.00  0.00    +0.000 HD
ATOM     26  H   UNL     1      -3.272  -5.373  -0.392  0.00  0.00    +0.000 HD
ATOM     27  H   UNL     1      -3.539  -7.694  -1.400  0.00  0.00    +0.000 HD
ENDBRANCH   1  15
BRANCH   5  28
ATOM     28  O   UNL     1       0.940   0.110   0.807  0.00  0.00    +0.000 OA
BRANCH  28  29
ATOM     29  C   UNL     1       1.216   1.506   0.622  0.00  0.00    +0.000 C 
ATOM     30  H   UNL     1       0.795   1.843  -0.336  0.00  0.00    +0.000 HD
ATOM     31  H   UNL     1       2.300   1.658   0.619  0.00  0.00    +0.000 HD
BRANCH  29  32
ATOM     32  C   UNL     1       0.558   2.361   1.729  0.00  0.00    +0.000 C 
ATOM     33  H   UNL     1      -0.513   2.137   1.749  0.00  0.00    +0.000 HD
BRANCH  32  34
ATOM     34  N   UNL     1       1.088   2.017   3.063  0.00  0.00    +0.000 NA
ATOM     35  H   UNL     1       2.076   2.254   3.126  0.00  0.00    +0.000 HD
ATOM     36  H   UNL     1       1.030   1.004   3.183  0.00  0.00    +0.000 HD
ENDBRANCH  32  34
BRANCH  32  37
ATOM     37  C   UNL     1       0.797   3.839   1.343  0.00  0.00    +0.000 C 
ATOM     38  H   UNL     1       0.472   3.980   0.302  0.00  0.00    +0.000 HD
ATOM     39  H   UNL     1       1.874   4.048   1.357  0.00  0.00    +0.000 HD
BRANCH  37  40
ATOM     40  C   UNL     1       0.076   4.875   2.141  0.00  0.00    +0.000 A 
ATOM     41  C   UNL     1      -1.207   4.791   2.649  0.00  0.00    +0.000 A 
ATOM     42  N   UNL     1      -1.418   5.925   3.382  0.00  0.00    +0.000 N 
ATOM     43  C   UNL     1      -0.565   6.903   2.935  0.00  0.00    +0.000 A 
ATOM     44  C   UNL     1      -0.640   8.297   3.015  0.00  0.00    +0.000 A 
ATOM     45  C   UNL     1       0.462   9.020   2.554  0.00  0.00    +0.000 A 
ATOM     46  C   UNL     1       1.622   8.368   2.136  0.00  0.00    +0.000 A 
ATOM     47  C   UNL     1       1.665   6.970   2.044  0.00  0.00    +0.000 A 
ATOM     48  C   UNL     1       0.510   6.228   2.360  0.00  0.00    +0.000 A 
ATOM     49  H   UNL     1      -1.948   4.004   2.613  0.00  0.00    +0.000 HD
ATOM     50  H   UNL     1      -2.125   6.046   4.092  0.00  0.00    +0.000 HD
ATOM     51  H   UNL     1      -1.536   8.798   3.366  0.00  0.00    +0.000 HD
ATOM     52  H   UNL     1       0.419  10.107   2.533  0.00  0.00    +0.000 HD
ATOM     53  H   UNL     1       2.491   8.951   1.843  0.00  0.00    +0.000 HD
ATOM     54  H   UNL     1       2.563   6.477   1.686  0.00  0.00    +0.000 HD
ENDBRANCH  37  40
ENDBRANCH  32  37
ENDBRANCH  29  32
ENDBRANCH  28  29
ENDBRANCH   5  28
TORSDOF 7
