MODEL 1
REMARK VINA RESULT:    -9.854      0.000      0.000
REMARK INTER + INTRA:         -10.222
REMARK INTER:                 -12.446
REMARK INTRA:                   2.225
REMARK UNBOUND:                 2.225
REMARK  Name = 
REMARK  6 active torsions:
REMARK  status: ('A' for Active; 'I' for Inactive)
REMARK    1  A    between atoms: C_1  and  O_2
REMARK    2  A    between atoms: O_2  and  C_3
REMARK    3  A    between atoms: C_4  and  N_5
REMARK    4  A    between atoms: N_5  and  C_6
REMARK    5  A    between atoms: N_5  and  C_7
REMARK    6  A    between atoms: C_16  and  C_17
REMARK                            x       y       z     vdW  Elec       q    Type
REMARK                         _______ _______ _______ _____ _____    ______ ____
ROOT
ATOM      1  C   UNL     1     -10.337  -6.638  16.160  0.00  0.00    +0.000 C 
ATOM      2  C   UNL     1     -10.587  -7.323  17.555  0.00  0.00    +0.000 C 
ATOM      3  C   UNL     1     -11.207  -6.231  18.766  0.00  0.00    +0.000 C 
ATOM      4  C   UNL     1     -12.133  -4.876  18.114  0.00  0.00    +0.000 C 
ATOM      5  O   UNL     1     -12.164  -5.504  16.915  0.00  0.00    +0.000 OA
ATOM      6  C   UNL     1     -10.774  -5.253  16.402  0.00  0.00    +0.000 C 
ATOM      7  N   UNL     1      -9.701  -4.576  17.560  0.00  0.00    +0.000 N 
ATOM      8  C   UNL     1      -8.523  -4.987  18.339  0.00  0.00    +0.000 A 
ATOM      9  C   UNL     1      -7.470  -5.882  18.098  0.00  0.00    +0.000 A 
ATOM     10  C   UNL     1      -6.590  -6.218  19.159  0.00  0.00    +0.000 A 
ATOM     11  C   UNL     1      -6.760  -5.765  20.464  0.00  0.00    +0.000 A 
ATOM     12  C   UNL     1      -7.689  -4.774  20.733  0.00  0.00    +0.000 A 
ATOM     13  C   UNL     1      -8.466  -4.263  19.680  0.00  0.00    +0.000 A 
ATOM     14  C   UNL     1      -9.240  -3.117  19.560  0.00  0.00    +0.000 A 
ATOM     15  C   UNL     1      -9.540  -1.958  20.325  0.00  0.00    +0.000 A 
ATOM     16  C   UNL     1     -10.032  -0.864  19.491  0.00  0.00    +0.000 A 
ATOM     17  C   UNL     1     -10.843  -1.399  18.434  0.00  0.00    +0.000 A 
ATOM     18  C   UNL     1     -11.453  -1.135  17.112  0.00  0.00    +0.000 A 
ATOM     19  C   UNL     1     -11.403  -0.200  16.010  0.00  0.00    +0.000 A 
ATOM     20  C   UNL     1     -10.769  -0.545  14.778  0.00  0.00    +0.000 A 
ATOM     21  C   UNL     1      -9.973  -1.633  14.716  0.00  0.00    +0.000 A 
ATOM     22  C   UNL     1     -10.196  -2.547  15.708  0.00  0.00    +0.000 A 
ATOM     23  C   UNL     1     -11.407  -2.508  16.572  0.00  0.00    +0.000 A 
ATOM     24  N   UNL     1     -11.909  -3.425  17.678  0.00  0.00    +0.000 N 
ATOM     25  C   UNL     1     -11.082  -2.779  18.446  0.00  0.00    +0.000 A 
ATOM     26  C   UNL     1      -9.932  -3.517  18.463  0.00  0.00    +0.000 A 
ATOM     27  C   UNL     1     -10.210   0.260  20.346  0.00  0.00    +0.000 C 
ATOM     28  O   UNL     1     -10.255   1.465  20.159  0.00  0.00    +0.000 OA
ATOM     29  N   UNL     1     -10.282  -0.323  21.628  0.00  0.00    +0.000 N 
ATOM     30  C   UNL     1      -9.991  -1.755  21.710  0.00  0.00    +0.000 C 
ATOM     31  H   UNL     1     -11.077  -7.131  15.496  0.00  0.00    +0.000 HD
ATOM     32  H   UNL     1     -11.507  -7.914  17.443  0.00  0.00    +0.000 HD
ATOM     33  H   UNL     1     -10.500  -5.962  19.552  0.00  0.00    +0.000 HD
ATOM     34  H   UNL     1     -11.952  -6.843  19.295  0.00  0.00    +0.000 HD
ATOM     35  H   UNL     1     -13.081  -4.847  18.664  0.00  0.00    +0.000 HD
ATOM     36  H   UNL     1      -7.342  -6.358  17.131  0.00  0.00    +0.000 HD
ATOM     37  H   UNL     1      -5.789  -6.931  18.971  0.00  0.00    +0.000 HD
ATOM     38  H   UNL     1      -6.149  -6.148  21.279  0.00  0.00    +0.000 HD
ATOM     39  H   UNL     1      -7.799  -4.377  21.739  0.00  0.00    +0.000 HD
ATOM     40  H   UNL     1     -12.208   0.551  15.914  0.00  0.00    +0.000 HD
ATOM     41  H   UNL     1     -10.888   0.061  13.847  0.00  0.00    +0.000 HD
ATOM     42  H   UNL     1      -9.225  -1.789  13.940  0.00  0.00    +0.000 HD
ATOM     43  H   UNL     1      -9.336  -3.201  15.888  0.00  0.00    +0.000 HD
ATOM     44  H   UNL     1     -10.843   0.169  22.307  0.00  0.00    +0.000 HD
ATOM     45  H   UNL     1      -9.284  -1.999  22.500  0.00  0.00    +0.000 HD
ATOM     46  H   UNL     1     -10.955  -2.262  21.886  0.00  0.00    +0.000 HD
ENDROOT
BRANCH   6  47
ATOM     47  C   UNL     1     -11.532  -4.730  15.058  0.00  0.00    +0.000 C 
ATOM     48  H   UNL     1     -11.051  -3.825  14.587  0.00  0.00    +0.000 HD
ATOM     49  H   UNL     1     -11.758  -5.403  14.232  0.00  0.00    +0.000 HD
ATOM     50  H   UNL     1     -12.472  -4.242  15.324  0.00  0.00    +0.000 HD
ENDBRANCH   6  47
BRANCH   1  51
ATOM     51  O   UNL     1      -9.105  -6.701  15.426  0.00  0.00    +0.000 OA
BRANCH  51  52
ATOM     52  C   UNL     1      -9.120  -5.831  14.312  0.00  0.00    +0.000 C 
ATOM     53  H   UNL     1      -9.554  -6.265  13.410  0.00  0.00    +0.000 HD
ATOM     54  H   UNL     1      -9.615  -4.875  14.550  0.00  0.00    +0.000 HD
ATOM     55  H   UNL     1      -8.083  -5.507  14.045  0.00  0.00    +0.000 HD
ENDBRANCH  51  52
ENDBRANCH   1  51
BRANCH   2  56
ATOM     56  N   UNL     1      -9.540  -8.362  17.801  0.00  0.00    +0.000 N 
BRANCH  56  57
ATOM     57  C   UNL     1      -9.432  -9.489  16.944  0.00  0.00    +0.000 A 
ATOM     58  C   UNL     1      -8.879 -10.716  17.359  0.00  0.00    +0.000 A 
ATOM     59  C   UNL     1      -8.654 -11.793  16.489  0.00  0.00    +0.000 A 
ATOM     60  C   UNL     1      -8.988 -11.688  15.151  0.00  0.00    +0.000 A 
ATOM     61  C   UNL     1      -9.612 -10.528  14.708  0.00  0.00    +0.000 A 
ATOM     62  C   UNL     1      -9.848  -9.463  15.596  0.00  0.00    +0.000 A 
ATOM     63  H   UNL     1      -8.560 -10.881  18.379  0.00  0.00    +0.000 HD
ATOM     64  H   UNL     1      -8.195 -12.702  16.868  0.00  0.00    +0.000 HD
ATOM     65  H   UNL     1      -8.771 -12.500  14.464  0.00  0.00    +0.000 HD
ATOM     66  H   UNL     1      -9.910 -10.445  13.666  0.00  0.00    +0.000 HD
ATOM     67  H   UNL     1     -10.377  -8.608  15.186  0.00  0.00    +0.000 HD
ENDBRANCH  56  57
BRANCH  56  68
ATOM     68  C   UNL     1      -8.838  -8.452  19.065  0.00  0.00    +0.000 C 
ATOM     69  H   UNL     1      -7.955  -7.807  19.078  0.00  0.00    +0.000 HD
ATOM     70  H   UNL     1      -9.461  -8.163  19.910  0.00  0.00    +0.000 HD
ATOM     71  H   UNL     1      -8.499  -9.479  19.240  0.00  0.00    +0.000 HD
ENDBRANCH  56  68
ENDBRANCH   2  56
TORSDOF 6
ENDMDL
MODEL 2
REMARK VINA RESULT:    -9.454      1.384      1.992
REMARK INTER + INTRA:          -9.716
REMARK INTER:                 -10.694
REMARK INTRA:                   0.977
REMARK UNBOUND:                 2.225
REMARK  Name = 
REMARK  6 active torsions:
REMARK  status: ('A' for Active; 'I' for Inactive)
REMARK    1  A    between atoms: C_1  and  O_2
REMARK    2  A    between atoms: O_2  and  C_3
REMARK    3  A    between atoms: C_4  and  N_5
REMARK    4  A    between atoms: N_5  and  C_6
REMARK    5  A    between atoms: N_5  and  C_7
REMARK    6  A    between atoms: C_16  and  C_17
REMARK                            x       y       z     vdW  Elec       q    Type
REMARK                         _______ _______ _______ _____ _____    ______ ____
ROOT
ATOM      1  C   UNL     1     -10.526  -5.439  15.987  0.00  0.00    +0.000 C 
ATOM      2  C   UNL     1     -10.719  -6.535  17.100  0.00  0.00    +0.000 C 
ATOM      3  C   UNL     1     -11.160  -5.878  18.655  0.00  0.00    +0.000 C 
ATOM      4  C   UNL     1     -12.029  -4.343  18.573  0.00  0.00    +0.000 C 
ATOM      5  O   UNL     1     -12.200  -4.537  17.244  0.00  0.00    +0.000 OA
ATOM      6  C   UNL     1     -10.838  -4.194  16.708  0.00  0.00    +0.000 C 
ATOM      7  N   UNL     1      -9.632  -3.988  17.913  0.00  0.00    +0.000 N 
ATOM      8  C   UNL     1      -8.432  -4.687  18.396  0.00  0.00    +0.000 A 
ATOM      9  C   UNL     1      -7.470  -5.499  17.776  0.00  0.00    +0.000 A 
ATOM     10  C   UNL     1      -6.539  -6.207  18.579  0.00  0.00    +0.000 A 
ATOM     11  C   UNL     1      -6.574  -6.204  19.970  0.00  0.00    +0.000 A 
ATOM     12  C   UNL     1      -7.402  -5.317  20.637  0.00  0.00    +0.000 A 
ATOM     13  C   UNL     1      -8.217  -4.451  19.888  0.00  0.00    +0.000 A 
ATOM     14  C   UNL     1      -8.910  -3.296  20.224  0.00  0.00    +0.000 A 
ATOM     15  C   UNL     1      -9.063  -2.444  21.351  0.00  0.00    +0.000 A 
ATOM     16  C   UNL     1      -9.534  -1.114  20.970  0.00  0.00    +0.000 A 
ATOM     17  C   UNL     1     -10.462  -1.231  19.881  0.00  0.00    +0.000 A 
ATOM     18  C   UNL     1     -11.151  -0.517  18.783  0.00  0.00    +0.000 A 
ATOM     19  C   UNL     1     -11.115   0.727  18.046  0.00  0.00    +0.000 A 
ATOM     20  C   UNL     1     -10.606   0.781  16.713  0.00  0.00    +0.000 A 
ATOM     21  C   UNL     1      -9.900  -0.260  16.223  0.00  0.00    +0.000 A 
ATOM     22  C   UNL     1     -10.114  -1.440  16.880  0.00  0.00    +0.000 A 
ATOM     23  C   UNL     1     -11.249  -1.634  17.824  0.00  0.00    +0.000 A 
ATOM     24  N   UNL     1     -11.732  -2.842  18.614  0.00  0.00    +0.000 N 
ATOM     25  C   UNL     1     -10.801  -2.525  19.465  0.00  0.00    +0.000 A 
ATOM     26  C   UNL     1      -9.713  -3.278  19.130  0.00  0.00    +0.000 A 
ATOM     27  C   UNL     1      -9.561  -0.330  22.158  0.00  0.00    +0.000 C 
ATOM     28  O   UNL     1      -9.529   0.871  22.378  0.00  0.00    +0.000 OA
ATOM     29  N   UNL     1      -9.577  -1.300  23.180  0.00  0.00    +0.000 N 
ATOM     30  C   UNL     1      -9.389  -2.690  22.762  0.00  0.00    +0.000 C 
ATOM     31  H   UNL     1     -11.350  -5.650  15.274  0.00  0.00    +0.000 HD
ATOM     32  H   UNL     1     -11.687  -7.013  16.891  0.00  0.00    +0.000 HD
ATOM     33  H   UNL     1     -10.377  -5.918  19.413  0.00  0.00    +0.000 HD
ATOM     34  H   UNL     1     -11.906  -6.596  19.026  0.00  0.00    +0.000 HD
ATOM     35  H   UNL     1     -12.928  -4.455  19.192  0.00  0.00    +0.000 HD
ATOM     36  H   UNL     1      -7.453  -5.633  16.699  0.00  0.00    +0.000 HD
ATOM     37  H   UNL     1      -5.810  -6.852  18.092  0.00  0.00    +0.000 HD
ATOM     38  H   UNL     1      -5.932  -6.862  20.553  0.00  0.00    +0.000 HD
ATOM     39  H   UNL     1      -7.404  -5.270  21.723  0.00  0.00    +0.000 HD
ATOM     40  H   UNL     1     -11.866   1.504  18.278  0.00  0.00    +0.000 HD
ATOM     41  H   UNL     1     -10.750   1.666  16.046  0.00  0.00    +0.000 HD
ATOM     42  H   UNL     1      -9.228  -0.184  15.370  0.00  0.00    +0.000 HD
ATOM     43  H   UNL     1      -9.295  -2.155  16.753  0.00  0.00    +0.000 HD
ATOM     44  H   UNL     1     -10.046  -1.035  24.034  0.00  0.00    +0.000 HD
ATOM     45  H   UNL     1      -8.644  -3.214  23.358  0.00  0.00    +0.000 HD
ATOM     46  H   UNL     1     -10.372  -3.182  22.857  0.00  0.00    +0.000 HD
ENDROOT
BRANCH   6  47
ATOM     47  C   UNL     1     -11.657  -3.221  15.688  0.00  0.00    +0.000 C 
ATOM     48  H   UNL     1     -12.529  -3.724  15.181  0.00  0.00    +0.000 HD
ATOM     49  H   UNL     1     -12.025  -2.246  16.003  0.00  0.00    +0.000 HD
ATOM     50  H   UNL     1     -11.071  -3.052  14.782  0.00  0.00    +0.000 HD
ENDBRANCH   6  47
BRANCH   1  51
ATOM     51  O   UNL     1      -9.362  -5.312  15.156  0.00  0.00    +0.000 OA
BRANCH  51  52
ATOM     52  C   UNL     1      -9.688  -4.780  13.887  0.00  0.00    +0.000 C 
ATOM     53  H   UNL     1     -10.615  -4.206  13.865  0.00  0.00    +0.000 HD
ATOM     54  H   UNL     1      -8.859  -4.181  13.474  0.00  0.00    +0.000 HD
ATOM     55  H   UNL     1      -9.798  -5.596  13.129  0.00  0.00    +0.000 HD
ENDBRANCH  51  52
ENDBRANCH   1  51
BRANCH   2  56
ATOM     56  N   UNL     1      -9.737  -7.643  16.891  0.00  0.00    +0.000 N 
BRANCH  56  57
ATOM     57  C   UNL     1      -9.399  -8.514  17.961  0.00  0.00    +0.000 A 
ATOM     58  C   UNL     1      -9.455  -8.123  19.313  0.00  0.00    +0.000 A 
ATOM     59  C   UNL     1      -9.007  -8.933  20.367  0.00  0.00    +0.000 A 
ATOM     60  C   UNL     1      -8.485 -10.187  20.109  0.00  0.00    +0.000 A 
ATOM     61  C   UNL     1      -8.483 -10.652  18.800  0.00  0.00    +0.000 A 
ATOM     62  C   UNL     1      -8.953  -9.837  17.754  0.00  0.00    +0.000 A 
ATOM     63  H   UNL     1      -9.819  -7.149  19.609  0.00  0.00    +0.000 HD
ATOM     64  H   UNL     1      -9.050  -8.558  21.387  0.00  0.00    +0.000 HD
ATOM     65  H   UNL     1      -8.091 -10.796  20.916  0.00  0.00    +0.000 HD
ATOM     66  H   UNL     1      -8.106 -11.649  18.586  0.00  0.00    +0.000 HD
ATOM     67  H   UNL     1      -8.959 -10.285  16.765  0.00  0.00    +0.000 HD
ENDBRANCH  56  57
BRANCH  56  68
ATOM     68  C   UNL     1      -8.858  -7.677  15.740  0.00  0.00    +0.000 C 
ATOM     69  H   UNL     1      -8.238  -8.578  15.737  0.00  0.00    +0.000 HD
ATOM     70  H   UNL     1      -9.404  -7.658  14.797  0.00  0.00    +0.000 HD
ATOM     71  H   UNL     1      -8.185  -6.813  15.749  0.00  0.00    +0.000 HD
ENDBRANCH  56  68
ENDBRANCH   2  56
TORSDOF 6
ENDMDL
MODEL 3
REMARK VINA RESULT:    -8.899      3.518      7.442
REMARK INTER + INTRA:          -9.016
REMARK INTER:                  -9.270
REMARK INTRA:                   0.254
REMARK UNBOUND:                 2.225
REMARK  Name = 
REMARK  6 active torsions:
REMARK  status: ('A' for Active; 'I' for Inactive)
REMARK    1  A    between atoms: C_1  and  O_2
REMARK    2  A    between atoms: O_2  and  C_3
REMARK    3  A    between atoms: C_4  and  N_5
REMARK    4  A    between atoms: N_5  and  C_6
REMARK    5  A    between atoms: N_5  and  C_7
REMARK    6  A    between atoms: C_16  and  C_17
REMARK                            x       y       z     vdW  Elec       q    Type
REMARK                         _______ _______ _______ _____ _____    ______ ____
ROOT
ATOM      1  C   UNL     1     -10.999   0.030  19.678  0.00  0.00    +0.000 C 
ATOM      2  C   UNL     1      -9.607  -0.661  19.428  0.00  0.00    +0.000 C 
ATOM      3  C   UNL     1      -9.157  -0.729  17.743  0.00  0.00    +0.000 C 
ATOM      4  C   UNL     1      -9.847   0.562  16.756  0.00  0.00    +0.000 C 
ATOM      5  O   UNL     1     -10.210   1.204  17.891  0.00  0.00    +0.000 OA
ATOM      6  C   UNL     1     -11.414   0.413  18.319  0.00  0.00    +0.000 C 
ATOM      7  N   UNL     1     -11.661  -1.038  17.434  0.00  0.00    +0.000 N 
ATOM      8  C   UNL     1     -11.570  -2.489  17.658  0.00  0.00    +0.000 A 
ATOM      9  C   UNL     1     -11.765  -3.308  18.779  0.00  0.00    +0.000 A 
ATOM     10  C   UNL     1     -11.384  -4.674  18.715  0.00  0.00    +0.000 A 
ATOM     11  C   UNL     1     -10.747  -5.237  17.614  0.00  0.00    +0.000 A 
ATOM     12  C   UNL     1     -10.656  -4.523  16.431  0.00  0.00    +0.000 A 
ATOM     13  C   UNL     1     -11.188  -3.223  16.376  0.00  0.00    +0.000 A 
ATOM     14  C   UNL     1     -11.511  -2.389  15.315  0.00  0.00    +0.000 A 
ATOM     15  C   UNL     1     -11.544  -2.448  13.895  0.00  0.00    +0.000 A 
ATOM     16  C   UNL     1     -12.429  -1.433  13.327  0.00  0.00    +0.000 A 
ATOM     17  C   UNL     1     -12.342  -0.233  14.111  0.00  0.00    +0.000 A 
ATOM     18  C   UNL     1     -12.986   1.057  14.441  0.00  0.00    +0.000 A 
ATOM     19  C   UNL     1     -14.234   1.771  14.283  0.00  0.00    +0.000 A 
ATOM     20  C   UNL     1     -15.136   1.932  15.378  0.00  0.00    +0.000 A 
ATOM     21  C   UNL     1     -14.972   1.192  16.495  0.00  0.00    +0.000 A 
ATOM     22  C   UNL     1     -13.712   0.684  16.650  0.00  0.00    +0.000 A 
ATOM     23  C   UNL     1     -12.554   1.164  15.848  0.00  0.00    +0.000 A 
ATOM     24  N   UNL     1     -11.073   0.814  15.873  0.00  0.00    +0.000 N 
ATOM     25  C   UNL     1     -11.412  -0.218  15.158  0.00  0.00    +0.000 A 
ATOM     26  C   UNL     1     -11.589  -1.245  16.041  0.00  0.00    +0.000 A 
ATOM     27  C   UNL     1     -12.453  -1.647  11.920  0.00  0.00    +0.000 C 
ATOM     28  O   UNL     1     -13.240  -1.353  11.034  0.00  0.00    +0.000 OA
ATOM     29  N   UNL     1     -11.285  -2.404  11.693  0.00  0.00    +0.000 N 
ATOM     30  C   UNL     1     -10.565  -2.862  12.881  0.00  0.00    +0.000 C 
ATOM     31  H   UNL     1     -10.731   0.951  20.238  0.00  0.00    +0.000 HD
ATOM     32  H   UNL     1      -8.845   0.072  19.727  0.00  0.00    +0.000 HD
ATOM     33  H   UNL     1      -9.202  -1.720  17.292  0.00  0.00    +0.000 HD
ATOM     34  H   UNL     1      -8.079  -0.511  17.765  0.00  0.00    +0.000 HD
ATOM     35  H   UNL     1      -9.017   1.011  16.197  0.00  0.00    +0.000 HD
ATOM     36  H   UNL     1     -12.157  -2.910  19.709  0.00  0.00    +0.000 HD
ATOM     37  H   UNL     1     -11.517  -5.299  19.597  0.00  0.00    +0.000 HD
ATOM     38  H   UNL     1     -10.348  -6.249  17.647  0.00  0.00    +0.000 HD
ATOM     39  H   UNL     1     -10.204  -4.968  15.548  0.00  0.00    +0.000 HD
ATOM     40  H   UNL     1     -14.298   2.568  13.520  0.00  0.00    +0.000 HD
ATOM     41  H   UNL     1     -15.998   2.642  15.353  0.00  0.00    +0.000 HD
ATOM     42  H   UNL     1     -15.761   1.020  17.225  0.00  0.00    +0.000 HD
ATOM     43  H   UNL     1     -13.682  -0.194  17.304  0.00  0.00    +0.000 HD
ATOM     44  H   UNL     1     -10.850  -2.285  10.790  0.00  0.00    +0.000 HD
ATOM     45  H   UNL     1     -10.312  -3.920  12.841  0.00  0.00    +0.000 HD
ATOM     46  H   UNL     1      -9.649  -2.250  12.948  0.00  0.00    +0.000 HD
ENDROOT
BRANCH   6  47
ATOM     47  C   UNL     1     -12.143   1.868  18.413  0.00  0.00    +0.000 C 
ATOM     48  H   UNL     1     -11.901   2.555  17.553  0.00  0.00    +0.000 HD
ATOM     49  H   UNL     1     -13.218   1.958  18.565  0.00  0.00    +0.000 HD
ATOM     50  H   UNL     1     -11.670   2.474  19.188  0.00  0.00    +0.000 HD
ENDBRANCH   6  47
BRANCH   1  51
ATOM     51  O   UNL     1     -12.074  -0.544  20.436  0.00  0.00    +0.000 OA
BRANCH  51  52
ATOM     52  C   UNL     1     -12.563   0.359  21.408  0.00  0.00    +0.000 C 
ATOM     53  H   UNL     1     -13.616   0.222  21.658  0.00  0.00    +0.000 HD
ATOM     54  H   UNL     1     -11.949   0.342  22.323  0.00  0.00    +0.000 HD
ATOM     55  H   UNL     1     -12.452   1.417  21.061  0.00  0.00    +0.000 HD
ENDBRANCH  51  52
ENDBRANCH   1  51
BRANCH   2  56
ATOM     56  N   UNL     1      -9.414  -1.775  20.406  0.00  0.00    +0.000 N 
BRANCH  56  57
ATOM     57  C   UNL     1      -9.459  -1.520  21.802  0.00  0.00    +0.000 A 
ATOM     58  C   UNL     1      -8.590  -0.616  22.444  0.00  0.00    +0.000 A 
ATOM     59  C   UNL     1      -8.543  -0.449  23.836  0.00  0.00    +0.000 A 
ATOM     60  C   UNL     1      -9.382  -1.184  24.653  0.00  0.00    +0.000 A 
ATOM     61  C   UNL     1     -10.315  -2.029  24.065  0.00  0.00    +0.000 A 
ATOM     62  C   UNL     1     -10.363  -2.172  22.667  0.00  0.00    +0.000 A 
ATOM     63  H   UNL     1      -7.877  -0.021  21.890  0.00  0.00    +0.000 HD
ATOM     64  H   UNL     1      -7.826   0.244  24.269  0.00  0.00    +0.000 HD
ATOM     65  H   UNL     1      -9.315  -1.094  25.733  0.00  0.00    +0.000 HD
ATOM     66  H   UNL     1     -11.003  -2.588  24.695  0.00  0.00    +0.000 HD
ATOM     67  H   UNL     1     -11.146  -2.819  22.280  0.00  0.00    +0.000 HD
ENDBRANCH  56  57
BRANCH  56  68
ATOM     68  C   UNL     1      -8.854  -3.051  20.008  0.00  0.00    +0.000 C 
ATOM     69  H   UNL     1      -9.102  -3.837  20.727  0.00  0.00    +0.000 HD
ATOM     70  H   UNL     1      -9.214  -3.379  19.034  0.00  0.00    +0.000 HD
ATOM     71  H   UNL     1      -7.762  -2.986  19.953  0.00  0.00    +0.000 HD
ENDBRANCH  56  68
ENDBRANCH   2  56
TORSDOF 6
ENDMDL
MODEL 4
REMARK VINA RESULT:    -8.739      4.880      9.675
REMARK INTER + INTRA:          -8.813
REMARK INTER:                  -8.884
REMARK INTRA:                   0.071
REMARK UNBOUND:                 2.225
REMARK  Name = 
REMARK  6 active torsions:
REMARK  status: ('A' for Active; 'I' for Inactive)
REMARK    1  A    between atoms: C_1  and  O_2
REMARK    2  A    between atoms: O_2  and  C_3
REMARK    3  A    between atoms: C_4  and  N_5
REMARK    4  A    between atoms: N_5  and  C_6
REMARK    5  A    between atoms: N_5  and  C_7
REMARK    6  A    between atoms: C_16  and  C_17
REMARK                            x       y       z     vdW  Elec       q    Type
REMARK                         _______ _______ _______ _____ _____    ______ ____
ROOT
ATOM      1  C   UNL     1     -12.206   2.874  20.663  0.00  0.00    +0.000 C 
ATOM      2  C   UNL     1     -12.833   1.928  19.573  0.00  0.00    +0.000 C 
ATOM      3  C   UNL     1     -12.599   0.231  19.907  0.00  0.00    +0.000 C 
ATOM      4  C   UNL     1     -12.439  -0.154  21.622  0.00  0.00    +0.000 C 
ATOM      5  O   UNL     1     -12.872   1.093  21.920  0.00  0.00    +0.000 OA
ATOM      6  C   UNL     1     -11.648   1.918  21.634  0.00  0.00    +0.000 C 
ATOM      7  N   UNL     1     -10.387   1.064  20.840  0.00  0.00    +0.000 N 
ATOM      8  C   UNL     1      -9.747   1.031  19.516  0.00  0.00    +0.000 A 
ATOM      9  C   UNL     1      -9.518   2.001  18.529  0.00  0.00    +0.000 A 
ATOM     10  C   UNL     1      -9.056   1.594  17.251  0.00  0.00    +0.000 A 
ATOM     11  C   UNL     1      -8.890   0.261  16.889  0.00  0.00    +0.000 A 
ATOM     12  C   UNL     1      -8.962  -0.729  17.855  0.00  0.00    +0.000 A 
ATOM     13  C   UNL     1      -9.232  -0.366  19.185  0.00  0.00    +0.000 A 
ATOM     14  C   UNL     1      -9.087  -1.044  20.387  0.00  0.00    +0.000 A 
ATOM     15  C   UNL     1      -8.568  -2.285  20.846  0.00  0.00    +0.000 A 
ATOM     16  C   UNL     1      -8.244  -2.249  22.270  0.00  0.00    +0.000 A 
ATOM     17  C   UNL     1      -9.214  -1.444  22.959  0.00  0.00    +0.000 A 
ATOM     18  C   UNL     1      -9.516  -0.692  24.196  0.00  0.00    +0.000 A 
ATOM     19  C   UNL     1      -8.881  -0.167  25.385  0.00  0.00    +0.000 A 
ATOM     20  C   UNL     1      -8.622   1.230  25.529  0.00  0.00    +0.000 A 
ATOM     21  C   UNL     1      -8.713   2.041  24.454  0.00  0.00    +0.000 A 
ATOM     22  C   UNL     1      -9.468   1.536  23.432  0.00  0.00    +0.000 A 
ATOM     23  C   UNL     1     -10.366   0.362  23.609  0.00  0.00    +0.000 A 
ATOM     24  N   UNL     1     -11.336  -0.339  22.669  0.00  0.00    +0.000 N 
ATOM     25  C   UNL     1     -10.284  -0.946  22.205  0.00  0.00    +0.000 A 
ATOM     26  C   UNL     1      -9.879  -0.221  21.120  0.00  0.00    +0.000 A 
ATOM     27  C   UNL     1      -7.654  -3.504  22.592  0.00  0.00    +0.000 C 
ATOM     28  O   UNL     1      -6.913  -3.885  23.484  0.00  0.00    +0.000 OA
ATOM     29  N   UNL     1      -8.079  -4.336  21.535  0.00  0.00    +0.000 N 
ATOM     30  C   UNL     1      -8.777  -3.679  20.430  0.00  0.00    +0.000 C 
ATOM     31  H   UNL     1     -13.092   3.363  21.118  0.00  0.00    +0.000 HD
ATOM     32  H   UNL     1     -13.918   1.938  19.749  0.00  0.00    +0.000 HD
ATOM     33  H   UNL     1     -11.883  -0.274  19.258  0.00  0.00    +0.000 HD
ATOM     34  H   UNL     1     -13.561  -0.215  19.614  0.00  0.00    +0.000 HD
ATOM     35  H   UNL     1     -13.145  -0.968  21.831  0.00  0.00    +0.000 HD
ATOM     36  H   UNL     1      -9.730   3.051  18.707  0.00  0.00    +0.000 HD
ATOM     37  H   UNL     1      -8.902   2.349  16.482  0.00  0.00    +0.000 HD
ATOM     38  H   UNL     1      -8.665  -0.023  15.863  0.00  0.00    +0.000 HD
ATOM     39  H   UNL     1      -8.787  -1.770  17.596  0.00  0.00    +0.000 HD
ATOM     40  H   UNL     1      -9.013  -0.707  26.340  0.00  0.00    +0.000 HD
ATOM     41  H   UNL     1      -8.326   1.693  26.501  0.00  0.00    +0.000 HD
ATOM     42  H   UNL     1      -8.244   3.022  24.399  0.00  0.00    +0.000 HD
ATOM     43  H   UNL     1      -9.230   1.984  22.462  0.00  0.00    +0.000 HD
ATOM     44  H   UNL     1      -8.189  -5.314  21.760  0.00  0.00    +0.000 HD
ATOM     45  H   UNL     1      -8.390  -3.967  19.454  0.00  0.00    +0.000 HD
ATOM     46  H   UNL     1      -9.841  -3.960  20.519  0.00  0.00    +0.000 HD
ENDROOT
BRANCH   6  47
ATOM     47  C   UNL     1     -11.898   2.523  23.126  0.00  0.00    +0.000 C 
ATOM     48  H   UNL     1     -10.948   2.780  23.678  0.00  0.00    +0.000 HD
ATOM     49  H   UNL     1     -12.570   3.363  23.296  0.00  0.00    +0.000 HD
ATOM     50  H   UNL     1     -12.219   1.729  23.803  0.00  0.00    +0.000 HD
ENDBRANCH   6  47
BRANCH   1  51
ATOM     51  O   UNL     1     -11.307   3.958  20.387  0.00  0.00    +0.000 OA
BRANCH  51  52
ATOM     52  C   UNL     1     -11.756   5.166  20.969  0.00  0.00    +0.000 C 
ATOM     53  H   UNL     1     -11.018   5.969  20.964  0.00  0.00    +0.000 HD
ATOM     54  H   UNL     1     -12.698   5.511  20.510  0.00  0.00    +0.000 HD
ATOM     55  H   UNL     1     -12.051   5.008  22.037  0.00  0.00    +0.000 HD
ENDBRANCH  51  52
ENDBRANCH   1  51
BRANCH   2  56
ATOM     56  N   UNL     1     -12.699   2.556  18.223  0.00  0.00    +0.000 N 
BRANCH  56  57
ATOM     57  C   UNL     1     -13.144   3.886  18.003  0.00  0.00    +0.000 A 
ATOM     58  C   UNL     1     -14.414   4.345  18.403  0.00  0.00    +0.000 A 
ATOM     59  C   UNL     1     -14.909   5.618  18.082  0.00  0.00    +0.000 A 
ATOM     60  C   UNL     1     -14.139   6.499  17.345  0.00  0.00    +0.000 A 
ATOM     61  C   UNL     1     -12.848   6.125  16.996  0.00  0.00    +0.000 A 
ATOM     62  C   UNL     1     -12.357   4.853  17.341  0.00  0.00    +0.000 A 
ATOM     63  H   UNL     1     -15.098   3.717  18.956  0.00  0.00    +0.000 HD
ATOM     64  H   UNL     1     -15.912   5.898  18.396  0.00  0.00    +0.000 HD
ATOM     65  H   UNL     1     -14.538   7.466  17.052  0.00  0.00    +0.000 HD
ATOM     66  H   UNL     1     -12.220   6.821  16.445  0.00  0.00    +0.000 HD
ATOM     67  H   UNL     1     -11.325   4.650  17.070  0.00  0.00    +0.000 HD
ENDBRANCH  56  57
BRANCH  56  68
ATOM     68  C   UNL     1     -12.441   1.766  17.036  0.00  0.00    +0.000 C 
ATOM     69  H   UNL     1     -12.029   2.379  16.230  0.00  0.00    +0.000 HD
ATOM     70  H   UNL     1     -11.734   0.958  17.218  0.00  0.00    +0.000 HD
ATOM     71  H   UNL     1     -13.369   1.316  16.669  0.00  0.00    +0.000 HD
ENDBRANCH  56  68
ENDBRANCH   2  56
TORSDOF 6
ENDMDL
MODEL 5
REMARK VINA RESULT:    -8.531      3.921      8.882
REMARK INTER + INTRA:          -8.550
REMARK INTER:                  -8.594
REMARK INTRA:                   0.043
REMARK UNBOUND:                 2.225
REMARK  Name = 
REMARK  6 active torsions:
REMARK  status: ('A' for Active; 'I' for Inactive)
REMARK    1  A    between atoms: C_1  and  O_2
REMARK    2  A    between atoms: O_2  and  C_3
REMARK    3  A    between atoms: C_4  and  N_5
REMARK    4  A    between atoms: N_5  and  C_6
REMARK    5  A    between atoms: N_5  and  C_7
REMARK    6  A    between atoms: C_16  and  C_17
REMARK                            x       y       z     vdW  Elec       q    Type
REMARK                         _______ _______ _______ _____ _____    ______ ____
ROOT
ATOM      1  C   UNL     1     -12.126   1.575  17.264  0.00  0.00    +0.000 C 
ATOM      2  C   UNL     1     -11.344   2.781  17.906  0.00  0.00    +0.000 C 
ATOM      3  C   UNL     1      -9.918   2.297  18.787  0.00  0.00    +0.000 C 
ATOM      4  C   UNL     1      -9.186   0.796  18.212  0.00  0.00    +0.000 C 
ATOM      5  O   UNL     1      -9.965   0.866  17.108  0.00  0.00    +0.000 OA
ATOM      6  C   UNL     1     -11.296   0.419  17.644  0.00  0.00    +0.000 C 
ATOM      7  N   UNL     1     -11.364   0.285  19.354  0.00  0.00    +0.000 N 
ATOM      8  C   UNL     1     -11.993   0.981  20.487  0.00  0.00    +0.000 A 
ATOM      9  C   UNL     1     -13.194   1.690  20.639  0.00  0.00    +0.000 A 
ATOM     10  C   UNL     1     -13.412   2.437  21.826  0.00  0.00    +0.000 A 
ATOM     11  C   UNL     1     -12.458   2.571  22.829  0.00  0.00    +0.000 A 
ATOM     12  C   UNL     1     -11.317   1.785  22.805  0.00  0.00    +0.000 A 
ATOM     13  C   UNL     1     -11.133   0.883  21.743  0.00  0.00    +0.000 A 
ATOM     14  C   UNL     1     -10.289  -0.206  21.578  0.00  0.00    +0.000 A 
ATOM     15  C   UNL     1      -9.344  -0.938  22.346  0.00  0.00    +0.000 A 
ATOM     16  C   UNL     1      -9.124  -2.279  21.810  0.00  0.00    +0.000 A 
ATOM     17  C   UNL     1      -9.177  -2.233  20.375  0.00  0.00    +0.000 A 
ATOM     18  C   UNL     1      -9.334  -3.023  19.134  0.00  0.00    +0.000 A 
ATOM     19  C   UNL     1      -9.735  -4.333  18.671  0.00  0.00    +0.000 A 
ATOM     20  C   UNL     1     -10.996  -4.537  18.033  0.00  0.00    +0.000 A 
ATOM     21  C   UNL     1     -11.942  -3.576  18.098  0.00  0.00    +0.000 A 
ATOM     22  C   UNL     1     -11.457  -2.330  18.385  0.00  0.00    +0.000 A 
ATOM     23  C   UNL     1     -10.007  -2.002  18.309  0.00  0.00    +0.000 A 
ATOM     24  N   UNL     1      -9.236  -0.705  18.511  0.00  0.00    +0.000 N 
ATOM     25  C   UNL     1      -9.326  -0.973  19.781  0.00  0.00    +0.000 A 
ATOM     26  C   UNL     1     -10.425  -0.299  20.231  0.00  0.00    +0.000 A 
ATOM     27  C   UNL     1      -8.238  -2.942  22.704  0.00  0.00    +0.000 C 
ATOM     28  O   UNL     1      -8.001  -4.116  22.943  0.00  0.00    +0.000 OA
ATOM     29  N   UNL     1      -7.635  -1.877  23.404  0.00  0.00    +0.000 N 
ATOM     30  C   UNL     1      -8.184  -0.543  23.158  0.00  0.00    +0.000 C 
ATOM     31  H   UNL     1     -12.013   1.748  16.174  0.00  0.00    +0.000 HD
ATOM     32  H   UNL     1     -10.813   3.274  17.078  0.00  0.00    +0.000 HD
ATOM     33  H   UNL     1      -9.994   2.379  19.871  0.00  0.00    +0.000 HD
ATOM     34  H   UNL     1      -9.187   3.076  18.526  0.00  0.00    +0.000 HD
ATOM     35  H   UNL     1      -8.119   1.002  18.059  0.00  0.00    +0.000 HD
ATOM     36  H   UNL     1     -13.937   1.718  19.849  0.00  0.00    +0.000 HD
ATOM     37  H   UNL     1     -14.336   3.003  21.928  0.00  0.00    +0.000 HD
ATOM     38  H   UNL     1     -12.604   3.257  23.661  0.00  0.00    +0.000 HD
ATOM     39  H   UNL     1     -10.586   1.845  23.607  0.00  0.00    +0.000 HD
ATOM     40  H   UNL     1      -8.952  -5.054  18.373  0.00  0.00    +0.000 HD
ATOM     41  H   UNL     1     -11.252  -5.475  17.485  0.00  0.00    +0.000 HD
ATOM     42  H   UNL     1     -13.001  -3.761  17.924  0.00  0.00    +0.000 HD
ATOM     43  H   UNL     1     -12.214  -1.663  18.810  0.00  0.00    +0.000 HD
ATOM     44  H   UNL     1      -6.693  -2.039  23.730  0.00  0.00    +0.000 HD
ATOM     45  H   UNL     1      -8.386   0.007  24.074  0.00  0.00    +0.000 HD
ATOM     46  H   UNL     1      -7.440  -0.006  22.543  0.00  0.00    +0.000 HD
ENDROOT
BRANCH   6  47
ATOM     47  C   UNL     1     -11.281  -0.616  16.385  0.00  0.00    +0.000 C 
ATOM     48  H   UNL     1     -10.314  -1.185  16.275  0.00  0.00    +0.000 HD
ATOM     49  H   UNL     1     -12.071  -1.352  16.243  0.00  0.00    +0.000 HD
ATOM     50  H   UNL     1     -11.203  -0.063  15.447  0.00  0.00    +0.000 HD
ENDBRANCH   6  47
BRANCH   1  51
ATOM     51  O   UNL     1     -13.528   1.323  17.440  0.00  0.00    +0.000 OA
BRANCH  51  52
ATOM     52  C   UNL     1     -14.168   1.072  16.204  0.00  0.00    +0.000 C 
ATOM     53  H   UNL     1     -13.898   1.769  15.410  0.00  0.00    +0.000 HD
ATOM     54  H   UNL     1     -14.011   0.034  15.869  0.00  0.00    +0.000 HD
ATOM     55  H   UNL     1     -15.280   1.126  16.314  0.00  0.00    +0.000 HD
ENDBRANCH  51  52
ENDBRANCH   1  51
BRANCH   2  56
ATOM     56  N   UNL     1     -12.312   3.825  18.361  0.00  0.00    +0.000 N 
BRANCH  56  57
ATOM     57  C   UNL     1     -13.347   4.271  17.497  0.00  0.00    +0.000 A 
ATOM     58  C   UNL     1     -14.697   4.344  17.892  0.00  0.00    +0.000 A 
ATOM     59  C   UNL     1     -15.740   4.664  17.011  0.00  0.00    +0.000 A 
ATOM     60  C   UNL     1     -15.471   4.937  15.682  0.00  0.00    +0.000 A 
ATOM     61  C   UNL     1     -14.147   4.959  15.261  0.00  0.00    +0.000 A 
ATOM     62  C   UNL     1     -13.109   4.655  16.160  0.00  0.00    +0.000 A 
ATOM     63  H   UNL     1     -15.007   4.117  18.902  0.00  0.00    +0.000 HD
ATOM     64  H   UNL     1     -16.765   4.672  17.374  0.00  0.00    +0.000 HD
ATOM     65  H   UNL     1     -16.280   5.137  14.986  0.00  0.00    +0.000 HD
ATOM     66  H   UNL     1     -13.919   5.205  14.227  0.00  0.00    +0.000 HD
ATOM     67  H   UNL     1     -12.099   4.734  15.767  0.00  0.00    +0.000 HD
ENDBRANCH  56  57
BRANCH  56  68
ATOM     68  C   UNL     1     -12.053   4.650  19.524  0.00  0.00    +0.000 C 
ATOM     69  H   UNL     1     -12.462   4.198  20.432  0.00  0.00    +0.000 HD
ATOM     70  H   UNL     1     -10.990   4.810  19.694  0.00  0.00    +0.000 HD
ATOM     71  H   UNL     1     -12.521   5.633  19.405  0.00  0.00    +0.000 HD
ENDBRANCH  56  68
ENDBRANCH   2  56
TORSDOF 6
ENDMDL
MODEL 6
REMARK VINA RESULT:    -8.415      3.340     10.018
REMARK INTER + INTRA:          -8.404
REMARK INTER:                  -8.445
REMARK INTRA:                   0.041
REMARK UNBOUND:                 2.225
REMARK  Name = 
REMARK  6 active torsions:
REMARK  status: ('A' for Active; 'I' for Inactive)
REMARK    1  A    between atoms: C_1  and  O_2
REMARK    2  A    between atoms: O_2  and  C_3
REMARK    3  A    between atoms: C_4  and  N_5
REMARK    4  A    between atoms: N_5  and  C_6
REMARK    5  A    between atoms: N_5  and  C_7
REMARK    6  A    between atoms: C_16  and  C_17
REMARK                            x       y       z     vdW  Elec       q    Type
REMARK                         _______ _______ _______ _____ _____    ______ ____
ROOT
ATOM      1  C   UNL     1     -10.653   1.604  23.146  0.00  0.00    +0.000 C 
ATOM      2  C   UNL     1     -12.112   1.670  22.559  0.00  0.00    +0.000 C 
ATOM      3  C   UNL     1     -12.619   0.191  21.787  0.00  0.00    +0.000 C 
ATOM      4  C   UNL     1     -11.839  -1.262  22.419  0.00  0.00    +0.000 C 
ATOM      5  O   UNL     1     -11.380  -0.533  23.463  0.00  0.00    +0.000 OA
ATOM      6  C   UNL     1     -10.245   0.224  22.832  0.00  0.00    +0.000 C 
ATOM      7  N   UNL     1     -10.168   0.093  21.122  0.00  0.00    +0.000 N 
ATOM      8  C   UNL     1     -10.392   0.945  19.943  0.00  0.00    +0.000 A 
ATOM      9  C   UNL     1     -10.242   2.318  19.701  0.00  0.00    +0.000 A 
ATOM     10  C   UNL     1     -10.755   2.870  18.499  0.00  0.00    +0.000 A 
ATOM     11  C   UNL     1     -11.477   2.131  17.568  0.00  0.00    +0.000 A 
ATOM     12  C   UNL     1     -11.536   0.752  17.679  0.00  0.00    +0.000 A 
ATOM     13  C   UNL     1     -10.883   0.125  18.754  0.00  0.00    +0.000 A 
ATOM     14  C   UNL     1     -10.515  -1.193  18.984  0.00  0.00    +0.000 A 
ATOM     15  C   UNL     1     -10.532  -2.433  18.290  0.00  0.00    +0.000 A 
ATOM     16  C   UNL     1      -9.572  -3.383  18.846  0.00  0.00    +0.000 A 
ATOM     17  C   UNL     1      -9.518  -3.226  20.273  0.00  0.00    +0.000 A 
ATOM     18  C   UNL     1      -8.741  -3.502  21.502  0.00  0.00    +0.000 A 
ATOM     19  C   UNL     1      -7.436  -3.946  21.939  0.00  0.00    +0.000 A 
ATOM     20  C   UNL     1      -6.488  -3.027  22.484  0.00  0.00    +0.000 A 
ATOM     21  C   UNL     1      -6.688  -1.699  22.346  0.00  0.00    +0.000 A 
ATOM     22  C   UNL     1      -7.986  -1.351  22.091  0.00  0.00    +0.000 A 
ATOM     23  C   UNL     1      -9.117  -2.302  22.272  0.00  0.00    +0.000 A 
ATOM     24  N   UNL     1     -10.623  -2.145  22.122  0.00  0.00    +0.000 N 
ATOM     25  C   UNL     1     -10.408  -2.312  20.851  0.00  0.00    +0.000 A 
ATOM     26  C   UNL     1     -10.304  -1.059  20.318  0.00  0.00    +0.000 A 
ATOM     27  C   UNL     1      -9.613  -4.543  18.022  0.00  0.00    +0.000 C 
ATOM     28  O   UNL     1      -8.829  -5.453  17.805  0.00  0.00    +0.000 OA
ATOM     29  N   UNL     1     -10.855  -4.422  17.365  0.00  0.00    +0.000 N 
ATOM     30  C   UNL     1     -11.579  -3.166  17.565  0.00  0.00    +0.000 C 
ATOM     31  H   UNL     1     -10.813   1.685  24.241  0.00  0.00    +0.000 HD
ATOM     32  H   UNL     1     -12.790   1.596  23.421  0.00  0.00    +0.000 HD
ATOM     33  H   UNL     1     -12.685   0.235  20.699  0.00  0.00    +0.000 HD
ATOM     34  H   UNL     1     -13.670   0.095  22.098  0.00  0.00    +0.000 HD
ATOM     35  H   UNL     1     -12.639  -1.976  22.650  0.00  0.00    +0.000 HD
ATOM     36  H   UNL     1      -9.784   2.974  20.434  0.00  0.00    +0.000 HD
ATOM     37  H   UNL     1     -10.655   3.941  18.328  0.00  0.00    +0.000 HD
ATOM     38  H   UNL     1     -11.971   2.611  16.725  0.00  0.00    +0.000 HD
ATOM     39  H   UNL     1     -12.057   0.157  16.932  0.00  0.00    +0.000 HD
ATOM     40  H   UNL     1      -7.320  -4.985  22.296  0.00  0.00    +0.000 HD
ATOM     41  H   UNL     1      -5.563  -3.356  23.015  0.00  0.00    +0.000 HD
ATOM     42  H   UNL     1      -5.897  -0.957  22.442  0.00  0.00    +0.000 HD
ATOM     43  H   UNL     1      -8.080  -0.372  21.609  0.00  0.00    +0.000 HD
ATOM     44  H   UNL     1     -11.305  -5.289  17.109  0.00  0.00    +0.000 HD
ATOM     45  H   UNL     1     -11.934  -2.730  16.634  0.00  0.00    +0.000 HD
ATOM     46  H   UNL     1     -12.428  -3.396  18.230  0.00  0.00    +0.000 HD
ENDROOT
BRANCH   6  47
ATOM     47  C   UNL     1      -9.376  -0.335  24.093  0.00  0.00    +0.000 C 
ATOM     48  H   UNL     1      -9.178  -1.444  24.052  0.00  0.00    +0.000 HD
ATOM     49  H   UNL     1      -8.430   0.120  24.379  0.00  0.00    +0.000 HD
ATOM     50  H   UNL     1      -9.993  -0.356  24.993  0.00  0.00    +0.000 HD
ENDBRANCH   6  47
BRANCH   1  51
ATOM     51  O   UNL     1      -9.615   2.556  22.869  0.00  0.00    +0.000 OA
BRANCH  51  52
ATOM     52  C   UNL     1      -9.054   3.073  24.059  0.00  0.00    +0.000 C 
ATOM     53  H   UNL     1      -7.964   3.035  24.095  0.00  0.00    +0.000 HD
ATOM     54  H   UNL     1      -9.407   4.098  24.262  0.00  0.00    +0.000 HD
ATOM     55  H   UNL     1      -9.424   2.508  24.952  0.00  0.00    +0.000 HD
ENDBRANCH  51  52
ENDBRANCH   1  51
BRANCH   2  56
ATOM     56  N   UNL     1     -12.381   3.043  22.030  0.00  0.00    +0.000 N 
BRANCH  56  57
ATOM     57  C   UNL     1     -12.191   4.181  22.857  0.00  0.00    +0.000 A 
ATOM     58  C   UNL     1     -11.495   5.330  22.432  0.00  0.00    +0.000 A 
ATOM     59  C   UNL     1     -11.196   6.407  23.280  0.00  0.00    +0.000 A 
ATOM     60  C   UNL     1     -11.595   6.382  24.604  0.00  0.00    +0.000 A 
ATOM     61  C   UNL     1     -12.356   5.309  25.051  0.00  0.00    +0.000 A 
ATOM     62  C   UNL     1     -12.664   4.245  24.185  0.00  0.00    +0.000 A 
ATOM     63  H   UNL     1     -11.117   5.426  21.424  0.00  0.00    +0.000 HD
ATOM     64  H   UNL     1     -10.628   7.250  22.895  0.00  0.00    +0.000 HD
ATOM     65  H   UNL     1     -11.323   7.191  25.275  0.00  0.00    +0.000 HD
ATOM     66  H   UNL     1     -12.705   5.293  26.081  0.00  0.00    +0.000 HD
ATOM     67  H   UNL     1     -13.297   3.463  24.596  0.00  0.00    +0.000 HD
ENDBRANCH  56  57
BRANCH  56  68
ATOM     68  C   UNL     1     -13.143   3.256  20.817  0.00  0.00    +0.000 C 
ATOM     69  H   UNL     1     -14.100   3.742  21.027  0.00  0.00    +0.000 HD
ATOM     70  H   UNL     1     -12.616   3.880  20.097  0.00  0.00    +0.000 HD
ATOM     71  H   UNL     1     -13.359   2.299  20.330  0.00  0.00    +0.000 HD
ENDBRANCH  56  68
ENDBRANCH   2  56
TORSDOF 6
ENDMDL
MODEL 7
REMARK VINA RESULT:    -8.188      3.403      9.452
REMARK INTER + INTRA:          -8.117
REMARK INTER:                  -8.570
REMARK INTRA:                   0.453
REMARK UNBOUND:                 2.225
REMARK  Name = 
REMARK  6 active torsions:
REMARK  status: ('A' for Active; 'I' for Inactive)
REMARK    1  A    between atoms: C_1  and  O_2
REMARK    2  A    between atoms: O_2  and  C_3
REMARK    3  A    between atoms: C_4  and  N_5
REMARK    4  A    between atoms: N_5  and  C_6
REMARK    5  A    between atoms: N_5  and  C_7
REMARK    6  A    between atoms: C_16  and  C_17
REMARK                            x       y       z     vdW  Elec       q    Type
REMARK                         _______ _______ _______ _____ _____    ______ ____
ROOT
ATOM      1  C   UNL     1     -10.511   1.771  23.166  0.00  0.00    +0.000 C 
ATOM      2  C   UNL     1     -11.954   1.922  22.554  0.00  0.00    +0.000 C 
ATOM      3  C   UNL     1     -12.531   0.474  21.769  0.00  0.00    +0.000 C 
ATOM      4  C   UNL     1     -11.846  -1.021  22.411  0.00  0.00    +0.000 C 
ATOM      5  O   UNL     1     -11.365  -0.321  23.465  0.00  0.00    +0.000 OA
ATOM      6  C   UNL     1     -10.178   0.370  22.856  0.00  0.00    +0.000 C 
ATOM      7  N   UNL     1     -10.078   0.238  21.147  0.00  0.00    +0.000 N 
ATOM      8  C   UNL     1     -10.232   1.103  19.967  0.00  0.00    +0.000 A 
ATOM      9  C   UNL     1     -10.000   2.466  19.731  0.00  0.00    +0.000 A 
ATOM     10  C   UNL     1     -10.459   3.048  18.522  0.00  0.00    +0.000 A 
ATOM     11  C   UNL     1     -11.206   2.353  17.576  0.00  0.00    +0.000 A 
ATOM     12  C   UNL     1     -11.346   0.979  17.682  0.00  0.00    +0.000 A 
ATOM     13  C   UNL     1     -10.748   0.315  18.767  0.00  0.00    +0.000 A 
ATOM     14  C   UNL     1     -10.461  -1.022  19.000  0.00  0.00    +0.000 A 
ATOM     15  C   UNL     1     -10.536  -2.258  18.303  0.00  0.00    +0.000 A 
ATOM     16  C   UNL     1      -9.642  -3.263  18.873  0.00  0.00    +0.000 A 
ATOM     17  C   UNL     1      -9.604  -3.112  20.301  0.00  0.00    +0.000 A 
ATOM     18  C   UNL     1      -8.867  -3.434  21.542  0.00  0.00    +0.000 A 
ATOM     19  C   UNL     1      -7.597  -3.952  22.001  0.00  0.00    +0.000 A 
ATOM     20  C   UNL     1      -6.608  -3.090  22.565  0.00  0.00    +0.000 A 
ATOM     21  C   UNL     1      -6.729  -1.753  22.427  0.00  0.00    +0.000 A 
ATOM     22  C   UNL     1      -8.000  -1.330  22.150  0.00  0.00    +0.000 A 
ATOM     23  C   UNL     1      -9.187  -2.215  22.309  0.00  0.00    +0.000 A 
ATOM     24  N   UNL     1     -10.679  -1.972  22.133  0.00  0.00    +0.000 N 
ATOM     25  C   UNL     1     -10.451  -2.150  20.865  0.00  0.00    +0.000 A 
ATOM     26  C   UNL     1     -10.266  -0.903  20.338  0.00  0.00    +0.000 A 
ATOM     27  C   UNL     1      -9.735  -4.417  18.045  0.00  0.00    +0.000 C 
ATOM     28  O   UNL     1      -9.001  -5.370  17.839  0.00  0.00    +0.000 OA
ATOM     29  N   UNL     1     -10.956  -4.225  17.366  0.00  0.00    +0.000 N 
ATOM     30  C   UNL     1     -11.610  -2.930  17.557  0.00  0.00    +0.000 C 
ATOM     31  H   UNL     1     -10.686   1.859  24.259  0.00  0.00    +0.000 HD
ATOM     32  H   UNL     1     -12.650   1.884  23.404  0.00  0.00    +0.000 HD
ATOM     33  H   UNL     1     -12.575   0.524  20.681  0.00  0.00    +0.000 HD
ATOM     34  H   UNL     1     -13.591   0.438  22.062  0.00  0.00    +0.000 HD
ATOM     35  H   UNL     1     -12.690  -1.689  22.626  0.00  0.00    +0.000 HD
ATOM     36  H   UNL     1      -9.518   3.094  20.474  0.00  0.00    +0.000 HD
ATOM     37  H   UNL     1     -10.295   4.111  18.355  0.00  0.00    +0.000 HD
ATOM     38  H   UNL     1     -11.657   2.862  16.726  0.00  0.00    +0.000 HD
ATOM     39  H   UNL     1     -11.886   0.417  16.925  0.00  0.00    +0.000 HD
ATOM     40  H   UNL     1      -7.546  -4.997  22.357  0.00  0.00    +0.000 HD
ATOM     41  H   UNL     1      -5.712  -3.472  23.111  0.00  0.00    +0.000 HD
ATOM     42  H   UNL     1      -5.898  -1.058  22.539  0.00  0.00    +0.000 HD
ATOM     43  H   UNL     1      -8.029  -0.347  21.670  0.00  0.00    +0.000 HD
ATOM     44  H   UNL     1     -11.451  -5.063  17.100  0.00  0.00    +0.000 HD
ATOM     45  H   UNL     1     -11.923  -2.472  16.621  0.00  0.00    +0.000 HD
ATOM     46  H   UNL     1     -12.483  -3.112  18.207  0.00  0.00    +0.000 HD
ENDROOT
BRANCH   6  47
ATOM     47  C   UNL     1      -9.365  -0.240  24.130  0.00  0.00    +0.000 C 
ATOM     48  H   UNL     1     -10.025  -0.744  24.892  0.00  0.00    +0.000 HD
ATOM     49  H   UNL     1      -8.513  -0.905  23.997  0.00  0.00    +0.000 HD
ATOM     50  H   UNL     1      -9.026   0.569  24.780  0.00  0.00    +0.000 HD
ENDBRANCH   6  47
BRANCH   1  51
ATOM     51  O   UNL     1      -9.416   2.663  22.910  0.00  0.00    +0.000 OA
BRANCH  51  52
ATOM     52  C   UNL     1      -8.738   3.007  24.102  0.00  0.00    +0.000 C 
ATOM     53  H   UNL     1      -7.833   2.426  24.287  0.00  0.00    +0.000 HD
ATOM     54  H   UNL     1      -8.514   4.085  24.144  0.00  0.00    +0.000 HD
ATOM     55  H   UNL     1      -9.400   2.862  24.993  0.00  0.00    +0.000 HD
ENDBRANCH  51  52
ENDBRANCH   1  51
BRANCH   2  56
ATOM     56  N   UNL     1     -12.134   3.308  22.024  0.00  0.00    +0.000 N 
BRANCH  56  57
ATOM     57  C   UNL     1     -12.964   3.543  20.896  0.00  0.00    +0.000 A 
ATOM     58  C   UNL     1     -13.737   2.533  20.290  0.00  0.00    +0.000 A 
ATOM     59  C   UNL     1     -14.462   2.725  19.105  0.00  0.00    +0.000 A 
ATOM     60  C   UNL     1     -14.451   3.956  18.474  0.00  0.00    +0.000 A 
ATOM     61  C   UNL     1     -13.771   5.008  19.075  0.00  0.00    +0.000 A 
ATOM     62  C   UNL     1     -13.064   4.806  20.274  0.00  0.00    +0.000 A 
ATOM     63  H   UNL     1     -13.782   1.531  20.694  0.00  0.00    +0.000 HD
ATOM     64  H   UNL     1     -15.013   1.894  18.672  0.00  0.00    +0.000 HD
ATOM     65  H   UNL     1     -14.970   4.095  17.531  0.00  0.00    +0.000 HD
ATOM     66  H   UNL     1     -13.782   5.989  18.608  0.00  0.00    +0.000 HD
ATOM     67  H   UNL     1     -12.593   5.684  20.704  0.00  0.00    +0.000 HD
ENDBRANCH  56  57
BRANCH  56  68
ATOM     68  C   UNL     1     -11.244   4.388  22.397  0.00  0.00    +0.000 C 
ATOM     69  H   UNL     1     -10.279   4.008  22.744  0.00  0.00    +0.000 HD
ATOM     70  H   UNL     1     -11.043   5.068  21.570  0.00  0.00    +0.000 HD
ATOM     71  H   UNL     1     -11.680   4.977  23.211  0.00  0.00    +0.000 HD
ENDBRANCH  56  68
ENDBRANCH   2  56
TORSDOF 6
ENDMDL
MODEL 8
REMARK VINA RESULT:    -8.155      6.287     10.269
REMARK INTER + INTRA:          -8.076
REMARK INTER:                  -8.176
REMARK INTRA:                   0.100
REMARK UNBOUND:                 2.225
REMARK  Name = 
REMARK  6 active torsions:
REMARK  status: ('A' for Active; 'I' for Inactive)
REMARK    1  A    between atoms: C_1  and  O_2
REMARK    2  A    between atoms: O_2  and  C_3
REMARK    3  A    between atoms: C_4  and  N_5
REMARK    4  A    between atoms: N_5  and  C_6
REMARK    5  A    between atoms: N_5  and  C_7
REMARK    6  A    between atoms: C_16  and  C_17
REMARK                            x       y       z     vdW  Elec       q    Type
REMARK                         _______ _______ _______ _____ _____    ______ ____
ROOT
ATOM      1  C   UNL     1     -11.670   4.471  20.044  0.00  0.00    +0.000 C 
ATOM      2  C   UNL     1     -12.875   3.522  19.688  0.00  0.00    +0.000 C 
ATOM      3  C   UNL     1     -13.195   2.315  20.907  0.00  0.00    +0.000 C 
ATOM      4  C   UNL     1     -12.719   2.791  22.539  0.00  0.00    +0.000 C 
ATOM      5  O   UNL     1     -12.565   4.061  22.100  0.00  0.00    +0.000 OA
ATOM      6  C   UNL     1     -11.256   3.976  21.368  0.00  0.00    +0.000 C 
ATOM      7  N   UNL     1     -10.666   2.378  21.152  0.00  0.00    +0.000 N 
ATOM      8  C   UNL     1     -10.476   1.416  20.055  0.00  0.00    +0.000 A 
ATOM      9  C   UNL     1     -10.190   1.553  18.689  0.00  0.00    +0.000 A 
ATOM     10  C   UNL     1     -10.283   0.416  17.845  0.00  0.00    +0.000 A 
ATOM     11  C   UNL     1     -10.722  -0.829  18.286  0.00  0.00    +0.000 A 
ATOM     12  C   UNL     1     -10.880  -1.062  19.641  0.00  0.00    +0.000 A 
ATOM     13  C   UNL     1     -10.619  -0.020  20.548  0.00  0.00    +0.000 A 
ATOM     14  C   UNL     1     -10.406  -0.006  21.919  0.00  0.00    +0.000 A 
ATOM     15  C   UNL     1     -10.271  -0.944  22.979  0.00  0.00    +0.000 A 
ATOM     16  C   UNL     1      -9.576  -0.372  24.130  0.00  0.00    +0.000 A 
ATOM     17  C   UNL     1      -9.953   1.006  24.277  0.00  0.00    +0.000 A 
ATOM     18  C   UNL     1      -9.605   2.307  24.890  0.00  0.00    +0.000 A 
ATOM     19  C   UNL     1      -8.519   2.985  25.564  0.00  0.00    +0.000 A 
ATOM     20  C   UNL     1      -7.739   3.976  24.895  0.00  0.00    +0.000 A 
ATOM     21  C   UNL     1      -7.821   4.099  23.553  0.00  0.00    +0.000 A 
ATOM     22  C   UNL     1      -8.960   3.570  23.010  0.00  0.00    +0.000 A 
ATOM     23  C   UNL     1     -10.138   3.194  23.838  0.00  0.00    +0.000 A 
ATOM     24  N   UNL     1     -11.516   2.658  23.478  0.00  0.00    +0.000 N 
ATOM     25  C   UNL     1     -10.931   1.499  23.404  0.00  0.00    +0.000 A 
ATOM     26  C   UNL     1     -10.606   1.325  22.089  0.00  0.00    +0.000 A 
ATOM     27  C   UNL     1      -9.421  -1.419  25.081  0.00  0.00    +0.000 C 
ATOM     28  O   UNL     1      -8.654  -1.607  26.013  0.00  0.00    +0.000 OA
ATOM     29  N   UNL     1     -10.394  -2.358  24.683  0.00  0.00    +0.000 N 
ATOM     30  C   UNL     1     -11.081  -2.088  23.419  0.00  0.00    +0.000 C 
ATOM     31  H   UNL     1     -12.154   5.461  20.173  0.00  0.00    +0.000 HD
ATOM     32  H   UNL     1     -13.787   4.112  19.859  0.00  0.00    +0.000 HD
ATOM     33  H   UNL     1     -12.922   1.296  20.632  0.00  0.00    +0.000 HD
ATOM     34  H   UNL     1     -14.294   2.281  20.941  0.00  0.00    +0.000 HD
ATOM     35  H   UNL     1     -13.585   2.609  23.187  0.00  0.00    +0.000 HD
ATOM     36  H   UNL     1      -9.946   2.517  18.256  0.00  0.00    +0.000 HD
ATOM     37  H   UNL     1     -10.082   0.534  16.781  0.00  0.00    +0.000 HD
ATOM     38  H   UNL     1     -10.910  -1.642  17.588  0.00  0.00    +0.000 HD
ATOM     39  H   UNL     1     -11.176  -2.043  20.004  0.00  0.00    +0.000 HD
ATOM     40  H   UNL     1      -8.570   3.110  26.661  0.00  0.00    +0.000 HD
ATOM     41  H   UNL     1      -7.039   4.660  25.433  0.00  0.00    +0.000 HD
ATOM     42  H   UNL     1      -7.061   4.588  22.945  0.00  0.00    +0.000 HD
ATOM     43  H   UNL     1      -8.853   3.323  21.949  0.00  0.00    +0.000 HD
ATOM     44  H   UNL     1     -10.787  -2.926  25.419  0.00  0.00    +0.000 HD
ATOM     45  H   UNL     1     -11.112  -2.954  22.762  0.00  0.00    +0.000 HD
ATOM     46  H   UNL     1     -12.104  -1.767  23.680  0.00  0.00    +0.000 HD
ENDROOT
BRANCH   6  47
ATOM     47  C   UNL     1     -10.844   5.267  22.273  0.00  0.00    +0.000 C 
ATOM     48  H   UNL     1     -11.245   5.232  23.326  0.00  0.00    +0.000 HD
ATOM     49  H   UNL     1      -9.808   5.590  22.367  0.00  0.00    +0.000 HD
ATOM     50  H   UNL     1     -11.412   6.143  21.956  0.00  0.00    +0.000 HD
ENDBRANCH   6  47
BRANCH   1  51
ATOM     51  O   UNL     1     -10.552   4.732  19.184  0.00  0.00    +0.000 OA
BRANCH  51  52
ATOM     52  C   UNL     1     -10.391   6.116  18.949  0.00  0.00    +0.000 C 
ATOM     53  H   UNL     1     -11.327   6.662  18.822  0.00  0.00    +0.000 HD
ATOM     54  H   UNL     1      -9.776   6.592  19.731  0.00  0.00    +0.000 HD
ATOM     55  H   UNL     1      -9.788   6.296  18.023  0.00  0.00    +0.000 HD
ENDBRANCH  51  52
ENDBRANCH   1  51
BRANCH   2  56
ATOM     56  N   UNL     1     -12.900   3.271  18.214  0.00  0.00    +0.000 N 
BRANCH  56  57
ATOM     57  C   UNL     1     -12.960   4.358  17.302  0.00  0.00    +0.000 A 
ATOM     58  C   UNL     1     -13.848   5.440  17.457  0.00  0.00    +0.000 A 
ATOM     59  C   UNL     1     -14.001   6.454  16.500  0.00  0.00    +0.000 A 
ATOM     60  C   UNL     1     -13.256   6.430  15.335  0.00  0.00    +0.000 A 
ATOM     61  C   UNL     1     -12.307   5.429  15.171  0.00  0.00    +0.000 A 
ATOM     62  C   UNL     1     -12.151   4.429  16.148  0.00  0.00    +0.000 A 
ATOM     63  H   UNL     1     -14.493   5.528  18.320  0.00  0.00    +0.000 HD
ATOM     64  H   UNL     1     -14.727   7.245  16.668  0.00  0.00    +0.000 HD
ATOM     65  H   UNL     1     -13.407   7.185  14.570  0.00  0.00    +0.000 HD
ATOM     66  H   UNL     1     -11.691   5.417  14.275  0.00  0.00    +0.000 HD
ATOM     67  H   UNL     1     -11.361   3.705  15.968  0.00  0.00    +0.000 HD
ENDBRANCH  56  57
BRANCH  56  68
ATOM     68  C   UNL     1     -13.201   1.963  17.668  0.00  0.00    +0.000 C 
ATOM     69  H   UNL     1     -13.776   1.359  18.375  0.00  0.00    +0.000 HD
ATOM     70  H   UNL     1     -13.778   2.017  16.747  0.00  0.00    +0.000 HD
ATOM     71  H   UNL     1     -12.275   1.421  17.447  0.00  0.00    +0.000 HD
ENDBRANCH  56  68
ENDBRANCH   2  56
TORSDOF 6
ENDMDL
MODEL 9
REMARK VINA RESULT:    -8.045      4.596      7.636
REMARK INTER + INTRA:          -7.937
REMARK INTER:                  -7.982
REMARK INTRA:                   0.045
REMARK UNBOUND:                 2.225
REMARK  Name = 
REMARK  6 active torsions:
REMARK  status: ('A' for Active; 'I' for Inactive)
REMARK    1  A    between atoms: C_1  and  O_2
REMARK    2  A    between atoms: O_2  and  C_3
REMARK    3  A    between atoms: C_4  and  N_5
REMARK    4  A    between atoms: N_5  and  C_6
REMARK    5  A    between atoms: N_5  and  C_7
REMARK    6  A    between atoms: C_16  and  C_17
REMARK                            x       y       z     vdW  Elec       q    Type
REMARK                         _______ _______ _______ _____ _____    ______ ____
ROOT
ATOM      1  C   UNL     1     -11.015  -1.043  15.916  0.00  0.00    +0.000 C 
ATOM      2  C   UNL     1     -10.857   0.285  15.086  0.00  0.00    +0.000 C 
ATOM      3  C   UNL     1     -10.494   1.681  16.067  0.00  0.00    +0.000 C 
ATOM      4  C   UNL     1      -9.644   1.310  17.569  0.00  0.00    +0.000 C 
ATOM      5  O   UNL     1      -9.412   0.061  17.103  0.00  0.00    +0.000 OA
ATOM      6  C   UNL     1     -10.752  -0.591  17.293  0.00  0.00    +0.000 C 
ATOM      7  N   UNL     1     -12.014   0.492  17.722  0.00  0.00    +0.000 N 
ATOM      8  C   UNL     1     -13.225   1.065  17.113  0.00  0.00    +0.000 A 
ATOM      9  C   UNL     1     -14.146   0.593  16.166  0.00  0.00    +0.000 A 
ATOM     10  C   UNL     1     -15.102   1.489  15.623  0.00  0.00    +0.000 A 
ATOM     11  C   UNL     1     -15.130   2.848  15.921  0.00  0.00    +0.000 A 
ATOM     12  C   UNL     1     -14.345   3.344  16.949  0.00  0.00    +0.000 A 
ATOM     13  C   UNL     1     -13.509   2.462  17.655  0.00  0.00    +0.000 A 
ATOM     14  C   UNL     1     -12.848   2.572  18.871  0.00  0.00    +0.000 A 
ATOM     15  C   UNL     1     -12.758   3.497  19.946  0.00  0.00    +0.000 A 
ATOM     16  C   UNL     1     -12.289   2.862  21.175  0.00  0.00    +0.000 A 
ATOM     17  C   UNL     1     -11.312   1.861  20.851  0.00  0.00    +0.000 A 
ATOM     18  C   UNL     1     -10.585   0.666  21.332  0.00  0.00    +0.000 A 
ATOM     19  C   UNL     1     -10.604  -0.320  22.390  0.00  0.00    +0.000 A 
ATOM     20  C   UNL     1     -11.054  -1.654  22.149  0.00  0.00    +0.000 A 
ATOM     21  C   UNL     1     -11.723  -1.939  21.012  0.00  0.00    +0.000 A 
ATOM     22  C   UNL     1     -11.522  -1.038  20.003  0.00  0.00    +0.000 A 
ATOM     23  C   UNL     1     -10.428  -0.029  20.040  0.00  0.00    +0.000 A 
ATOM     24  N   UNL     1      -9.964   1.019  19.038  0.00  0.00    +0.000 N 
ATOM     25  C   UNL     1     -10.936   1.745  19.507  0.00  0.00    +0.000 A 
ATOM     26  C   UNL     1     -11.998   1.533  18.674  0.00  0.00    +0.000 A 
ATOM     27  C   UNL     1     -12.326   3.856  22.194  0.00  0.00    +0.000 C 
ATOM     28  O   UNL     1     -12.384   3.814  23.412  0.00  0.00    +0.000 OA
ATOM     29  N   UNL     1     -12.342   5.061  21.463  0.00  0.00    +0.000 N 
ATOM     30  C   UNL     1     -12.492   4.941  20.012  0.00  0.00    +0.000 C 
ATOM     31  H   UNL     1     -10.157  -1.660  15.578  0.00  0.00    +0.000 HD
ATOM     32  H   UNL     1      -9.874   0.223  14.597  0.00  0.00    +0.000 HD
ATOM     33  H   UNL     1     -11.310   2.398  16.171  0.00  0.00    +0.000 HD
ATOM     34  H   UNL     1      -9.756   2.227  15.461  0.00  0.00    +0.000 HD
ATOM     35  H   UNL     1      -8.772   1.975  17.612  0.00  0.00    +0.000 HD
ATOM     36  H   UNL     1     -14.113  -0.431  15.807  0.00  0.00    +0.000 HD
ATOM     37  H   UNL     1     -15.800   1.122  14.872  0.00  0.00    +0.000 HD
ATOM     38  H   UNL     1     -15.787   3.531  15.387  0.00  0.00    +0.000 HD
ATOM     39  H   UNL     1     -14.391   4.394  17.224  0.00  0.00    +0.000 HD
ATOM     40  H   UNL     1      -9.875  -0.228  23.216  0.00  0.00    +0.000 HD
ATOM     41  H   UNL     1     -10.893  -2.487  22.875  0.00  0.00    +0.000 HD
ATOM     42  H   UNL     1     -12.357  -2.815  20.889  0.00  0.00    +0.000 HD
ATOM     43  H   UNL     1     -12.325  -1.043  19.258  0.00  0.00    +0.000 HD
ATOM     44  H   UNL     1     -11.915   5.857  21.913  0.00  0.00    +0.000 HD
ATOM     45  H   UNL     1     -13.255   5.603  19.609  0.00  0.00    +0.000 HD
ATOM     46  H   UNL     1     -11.507   5.178  19.574  0.00  0.00    +0.000 HD
ENDROOT
BRANCH   6  47
ATOM     47  C   UNL     1      -9.903  -1.760  18.046  0.00  0.00    +0.000 C 
ATOM     48  H   UNL     1     -10.506  -2.684  18.277  0.00  0.00    +0.000 HD
ATOM     49  H   UNL     1      -8.956  -2.123  17.649  0.00  0.00    +0.000 HD
ATOM     50  H   UNL     1      -9.714  -1.477  19.083  0.00  0.00    +0.000 HD
ENDBRANCH   6  47
BRANCH   1  51
ATOM     51  O   UNL     1     -12.141  -1.928  15.837  0.00  0.00    +0.000 OA
BRANCH  51  52
ATOM     52  C   UNL     1     -11.737  -3.262  15.601  0.00  0.00    +0.000 C 
ATOM     53  H   UNL     1     -11.656  -3.873  16.501  0.00  0.00    +0.000 HD
ATOM     54  H   UNL     1     -12.387  -3.758  14.861  0.00  0.00    +0.000 HD
ATOM     55  H   UNL     1     -10.735  -3.292  15.102  0.00  0.00    +0.000 HD
ENDBRANCH  51  52
ENDBRANCH   1  51
BRANCH   2  56
ATOM     56  N   UNL     1     -11.812   0.277  13.936  0.00  0.00    +0.000 N 
BRANCH  56  57
ATOM     57  C   UNL     1     -11.860  -0.831  13.050  0.00  0.00    +0.000 A 
ATOM     58  C   UNL     1     -13.067  -1.416  12.619  0.00  0.00    +0.000 A 
ATOM     59  C   UNL     1     -13.124  -2.584  11.845  0.00  0.00    +0.000 A 
ATOM     60  C   UNL     1     -11.958  -3.219  11.457  0.00  0.00    +0.000 A 
ATOM     61  C   UNL     1     -10.741  -2.637  11.786  0.00  0.00    +0.000 A 
ATOM     62  C   UNL     1     -10.699  -1.455  12.547  0.00  0.00    +0.000 A 
ATOM     63  H   UNL     1     -14.029  -1.008  12.899  0.00  0.00    +0.000 HD
ATOM     64  H   UNL     1     -14.090  -3.001  11.573  0.00  0.00    +0.000 HD
ATOM     65  H   UNL     1     -11.998  -4.151  10.900  0.00  0.00    +0.000 HD
ATOM     66  H   UNL     1      -9.817  -3.108  11.458  0.00  0.00    +0.000 HD
ATOM     67  H   UNL     1      -9.712  -1.039  12.728  0.00  0.00    +0.000 HD
ENDBRANCH  56  57
BRANCH  56  68
ATOM     68  C   UNL     1     -12.466   1.487  13.479  0.00  0.00    +0.000 C 
ATOM     69  H   UNL     1     -13.282   1.776  14.147  0.00  0.00    +0.000 HD
ATOM     70  H   UNL     1     -11.783   2.334  13.420  0.00  0.00    +0.000 HD
ATOM     71  H   UNL     1     -12.892   1.336  12.482  0.00  0.00    +0.000 HD
ENDBRANCH  56  68
ENDBRANCH   2  56
TORSDOF 6
ENDMDL
