MODEL 1
REMARK VINA RESULT:   -10.074      0.000      0.000
REMARK INTER + INTRA:         -15.126
REMARK INTER:                 -14.196
REMARK INTRA:                  -0.930
REMARK UNBOUND:                -0.930
REMARK  Name = 
REMARK  8 active torsions:
REMARK  status: ('A' for Active; 'I' for Inactive)
REMARK    1  A    between atoms: C_1  and  O_2
REMARK    2  A    between atoms: O_2  and  C_3
REMARK    3  A    between atoms: N_17  and  C_18
REMARK    4  A    between atoms: N_21  and  C_22
REMARK    5  A    between atoms: C_22  and  C_23
REMARK    6  A    between atoms: C_23  and  C_24
REMARK    7  A    between atoms: C_24  and  N_25
REMARK    8  A    between atoms: C_28  and  C_29
REMARK                            x       y       z     vdW  Elec       q    Type
REMARK                         _______ _______ _______ _____ _____    ______ ____
ROOT
ATOM      1  C   UNL     1      -7.909  -3.141  22.335  0.00  0.00    +0.000 A 
ATOM      2  C   UNL     1      -8.464  -1.910  22.003  0.00  0.00    +0.000 A 
ATOM      3  C   UNL     1      -9.140  -1.737  20.814  0.00  0.00    +0.000 A 
ATOM      4  C   UNL     1      -9.266  -2.804  19.897  0.00  0.00    +0.000 A 
ATOM      5  C   UNL     1      -9.901  -3.060  18.687  0.00  0.00    +0.000 A 
ATOM      6  C   UNL     1     -10.611  -2.078  17.970  0.00  0.00    +0.000 A 
ATOM      7  C   UNL     1     -11.356  -2.531  16.874  0.00  0.00    +0.000 A 
ATOM      8  C   UNL     1     -11.103  -3.736  16.218  0.00  0.00    +0.000 A 
ATOM      9  C   UNL     1     -10.179  -4.636  16.843  0.00  0.00    +0.000 A 
ATOM     10  C   UNL     1      -9.558  -5.625  16.059  0.00  0.00    +0.000 A 
ATOM     11  C   UNL     1      -9.487  -5.475  14.669  0.00  0.00    +0.000 A 
ATOM     12  C   UNL     1     -10.087  -4.317  14.177  0.00  0.00    +0.000 A 
ATOM     13  C   UNL     1      -9.551  -3.049  13.703  0.00  0.00    +0.000 A 
ATOM     14  C   UNL     1     -10.631  -2.188  13.573  0.00  0.00    +0.000 A 
ATOM     15  N   UNL     1     -11.724  -3.025  13.781  0.00  0.00    +0.000 N 
ATOM     16  C   UNL     1     -11.259  -3.865  14.813  0.00  0.00    +0.000 A 
ATOM     17  C   UNL     1      -9.710  -4.313  18.158  0.00  0.00    +0.000 A 
ATOM     18  N   UNL     1      -8.861  -4.892  19.096  0.00  0.00    +0.000 N 
ATOM     19  C   UNL     1      -8.652  -4.028  20.185  0.00  0.00    +0.000 A 
ATOM     20  C   UNL     1      -7.948  -4.211  21.397  0.00  0.00    +0.000 A 
ATOM     21  C   UNL     1     -12.094  -1.414  16.388  0.00  0.00    +0.000 C 
ATOM     22  O   UNL     1     -13.149  -1.311  15.762  0.00  0.00    +0.000 OA
ATOM     23  N   UNL     1     -11.420  -0.338  16.899  0.00  0.00    +0.000 N 
ATOM     24  C   UNL     1     -10.594  -0.648  17.954  0.00  0.00    +0.000 C 
ATOM     25  O   UNL     1      -9.906   0.194  18.511  0.00  0.00    +0.000 OA
ATOM     26  H   UNL     1      -8.395  -1.060  22.684  0.00  0.00    +0.000 HD
ATOM     27  H   UNL     1      -9.575  -0.767  20.605  0.00  0.00    +0.000 HD
ATOM     28  H   UNL     1      -8.905  -6.382  16.469  0.00  0.00    +0.000 HD
ATOM     29  H   UNL     1      -8.767  -6.044  14.097  0.00  0.00    +0.000 HD
ATOM     30  H   UNL     1      -8.506  -2.781  13.627  0.00  0.00    +0.000 HD
ATOM     31  H   UNL     1     -10.763  -1.155  13.287  0.00  0.00    +0.000 HD
ATOM     32  H   UNL     1      -7.473  -5.147  21.651  0.00  0.00    +0.000 HD
ATOM     33  H   UNL     1     -10.926   0.196  16.192  0.00  0.00    +0.000 HD
ENDROOT
BRANCH  15  34
ATOM     34  C   UNL     1     -12.371  -3.574  12.579  0.00  0.00    +0.000 C 
ATOM     35  H   UNL     1     -12.635  -4.614  12.774  0.00  0.00    +0.000 HD
ATOM     36  H   UNL     1     -11.698  -3.479  11.723  0.00  0.00    +0.000 HD
ATOM     37  H   UNL     1     -13.287  -2.998  12.384  0.00  0.00    +0.000 HD
ENDBRANCH  15  34
BRANCH  18  38
ATOM     38  C   UNL     1      -8.244  -6.205  18.973  0.00  0.00    +0.000 C 
ATOM     39  H   UNL     1      -7.297  -6.178  19.516  0.00  0.00    +0.000 HD
ATOM     40  H   UNL     1      -7.967  -6.339  17.921  0.00  0.00    +0.000 HD
BRANCH  38  41
ATOM     41  C   UNL     1      -9.129  -7.342  19.494  0.00  0.00    +0.000 C 
ATOM     42  H   UNL     1     -10.120  -7.340  19.037  0.00  0.00    +0.000 HD
ATOM     43  H   UNL     1      -9.338  -7.194  20.560  0.00  0.00    +0.000 HD
BRANCH  41  44
ATOM     44  C   UNL     1      -8.492  -8.710  19.227  0.00  0.00    +0.000 C 
ATOM     45  H   UNL     1      -8.401  -9.234  20.188  0.00  0.00    +0.000 HD
ATOM     46  H   UNL     1      -7.471  -8.567  18.848  0.00  0.00    +0.000 HD
BRANCH  44  47
ATOM     47  N   UNL     1      -9.292  -9.518  18.296  0.00  0.00    +0.000 NA
ATOM     48  C   UNL     1      -9.787  -8.699  17.182  0.00  0.00    +0.000 C 
ATOM     49  C   UNL     1     -10.682  -9.520  16.263  0.00  0.00    +0.000 C 
ATOM     50  C   UNL     1      -9.916 -10.709  15.689  0.00  0.00    +0.000 C 
ATOM     51  C   UNL     1      -9.336 -11.532  16.845  0.00  0.00    +0.000 C 
ATOM     52  C   UNL     1      -8.519 -10.676  17.820  0.00  0.00    +0.000 C 
ATOM     53  H   UNL     1      -8.955  -8.248  16.626  0.00  0.00    +0.000 HD
ATOM     54  H   UNL     1     -10.413  -7.881  17.546  0.00  0.00    +0.000 HD
ATOM     55  H   UNL     1     -11.079  -8.868  15.478  0.00  0.00    +0.000 HD
ATOM     56  H   UNL     1     -11.549  -9.881  16.832  0.00  0.00    +0.000 HD
ATOM     57  H   UNL     1     -10.606 -11.341  15.117  0.00  0.00    +0.000 HD
ATOM     58  H   UNL     1      -8.715 -12.351  16.464  0.00  0.00    +0.000 HD
ATOM     59  H   UNL     1     -10.165 -11.997  17.397  0.00  0.00    +0.000 HD
ATOM     60  H   UNL     1      -7.579 -10.356  17.356  0.00  0.00    +0.000 HD
ATOM     61  H   UNL     1      -8.248 -11.311  18.675  0.00  0.00    +0.000 HD
BRANCH  50  62
ATOM     62  C   UNL     1      -8.832 -10.247  14.716  0.00  0.00    +0.000 C 
ATOM     63  N   UNL     1      -9.167  -9.185  13.928  0.00  0.00    +0.000 N 
ATOM     64  O   UNL     1      -7.729 -10.770  14.604  0.00  0.00    +0.000 OA
ATOM     65  H   UNL     1     -10.100  -8.803  13.879  0.00  0.00    +0.000 HD
ATOM     66  H   UNL     1      -8.480  -8.872  13.255  0.00  0.00    +0.000 HD
ENDBRANCH  50  62
ENDBRANCH  44  47
ENDBRANCH  41  44
ENDBRANCH  38  41
ENDBRANCH  18  38
BRANCH   1  67
ATOM     67  O   UNL     1      -7.267  -3.428  23.502  0.00  0.00    +0.000 OA
BRANCH  67  68
ATOM     68  C   UNL     1      -8.141  -3.781  24.584  0.00  0.00    +0.000 C 
ATOM     69  H   UNL     1      -8.938  -3.006  24.642  0.00  0.00    +0.000 HD
ATOM     70  H   UNL     1      -7.629  -3.809  25.524  0.00  0.00    +0.000 HD
ATOM     71  H   UNL     1      -8.667  -4.731  24.378  0.00  0.00    +0.000 HD
ENDBRANCH  67  68
ENDBRANCH   1  67
TORSDOF 8
ENDMDL
MODEL 2
REMARK VINA RESULT:    -9.629      2.543      7.891
REMARK INTER + INTRA:         -14.500
REMARK INTER:                 -13.651
REMARK INTRA:                  -0.849
REMARK UNBOUND:                -0.930
REMARK  Name = 
REMARK  8 active torsions:
REMARK  status: ('A' for Active; 'I' for Inactive)
REMARK    1  A    between atoms: C_1  and  O_2
REMARK    2  A    between atoms: O_2  and  C_3
REMARK    3  A    between atoms: N_17  and  C_18
REMARK    4  A    between atoms: N_21  and  C_22
REMARK    5  A    between atoms: C_22  and  C_23
REMARK    6  A    between atoms: C_23  and  C_24
REMARK    7  A    between atoms: C_24  and  N_25
REMARK    8  A    between atoms: C_28  and  C_29
REMARK                            x       y       z     vdW  Elec       q    Type
REMARK                         _______ _______ _______ _____ _____    ______ ____
ROOT
ATOM      1  C   UNL     1     -12.639   0.599  16.124  0.00  0.00    +0.000 A 
ATOM      2  C   UNL     1     -12.917  -0.428  15.228  0.00  0.00    +0.000 A 
ATOM      3  C   UNL     1     -12.521  -1.722  15.491  0.00  0.00    +0.000 A 
ATOM      4  C   UNL     1     -11.805  -2.029  16.670  0.00  0.00    +0.000 A 
ATOM      5  C   UNL     1     -11.314  -3.156  17.319  0.00  0.00    +0.000 A 
ATOM      6  C   UNL     1     -11.384  -4.450  16.768  0.00  0.00    +0.000 A 
ATOM      7  C   UNL     1     -11.026  -5.504  17.619  0.00  0.00    +0.000 A 
ATOM      8  C   UNL     1     -10.231  -5.339  18.754  0.00  0.00    +0.000 A 
ATOM      9  C   UNL     1      -9.960  -3.995  19.170  0.00  0.00    +0.000 A 
ATOM     10  C   UNL     1      -8.850  -3.750  19.999  0.00  0.00    +0.000 A 
ATOM     11  C   UNL     1      -7.803  -4.677  20.059  0.00  0.00    +0.000 A 
ATOM     12  C   UNL     1      -7.985  -5.814  19.272  0.00  0.00    +0.000 A 
ATOM     13  C   UNL     1      -7.433  -6.229  17.990  0.00  0.00    +0.000 A 
ATOM     14  C   UNL     1      -8.165  -7.335  17.585  0.00  0.00    +0.000 A 
ATOM     15  N   UNL     1      -8.949  -7.616  18.701  0.00  0.00    +0.000 N 
ATOM     16  C   UNL     1      -9.292  -6.326  19.153  0.00  0.00    +0.000 A 
ATOM     17  C   UNL     1     -10.648  -2.932  18.498  0.00  0.00    +0.000 A 
ATOM     18  N   UNL     1     -10.695  -1.544  18.593  0.00  0.00    +0.000 N 
ATOM     19  C   UNL     1     -11.456  -0.996  17.545  0.00  0.00    +0.000 A 
ATOM     20  C   UNL     1     -11.849   0.336  17.279  0.00  0.00    +0.000 A 
ATOM     21  C   UNL     1     -11.300  -6.712  16.917  0.00  0.00    +0.000 C 
ATOM     22  O   UNL     1     -11.562  -7.857  17.284  0.00  0.00    +0.000 OA
ATOM     23  N   UNL     1     -11.353  -6.316  15.608  0.00  0.00    +0.000 N 
ATOM     24  C   UNL     1     -11.534  -4.963  15.442  0.00  0.00    +0.000 C 
ATOM     25  O   UNL     1     -11.582  -4.444  14.337  0.00  0.00    +0.000 OA
ATOM     26  H   UNL     1     -13.472  -0.236  14.309  0.00  0.00    +0.000 HD
ATOM     27  H   UNL     1     -12.777  -2.495  14.777  0.00  0.00    +0.000 HD
ATOM     28  H   UNL     1      -8.621  -2.778  20.409  0.00  0.00    +0.000 HD
ATOM     29  H   UNL     1      -6.832  -4.378  20.431  0.00  0.00    +0.000 HD
ATOM     30  H   UNL     1      -6.709  -5.688  17.396  0.00  0.00    +0.000 HD
ATOM     31  H   UNL     1      -8.170  -7.982  16.720  0.00  0.00    +0.000 HD
ATOM     32  H   UNL     1     -11.604   1.152  17.942  0.00  0.00    +0.000 HD
ATOM     33  H   UNL     1     -10.569  -6.651  15.058  0.00  0.00    +0.000 HD
ENDROOT
BRANCH  15  34
ATOM     34  C   UNL     1      -8.437  -8.641  19.624  0.00  0.00    +0.000 C 
ATOM     35  H   UNL     1      -8.106  -9.499  19.037  0.00  0.00    +0.000 HD
ATOM     36  H   UNL     1      -9.218  -8.915  20.339  0.00  0.00    +0.000 HD
ATOM     37  H   UNL     1      -7.580  -8.221  20.169  0.00  0.00    +0.000 HD
ENDBRANCH  15  34
BRANCH  18  38
ATOM     38  C   UNL     1     -10.032  -0.748  19.616  0.00  0.00    +0.000 C 
ATOM     39  H   UNL     1      -9.829   0.236  19.190  0.00  0.00    +0.000 HD
ATOM     40  H   UNL     1      -9.046  -1.194  19.790  0.00  0.00    +0.000 HD
BRANCH  38  41
ATOM     41  C   UNL     1     -10.849  -0.617  20.905  0.00  0.00    +0.000 C 
ATOM     42  H   UNL     1     -11.160  -1.586  21.301  0.00  0.00    +0.000 HD
ATOM     43  H   UNL     1     -11.798  -0.109  20.696  0.00  0.00    +0.000 HD
BRANCH  41  44
ATOM     44  C   UNL     1     -10.052   0.102  21.998  0.00  0.00    +0.000 C 
ATOM     45  H   UNL     1     -10.429   1.131  22.072  0.00  0.00    +0.000 HD
ATOM     46  H   UNL     1      -8.999   0.174  21.692  0.00  0.00    +0.000 HD
BRANCH  44  47
ATOM     47  N   UNL     1     -10.179  -0.565  23.301  0.00  0.00    +0.000 NA
ATOM     48  C   UNL     1     -10.633  -1.952  23.139  0.00  0.00    +0.000 C 
ATOM     49  C   UNL     1     -10.841  -2.616  24.493  0.00  0.00    +0.000 C 
ATOM     50  C   UNL     1      -9.541  -2.622  25.294  0.00  0.00    +0.000 C 
ATOM     51  C   UNL     1      -9.022  -1.184  25.409  0.00  0.00    +0.000 C 
ATOM     52  C   UNL     1      -8.912  -0.491  24.046  0.00  0.00    +0.000 C 
ATOM     53  H   UNL     1      -9.932  -2.526  22.520  0.00  0.00    +0.000 HD
ATOM     54  H   UNL     1     -11.606  -1.989  22.643  0.00  0.00    +0.000 HD
ATOM     55  H   UNL     1     -11.234  -3.626  24.339  0.00  0.00    +0.000 HD
ATOM     56  H   UNL     1     -11.613  -2.067  25.050  0.00  0.00    +0.000 HD
ATOM     57  H   UNL     1      -9.739  -3.008  26.301  0.00  0.00    +0.000 HD
ATOM     58  H   UNL     1      -8.049  -1.164  25.913  0.00  0.00    +0.000 HD
ATOM     59  H   UNL     1      -9.714  -0.609  26.040  0.00  0.00    +0.000 HD
ATOM     60  H   UNL     1      -8.088  -0.919  23.463  0.00  0.00    +0.000 HD
ATOM     61  H   UNL     1      -8.655   0.561  24.227  0.00  0.00    +0.000 HD
BRANCH  50  62
ATOM     62  C   UNL     1      -8.510  -3.554  24.660  0.00  0.00    +0.000 C 
ATOM     63  N   UNL     1      -7.790  -4.313  25.537  0.00  0.00    +0.000 N 
ATOM     64  O   UNL     1      -8.296  -3.640  23.456  0.00  0.00    +0.000 OA
ATOM     65  H   UNL     1      -7.825  -4.188  26.537  0.00  0.00    +0.000 HD
ATOM     66  H   UNL     1      -7.081  -4.921  25.149  0.00  0.00    +0.000 HD
ENDBRANCH  50  62
ENDBRANCH  44  47
ENDBRANCH  41  44
ENDBRANCH  38  41
ENDBRANCH  18  38
BRANCH   1  67
ATOM     67  O   UNL     1     -13.028   1.897  15.982  0.00  0.00    +0.000 OA
BRANCH  67  68
ATOM     68  C   UNL     1     -14.089   2.293  16.863  0.00  0.00    +0.000 C 
ATOM     69  H   UNL     1     -14.486   3.267  16.498  0.00  0.00    +0.000 HD
ATOM     70  H   UNL     1     -13.750   2.424  17.871  0.00  0.00    +0.000 HD
ATOM     71  H   UNL     1     -14.938   1.588  16.808  0.00  0.00    +0.000 HD
ENDBRANCH  67  68
ENDBRANCH   1  67
TORSDOF 8
ENDMDL
MODEL 3
REMARK VINA RESULT:    -9.403      1.108      1.303
REMARK INTER + INTRA:         -14.180
REMARK INTER:                 -13.226
REMARK INTRA:                  -0.954
REMARK UNBOUND:                -0.930
REMARK  Name = 
REMARK  8 active torsions:
REMARK  status: ('A' for Active; 'I' for Inactive)
REMARK    1  A    between atoms: C_1  and  O_2
REMARK    2  A    between atoms: O_2  and  C_3
REMARK    3  A    between atoms: N_17  and  C_18
REMARK    4  A    between atoms: N_21  and  C_22
REMARK    5  A    between atoms: C_22  and  C_23
REMARK    6  A    between atoms: C_23  and  C_24
REMARK    7  A    between atoms: C_24  and  N_25
REMARK    8  A    between atoms: C_28  and  C_29
REMARK                            x       y       z     vdW  Elec       q    Type
REMARK                         _______ _______ _______ _____ _____    ______ ____
ROOT
ATOM      1  C   UNL     1      -8.932  -1.833  21.609  0.00  0.00    +0.000 A 
ATOM      2  C   UNL     1      -9.486  -0.648  21.137  0.00  0.00    +0.000 A 
ATOM      3  C   UNL     1     -10.062  -0.587  19.887  0.00  0.00    +0.000 A 
ATOM      4  C   UNL     1     -10.085  -1.723  19.049  0.00  0.00    +0.000 A 
ATOM      5  C   UNL     1     -10.608  -2.089  17.814  0.00  0.00    +0.000 A 
ATOM      6  C   UNL     1     -11.277  -1.186  16.966  0.00  0.00    +0.000 A 
ATOM      7  C   UNL     1     -11.916  -1.743  15.850  0.00  0.00    +0.000 A 
ATOM      8  C   UNL     1     -11.580  -2.987  15.314  0.00  0.00    +0.000 A 
ATOM      9  C   UNL     1     -10.692  -3.809  16.082  0.00  0.00    +0.000 A 
ATOM     10  C   UNL     1      -9.983  -4.836  15.433  0.00  0.00    +0.000 A 
ATOM     11  C   UNL     1      -9.797  -4.790  14.045  0.00  0.00    +0.000 A 
ATOM     12  C   UNL     1     -10.381  -3.691  13.416  0.00  0.00    +0.000 A 
ATOM     13  C   UNL     1      -9.835  -2.447  12.891  0.00  0.00    +0.000 A 
ATOM     14  C   UNL     1     -10.921  -1.631  12.604  0.00  0.00    +0.000 A 
ATOM     15  N   UNL     1     -12.007  -2.482  12.786  0.00  0.00    +0.000 N 
ATOM     16  C   UNL     1     -11.613  -3.227  13.915  0.00  0.00    +0.000 A 
ATOM     17  C   UNL     1     -10.344  -3.372  17.402  0.00  0.00    +0.000 A 
ATOM     18  N   UNL     1      -9.565  -3.853  18.450  0.00  0.00    +0.000 N 
ATOM     19  C   UNL     1      -9.469  -2.903  19.481  0.00  0.00    +0.000 A 
ATOM     20  C   UNL     1      -8.867  -2.972  20.758  0.00  0.00    +0.000 A 
ATOM     21  C   UNL     1     -12.635  -0.689  15.219  0.00  0.00    +0.000 C 
ATOM     22  O   UNL     1     -13.635  -0.665  14.501  0.00  0.00    +0.000 OA
ATOM     23  N   UNL     1     -12.032   0.442  15.698  0.00  0.00    +0.000 N 
ATOM     24  C   UNL     1     -11.293   0.238  16.839  0.00  0.00    +0.000 C 
ATOM     25  O   UNL     1     -10.674   1.140  17.383  0.00  0.00    +0.000 OA
ATOM     26  H   UNL     1      -9.495   0.253  21.753  0.00  0.00    +0.000 HD
ATOM     27  H   UNL     1     -10.501   0.351  19.567  0.00  0.00    +0.000 HD
ATOM     28  H   UNL     1      -9.350  -5.539  15.953  0.00  0.00    +0.000 HD
ATOM     29  H   UNL     1      -9.018  -5.379  13.581  0.00  0.00    +0.000 HD
ATOM     30  H   UNL     1      -8.795  -2.154  12.881  0.00  0.00    +0.000 HD
ATOM     31  H   UNL     1     -11.052  -0.627  12.228  0.00  0.00    +0.000 HD
ATOM     32  H   UNL     1      -8.394  -3.871  21.124  0.00  0.00    +0.000 HD
ATOM     33  H   UNL     1     -11.493   0.936  14.995  0.00  0.00    +0.000 HD
ENDROOT
BRANCH  15  34
ATOM     34  C   UNL     1     -12.537  -3.140  11.581  0.00  0.00    +0.000 C 
ATOM     35  H   UNL     1     -12.080  -2.676  10.706  0.00  0.00    +0.000 HD
ATOM     36  H   UNL     1     -13.627  -3.054  11.564  0.00  0.00    +0.000 HD
ATOM     37  H   UNL     1     -12.259  -4.203  11.615  0.00  0.00    +0.000 HD
ENDBRANCH  15  34
BRANCH  18  38
ATOM     38  C   UNL     1      -8.909  -5.153  18.482  0.00  0.00    +0.000 C 
ATOM     39  H   UNL     1      -8.102  -5.098  19.215  0.00  0.00    +0.000 HD
ATOM     40  H   UNL     1      -8.410  -5.291  17.516  0.00  0.00    +0.000 HD
BRANCH  38  41
ATOM     41  C   UNL     1      -9.862  -6.305  18.817  0.00  0.00    +0.000 C 
ATOM     42  H   UNL     1     -10.667  -6.404  18.087  0.00  0.00    +0.000 HD
ATOM     43  H   UNL     1     -10.390  -6.091  19.754  0.00  0.00    +0.000 HD
BRANCH  41  44
ATOM     44  C   UNL     1      -9.117  -7.642  18.880  0.00  0.00    +0.000 C 
ATOM     45  H   UNL     1      -9.083  -7.962  19.931  0.00  0.00    +0.000 HD
ATOM     46  H   UNL     1      -8.076  -7.493  18.562  0.00  0.00    +0.000 HD
BRANCH  44  47
ATOM     47  N   UNL     1      -9.774  -8.677  18.069  0.00  0.00    +0.000 NA
ATOM     48  C   UNL     1     -10.220  -8.130  16.782  0.00  0.00    +0.000 C 
ATOM     49  C   UNL     1     -10.971  -9.182  15.977  0.00  0.00    +0.000 C 
ATOM     50  C   UNL     1     -10.079 -10.391  15.708  0.00  0.00    +0.000 C 
ATOM     51  C   UNL     1      -9.552 -10.927  17.044  0.00  0.00    +0.000 C 
ATOM     52  C   UNL     1      -8.886  -9.836  17.890  0.00  0.00    +0.000 C 
ATOM     53  H   UNL     1      -9.374  -7.725  16.212  0.00  0.00    +0.000 HD
ATOM     54  H   UNL     1     -10.930  -7.312  16.929  0.00  0.00    +0.000 HD
ATOM     55  H   UNL     1     -11.339  -8.728  15.052  0.00  0.00    +0.000 HD
ATOM     56  H   UNL     1     -11.860  -9.499  16.539  0.00  0.00    +0.000 HD
ATOM     57  H   UNL     1     -10.671 -11.175  15.221  0.00  0.00    +0.000 HD
ATOM     58  H   UNL     1      -8.845 -11.749  16.879  0.00  0.00    +0.000 HD
ATOM     59  H   UNL     1     -10.394 -11.346  17.612  0.00  0.00    +0.000 HD
ATOM     60  H   UNL     1      -7.931  -9.533  17.445  0.00  0.00    +0.000 HD
ATOM     61  H   UNL     1      -8.650 -10.271  18.871  0.00  0.00    +0.000 HD
BRANCH  50  62
ATOM     62  C   UNL     1      -8.946 -10.035  14.748  0.00  0.00    +0.000 C 
ATOM     63  N   UNL     1      -9.190  -8.978  13.919  0.00  0.00    +0.000 N 
ATOM     64  O   UNL     1      -7.878 -10.633  14.679  0.00  0.00    +0.000 OA
ATOM     65  H   UNL     1     -10.094  -8.537  13.836  0.00  0.00    +0.000 HD
ATOM     66  H   UNL     1      -8.469  -8.734  13.253  0.00  0.00    +0.000 HD
ENDBRANCH  50  62
ENDBRANCH  44  47
ENDBRANCH  41  44
ENDBRANCH  38  41
ENDBRANCH  18  38
BRANCH   1  67
ATOM     67  O   UNL     1      -8.386  -2.012  22.845  0.00  0.00    +0.000 OA
BRANCH  67  68
ATOM     68  C   UNL     1      -9.152  -2.862  23.711  0.00  0.00    +0.000 C 
ATOM     69  H   UNL     1     -10.045  -3.207  23.143  0.00  0.00    +0.000 HD
ATOM     70  H   UNL     1      -9.488  -2.347  24.588  0.00  0.00    +0.000 HD
ATOM     71  H   UNL     1      -8.590  -3.779  23.968  0.00  0.00    +0.000 HD
ENDBRANCH  67  68
ENDBRANCH   1  67
TORSDOF 8
ENDMDL
MODEL 4
REMARK VINA RESULT:    -9.229      2.088      3.311
REMARK INTER + INTRA:         -13.936
REMARK INTER:                 -13.417
REMARK INTRA:                  -0.519
REMARK UNBOUND:                -0.930
REMARK  Name = 
REMARK  8 active torsions:
REMARK  status: ('A' for Active; 'I' for Inactive)
REMARK    1  A    between atoms: C_1  and  O_2
REMARK    2  A    between atoms: O_2  and  C_3
REMARK    3  A    between atoms: N_17  and  C_18
REMARK    4  A    between atoms: N_21  and  C_22
REMARK    5  A    between atoms: C_22  and  C_23
REMARK    6  A    between atoms: C_23  and  C_24
REMARK    7  A    between atoms: C_24  and  N_25
REMARK    8  A    between atoms: C_28  and  C_29
REMARK                            x       y       z     vdW  Elec       q    Type
REMARK                         _______ _______ _______ _____ _____    ______ ____
ROOT
ATOM      1  C   UNL     1      -8.255  -7.072  19.781  0.00  0.00    +0.000 A 
ATOM      2  C   UNL     1      -8.120  -5.789  20.302  0.00  0.00    +0.000 A 
ATOM      3  C   UNL     1      -8.735  -4.713  19.698  0.00  0.00    +0.000 A 
ATOM      4  C   UNL     1      -9.502  -4.889  18.524  0.00  0.00    +0.000 A 
ATOM      5  C   UNL     1     -10.307  -4.123  17.690  0.00  0.00    +0.000 A 
ATOM      6  C   UNL     1     -10.477  -2.734  17.849  0.00  0.00    +0.000 A 
ATOM      7  C   UNL     1     -11.466  -2.138  17.057  0.00  0.00    +0.000 A 
ATOM      8  C   UNL     1     -11.955  -2.706  15.879  0.00  0.00    +0.000 A 
ATOM      9  C   UNL     1     -11.572  -4.059  15.602  0.00  0.00    +0.000 A 
ATOM     10  C   UNL     1     -11.650  -4.529  14.278  0.00  0.00    +0.000 A 
ATOM     11  C   UNL     1     -11.668  -3.622  13.212  0.00  0.00    +0.000 A 
ATOM     12  C   UNL     1     -11.627  -2.280  13.589  0.00  0.00    +0.000 A 
ATOM     13  C   UNL     1     -10.565  -1.283  13.588  0.00  0.00    +0.000 A 
ATOM     14  C   UNL     1     -11.045  -0.195  14.302  0.00  0.00    +0.000 A 
ATOM     15  N   UNL     1     -12.383  -0.523  14.508  0.00  0.00    +0.000 N 
ATOM     16  C   UNL     1     -12.312  -1.907  14.762  0.00  0.00    +0.000 A 
ATOM     17  C   UNL     1     -10.859  -4.778  16.616  0.00  0.00    +0.000 A 
ATOM     18  N   UNL     1     -10.337  -6.060  16.765  0.00  0.00    +0.000 N 
ATOM     19  C   UNL     1      -9.587  -6.161  17.949  0.00  0.00    +0.000 A 
ATOM     20  C   UNL     1      -8.951  -7.268  18.556  0.00  0.00    +0.000 A 
ATOM     21  C   UNL     1     -11.563  -0.780  17.473  0.00  0.00    +0.000 C 
ATOM     22  O   UNL     1     -12.472   0.049  17.434  0.00  0.00    +0.000 OA
ATOM     23  N   UNL     1     -10.375  -0.556  18.114  0.00  0.00    +0.000 N 
ATOM     24  C   UNL     1      -9.719  -1.705  18.489  0.00  0.00    +0.000 C 
ATOM     25  O   UNL     1      -8.636  -1.681  19.053  0.00  0.00    +0.000 OA
ATOM     26  H   UNL     1      -7.542  -5.609  21.210  0.00  0.00    +0.000 HD
ATOM     27  H   UNL     1      -8.622  -3.735  20.149  0.00  0.00    +0.000 HD
ATOM     28  H   UNL     1     -11.446  -5.553  14.001  0.00  0.00    +0.000 HD
ATOM     29  H   UNL     1     -11.419  -3.952  12.213  0.00  0.00    +0.000 HD
ATOM     30  H   UNL     1      -9.550  -1.425  13.244  0.00  0.00    +0.000 HD
ATOM     31  H   UNL     1     -10.650   0.764  14.603  0.00  0.00    +0.000 HD
ATOM     32  H   UNL     1      -9.009  -8.264  18.141  0.00  0.00    +0.000 HD
ATOM     33  H   UNL     1      -9.758   0.068  17.605  0.00  0.00    +0.000 HD
ENDROOT
BRANCH  15  34
ATOM     34  C   UNL     1     -13.352   0.032  13.550  0.00  0.00    +0.000 C 
ATOM     35  H   UNL     1     -13.474   1.095  13.760  0.00  0.00    +0.000 HD
ATOM     36  H   UNL     1     -14.299  -0.509  13.629  0.00  0.00    +0.000 HD
ATOM     37  H   UNL     1     -12.948  -0.093  12.535  0.00  0.00    +0.000 HD
ENDBRANCH  15  34
BRANCH  18  38
ATOM     38  C   UNL     1     -10.513  -7.153  15.820  0.00  0.00    +0.000 C 
ATOM     39  H   UNL     1      -9.552  -7.328  15.333  0.00  0.00    +0.000 HD
ATOM     40  H   UNL     1     -11.176  -6.795  15.024  0.00  0.00    +0.000 HD
BRANCH  38  41
ATOM     41  C   UNL     1     -11.026  -8.441  16.472  0.00  0.00    +0.000 C 
ATOM     42  H   UNL     1     -12.092  -8.392  16.707  0.00  0.00    +0.000 HD
ATOM     43  H   UNL     1     -10.554  -8.577  17.452  0.00  0.00    +0.000 HD
BRANCH  41  44
ATOM     44  C   UNL     1     -10.801  -9.653  15.563  0.00  0.00    +0.000 C 
ATOM     45  H   UNL     1     -10.733  -9.292  14.527  0.00  0.00    +0.000 HD
ATOM     46  H   UNL     1     -11.680 -10.311  15.609  0.00  0.00    +0.000 HD
BRANCH  44  47
ATOM     47  N   UNL     1      -9.575 -10.384  15.914  0.00  0.00    +0.000 NA
ATOM     48  C   UNL     1      -9.814 -11.304  17.033  0.00  0.00    +0.000 C 
ATOM     49  C   UNL     1      -8.525 -12.000  17.447  0.00  0.00    +0.000 C 
ATOM     50  C   UNL     1      -7.946 -12.796  16.280  0.00  0.00    +0.000 C 
ATOM     51  C   UNL     1      -7.757 -11.857  15.083  0.00  0.00    +0.000 C 
ATOM     52  C   UNL     1      -9.037 -11.086  14.738  0.00  0.00    +0.000 C 
ATOM     53  H   UNL     1     -10.596 -12.032  16.783  0.00  0.00    +0.000 HD
ATOM     54  H   UNL     1     -10.151 -10.761  17.920  0.00  0.00    +0.000 HD
ATOM     55  H   UNL     1      -8.725 -12.632  18.318  0.00  0.00    +0.000 HD
ATOM     56  H   UNL     1      -7.797 -11.246  17.775  0.00  0.00    +0.000 HD
ATOM     57  H   UNL     1      -6.968 -13.200  16.569  0.00  0.00    +0.000 HD
ATOM     58  H   UNL     1      -7.415 -12.415  14.204  0.00  0.00    +0.000 HD
ATOM     59  H   UNL     1      -6.966 -11.134  15.323  0.00  0.00    +0.000 HD
ATOM     60  H   UNL     1      -9.786 -11.758  14.304  0.00  0.00    +0.000 HD
ATOM     61  H   UNL     1      -8.785 -10.354  13.959  0.00  0.00    +0.000 HD
BRANCH  50  62
ATOM     62  C   UNL     1      -8.833 -13.991  15.936  0.00  0.00    +0.000 C 
ATOM     63  N   UNL     1      -9.097 -14.841  16.970  0.00  0.00    +0.000 N 
ATOM     64  O   UNL     1      -9.288 -14.221  14.821  0.00  0.00    +0.000 OA
ATOM     65  H   UNL     1      -8.643 -14.779  17.869  0.00  0.00    +0.000 HD
ATOM     66  H   UNL     1      -9.660 -15.657  16.767  0.00  0.00    +0.000 HD
ENDBRANCH  50  62
ENDBRANCH  44  47
ENDBRANCH  41  44
ENDBRANCH  38  41
ENDBRANCH  18  38
BRANCH   1  67
ATOM     67  O   UNL     1      -7.730  -8.204  20.328  0.00  0.00    +0.000 OA
BRANCH  67  68
ATOM     68  C   UNL     1      -8.633  -9.320  20.352  0.00  0.00    +0.000 C 
ATOM     69  H   UNL     1      -8.735  -9.651  21.410  0.00  0.00    +0.000 HD
ATOM     70  H   UNL     1      -8.270 -10.145  19.774  0.00  0.00    +0.000 HD
ATOM     71  H   UNL     1      -9.648  -9.018  20.036  0.00  0.00    +0.000 HD
ENDBRANCH  67  68
ENDBRANCH   1  67
TORSDOF 8
ENDMDL
MODEL 5
REMARK VINA RESULT:    -8.857      2.894      5.366
REMARK INTER + INTRA:         -13.412
REMARK INTER:                 -12.223
REMARK INTRA:                  -1.189
REMARK UNBOUND:                -0.930
REMARK  Name = 
REMARK  8 active torsions:
REMARK  status: ('A' for Active; 'I' for Inactive)
REMARK    1  A    between atoms: C_1  and  O_2
REMARK    2  A    between atoms: O_2  and  C_3
REMARK    3  A    between atoms: N_17  and  C_18
REMARK    4  A    between atoms: N_21  and  C_22
REMARK    5  A    between atoms: C_22  and  C_23
REMARK    6  A    between atoms: C_23  and  C_24
REMARK    7  A    between atoms: C_24  and  N_25
REMARK    8  A    between atoms: C_28  and  C_29
REMARK                            x       y       z     vdW  Elec       q    Type
REMARK                         _______ _______ _______ _____ _____    ______ ____
ROOT
ATOM      1  C   UNL     1      -7.741  -4.934  20.250  0.00  0.00    +0.000 A 
ATOM      2  C   UNL     1      -7.615  -4.232  21.444  0.00  0.00    +0.000 A 
ATOM      3  C   UNL     1      -8.327  -3.071  21.658  0.00  0.00    +0.000 A 
ATOM      4  C   UNL     1      -9.187  -2.560  20.661  0.00  0.00    +0.000 A 
ATOM      5  C   UNL     1     -10.096  -1.519  20.512  0.00  0.00    +0.000 A 
ATOM      6  C   UNL     1     -10.309  -0.538  21.501  0.00  0.00    +0.000 A 
ATOM      7  C   UNL     1     -11.390   0.327  21.289  0.00  0.00    +0.000 A 
ATOM      8  C   UNL     1     -11.957   0.558  20.035  0.00  0.00    +0.000 A 
ATOM      9  C   UNL     1     -11.543  -0.303  18.966  0.00  0.00    +0.000 A 
ATOM     10  C   UNL     1     -11.719   0.129  17.639  0.00  0.00    +0.000 A 
ATOM     11  C   UNL     1     -11.870   1.493  17.360  0.00  0.00    +0.000 A 
ATOM     12  C   UNL     1     -11.853   2.321  18.482  0.00  0.00    +0.000 A 
ATOM     13  C   UNL     1     -10.839   3.200  19.048  0.00  0.00    +0.000 A 
ATOM     14  C   UNL     1     -11.299   3.576  20.302  0.00  0.00    +0.000 A 
ATOM     15  N   UNL     1     -12.598   3.075  20.321  0.00  0.00    +0.000 N 
ATOM     16  C   UNL     1     -12.446   1.837  19.664  0.00  0.00    +0.000 A 
ATOM     17  C   UNL     1     -10.712  -1.425  19.289  0.00  0.00    +0.000 A 
ATOM     18  N   UNL     1     -10.126  -2.479  18.593  0.00  0.00    +0.000 N 
ATOM     19  C   UNL     1      -9.269  -3.216  19.429  0.00  0.00    +0.000 A 
ATOM     20  C   UNL     1      -8.535  -4.401  19.195  0.00  0.00    +0.000 A 
ATOM     21  C   UNL     1     -11.507   1.133  22.457  0.00  0.00    +0.000 C 
ATOM     22  O   UNL     1     -12.450   1.728  22.978  0.00  0.00    +0.000 OA
ATOM     23  N   UNL     1     -10.276   1.022  23.047  0.00  0.00    +0.000 N 
ATOM     24  C   UNL     1      -9.542  -0.053  22.605  0.00  0.00    +0.000 C 
ATOM     25  O   UNL     1      -8.414  -0.283  23.015  0.00  0.00    +0.000 OA
ATOM     26  H   UNL     1      -6.967  -4.594  22.243  0.00  0.00    +0.000 HD
ATOM     27  H   UNL     1      -8.215  -2.567  22.611  0.00  0.00    +0.000 HD
ATOM     28  H   UNL     1     -11.497  -0.488  16.781  0.00  0.00    +0.000 HD
ATOM     29  H   UNL     1     -11.698   1.866  16.360  0.00  0.00    +0.000 HD
ATOM     30  H   UNL     1      -9.854   3.388  18.645  0.00  0.00    +0.000 HD
ATOM     31  H   UNL     1     -10.920   4.182  21.111  0.00  0.00    +0.000 HD
ATOM     32  H   UNL     1      -8.587  -4.936  18.259  0.00  0.00    +0.000 HD
ATOM     33  H   UNL     1      -9.734   1.879  23.004  0.00  0.00    +0.000 HD
ENDROOT
BRANCH  15  34
ATOM     34  C   UNL     1     -13.671   4.011  19.952  0.00  0.00    +0.000 C 
ATOM     35  H   UNL     1     -14.370   4.080  20.786  0.00  0.00    +0.000 HD
ATOM     36  H   UNL     1     -14.162   3.667  19.037  0.00  0.00    +0.000 HD
ATOM     37  H   UNL     1     -13.223   4.999  19.771  0.00  0.00    +0.000 HD
ENDBRANCH  15  34
BRANCH  18  38
ATOM     38  C   UNL     1     -10.339  -2.777  17.184  0.00  0.00    +0.000 C 
ATOM     39  H   UNL     1      -9.508  -3.401  16.849  0.00  0.00    +0.000 HD
ATOM     40  H   UNL     1     -10.232  -1.836  16.631  0.00  0.00    +0.000 HD
BRANCH  38  41
ATOM     41  C   UNL     1     -11.677  -3.469  16.906  0.00  0.00    +0.000 C 
ATOM     42  H   UNL     1     -12.366  -2.832  16.347  0.00  0.00    +0.000 HD
ATOM     43  H   UNL     1     -12.205  -3.651  17.850  0.00  0.00    +0.000 HD
BRANCH  41  44
ATOM     44  C   UNL     1     -11.480  -4.762  16.109  0.00  0.00    +0.000 C 
ATOM     45  H   UNL     1     -11.163  -4.488  15.093  0.00  0.00    +0.000 HD
ATOM     46  H   UNL     1     -12.444  -5.279  16.010  0.00  0.00    +0.000 HD
BRANCH  44  47
ATOM     47  N   UNL     1     -10.471  -5.638  16.722  0.00  0.00    +0.000 NA
ATOM     48  C   UNL     1     -11.102  -6.805  17.351  0.00  0.00    +0.000 C 
ATOM     49  C   UNL     1     -10.064  -7.669  18.054  0.00  0.00    +0.000 C 
ATOM     50  C   UNL     1      -9.013  -8.161  17.061  0.00  0.00    +0.000 C 
ATOM     51  C   UNL     1      -8.397  -6.951  16.349  0.00  0.00    +0.000 C 
ATOM     52  C   UNL     1      -9.458  -6.034  15.730  0.00  0.00    +0.000 C 
ATOM     53  H   UNL     1     -11.670  -7.389  16.615  0.00  0.00    +0.000 HD
ATOM     54  H   UNL     1     -11.803  -6.498  18.130  0.00  0.00    +0.000 HD
ATOM     55  H   UNL     1     -10.571  -8.496  18.559  0.00  0.00    +0.000 HD
ATOM     56  H   UNL     1      -9.577  -7.078  18.842  0.00  0.00    +0.000 HD
ATOM     57  H   UNL     1      -8.222  -8.690  17.606  0.00  0.00    +0.000 HD
ATOM     58  H   UNL     1      -7.693  -7.275  15.574  0.00  0.00    +0.000 HD
ATOM     59  H   UNL     1      -7.815  -6.371  17.079  0.00  0.00    +0.000 HD
ATOM     60  H   UNL     1      -9.925  -6.516  14.864  0.00  0.00    +0.000 HD
ATOM     61  H   UNL     1      -8.946  -5.138  15.353  0.00  0.00    +0.000 HD
BRANCH  50  62
ATOM     62  C   UNL     1      -9.613  -9.160  16.075  0.00  0.00    +0.000 C 
ATOM     63  N   UNL     1      -9.245  -8.990  14.772  0.00  0.00    +0.000 N 
ATOM     64  O   UNL     1     -10.386 -10.061  16.381  0.00  0.00    +0.000 OA
ATOM     65  H   UNL     1      -8.725  -8.191  14.443  0.00  0.00    +0.000 HD
ATOM     66  H   UNL     1      -9.647  -9.620  14.090  0.00  0.00    +0.000 HD
ENDBRANCH  50  62
ENDBRANCH  44  47
ENDBRANCH  41  44
ENDBRANCH  38  41
ENDBRANCH  18  38
BRANCH   1  67
ATOM     67  O   UNL     1      -7.123  -6.113  19.959  0.00  0.00    +0.000 OA
BRANCH  67  68
ATOM     68  C   UNL     1      -5.749  -5.975  19.564  0.00  0.00    +0.000 C 
ATOM     69  H   UNL     1      -5.212  -5.451  20.385  0.00  0.00    +0.000 HD
ATOM     70  H   UNL     1      -5.643  -5.398  18.668  0.00  0.00    +0.000 HD
ATOM     71  H   UNL     1      -5.260  -6.963  19.472  0.00  0.00    +0.000 HD
ENDBRANCH  67  68
ENDBRANCH   1  67
TORSDOF 8
ENDMDL
MODEL 6
REMARK VINA RESULT:    -8.762      1.383      1.725
REMARK INTER + INTRA:         -13.278
REMARK INTER:                 -12.502
REMARK INTRA:                  -0.775
REMARK UNBOUND:                -0.930
REMARK  Name = 
REMARK  8 active torsions:
REMARK  status: ('A' for Active; 'I' for Inactive)
REMARK    1  A    between atoms: C_1  and  O_2
REMARK    2  A    between atoms: O_2  and  C_3
REMARK    3  A    between atoms: N_17  and  C_18
REMARK    4  A    between atoms: N_21  and  C_22
REMARK    5  A    between atoms: C_22  and  C_23
REMARK    6  A    between atoms: C_23  and  C_24
REMARK    7  A    between atoms: C_24  and  N_25
REMARK    8  A    between atoms: C_28  and  C_29
REMARK                            x       y       z     vdW  Elec       q    Type
REMARK                         _______ _______ _______ _____ _____    ______ ____
ROOT
ATOM      1  C   UNL     1      -8.552  -2.677  21.394  0.00  0.00    +0.000 A 
ATOM      2  C   UNL     1      -8.630  -1.335  21.035  0.00  0.00    +0.000 A 
ATOM      3  C   UNL     1      -9.260  -0.952  19.871  0.00  0.00    +0.000 A 
ATOM      4  C   UNL     1      -9.826  -1.916  19.007  0.00  0.00    +0.000 A 
ATOM      5  C   UNL     1     -10.578  -1.946  17.839  0.00  0.00    +0.000 A 
ATOM      6  C   UNL     1     -10.914  -0.787  17.113  0.00  0.00    +0.000 A 
ATOM      7  C   UNL     1     -11.835  -0.956  16.071  0.00  0.00    +0.000 A 
ATOM      8  C   UNL     1     -12.085  -2.183  15.457  0.00  0.00    +0.000 A 
ATOM      9  C   UNL     1     -11.525  -3.348  16.078  0.00  0.00    +0.000 A 
ATOM     10  C   UNL     1     -11.360  -4.515  15.311  0.00  0.00    +0.000 A 
ATOM     11  C   UNL     1     -11.319  -4.434  13.913  0.00  0.00    +0.000 A 
ATOM     12  C   UNL     1     -11.475  -3.147  13.399  0.00  0.00    +0.000 A 
ATOM     13  C   UNL     1     -10.535  -2.181  12.848  0.00  0.00    +0.000 A 
ATOM     14  C   UNL     1     -11.226  -0.984  12.729  0.00  0.00    +0.000 A 
ATOM     15  N   UNL     1     -12.537  -1.350  13.022  0.00  0.00    +0.000 N 
ATOM     16  C   UNL     1     -12.358  -2.277  14.067  0.00  0.00    +0.000 A 
ATOM     17  C   UNL     1     -10.895  -3.191  17.356  0.00  0.00    +0.000 A 
ATOM     18  N   UNL     1     -10.269  -4.023  18.279  0.00  0.00    +0.000 N 
ATOM     19  C   UNL     1      -9.692  -3.273  19.319  0.00  0.00    +0.000 A 
ATOM     20  C   UNL     1      -9.038  -3.677  20.505  0.00  0.00    +0.000 A 
ATOM     21  C   UNL     1     -12.134   0.344  15.571  0.00  0.00    +0.000 C 
ATOM     22  O   UNL     1     -13.110   0.817  14.989  0.00  0.00    +0.000 OA
ATOM     23  N   UNL     1     -11.081   1.104  16.005  0.00  0.00    +0.000 N 
ATOM     24  C   UNL     1     -10.370   0.533  17.035  0.00  0.00    +0.000 C 
ATOM     25  O   UNL     1      -9.388   1.072  17.523  0.00  0.00    +0.000 OA
ATOM     26  H   UNL     1      -8.212  -0.557  21.675  0.00  0.00    +0.000 HD
ATOM     27  H   UNL     1      -9.317   0.105  19.640  0.00  0.00    +0.000 HD
ATOM     28  H   UNL     1     -11.012  -5.450  15.722  0.00  0.00    +0.000 HD
ATOM     29  H   UNL     1     -10.894  -5.243  13.334  0.00  0.00    +0.000 HD
ATOM     30  H   UNL     1      -9.472  -2.323  12.714  0.00  0.00    +0.000 HD
ATOM     31  H   UNL     1     -10.982   0.018  12.406  0.00  0.00    +0.000 HD
ATOM     32  H   UNL     1      -8.929  -4.716  20.778  0.00  0.00    +0.000 HD
ATOM     33  H   UNL     1     -10.466   1.399  15.255  0.00  0.00    +0.000 HD
ENDROOT
BRANCH  15  34
ATOM     34  C   UNL     1     -13.409  -1.646  11.875  0.00  0.00    +0.000 C 
ATOM     35  H   UNL     1     -13.419  -2.725  11.719  0.00  0.00    +0.000 HD
ATOM     36  H   UNL     1     -13.050  -1.111  10.992  0.00  0.00    +0.000 HD
ATOM     37  H   UNL     1     -14.426  -1.305  12.115  0.00  0.00    +0.000 HD
ENDBRANCH  15  34
BRANCH  18  38
ATOM     38  C   UNL     1     -10.189  -5.474  18.185  0.00  0.00    +0.000 C 
ATOM     39  H   UNL     1     -11.041  -5.814  17.593  0.00  0.00    +0.000 HD
ATOM     40  H   UNL     1     -10.360  -5.876  19.190  0.00  0.00    +0.000 HD
BRANCH  38  41
ATOM     41  C   UNL     1      -8.876  -5.971  17.572  0.00  0.00    +0.000 C 
ATOM     42  H   UNL     1      -8.058  -5.262  17.713  0.00  0.00    +0.000 HD
ATOM     43  H   UNL     1      -8.975  -6.035  16.482  0.00  0.00    +0.000 HD
BRANCH  41  44
ATOM     44  C   UNL     1      -8.449  -7.310  18.182  0.00  0.00    +0.000 C 
ATOM     45  H   UNL     1      -8.515  -7.221  19.275  0.00  0.00    +0.000 HD
ATOM     46  H   UNL     1      -7.394  -7.497  17.943  0.00  0.00    +0.000 HD
BRANCH  44  47
ATOM     47  N   UNL     1      -9.299  -8.418  17.724  0.00  0.00    +0.000 NA
ATOM     48  C   UNL     1      -9.578  -8.308  16.286  0.00  0.00    +0.000 C 
ATOM     49  C   UNL     1     -10.523  -9.411  15.831  0.00  0.00    +0.000 C 
ATOM     50  C   UNL     1      -9.915 -10.785  16.103  0.00  0.00    +0.000 C 
ATOM     51  C   UNL     1      -9.556 -10.884  17.590  0.00  0.00    +0.000 C 
ATOM     52  C   UNL     1      -8.686  -9.713  18.061  0.00  0.00    +0.000 C 
ATOM     53  H   UNL     1      -8.648  -8.317  15.704  0.00  0.00    +0.000 HD
ATOM     54  H   UNL     1     -10.092  -7.370  16.059  0.00  0.00    +0.000 HD
ATOM     55  H   UNL     1     -10.756  -9.266  14.772  0.00  0.00    +0.000 HD
ATOM     56  H   UNL     1     -11.475  -9.316  16.371  0.00  0.00    +0.000 HD
ATOM     57  H   UNL     1     -10.654 -11.560  15.865  0.00  0.00    +0.000 HD
ATOM     58  H   UNL     1      -9.047 -11.831  17.803  0.00  0.00    +0.000 HD
ATOM     59  H   UNL     1     -10.486 -10.890  18.177  0.00  0.00    +0.000 HD
ATOM     60  H   UNL     1      -7.677  -9.791  17.642  0.00  0.00    +0.000 HD
ATOM     61  H   UNL     1      -8.580  -9.794  19.152  0.00  0.00    +0.000 HD
BRANCH  50  62
ATOM     62  C   UNL     1      -8.706 -11.039  15.205  0.00  0.00    +0.000 C 
ATOM     63  N   UNL     1      -8.020 -12.191  15.458  0.00  0.00    +0.000 N 
ATOM     64  O   UNL     1      -8.329 -10.285  14.315  0.00  0.00    +0.000 OA
ATOM     65  H   UNL     1      -8.200 -12.779  16.259  0.00  0.00    +0.000 HD
ATOM     66  H   UNL     1      -7.199 -12.375  14.897  0.00  0.00    +0.000 HD
ENDBRANCH  50  62
ENDBRANCH  44  47
ENDBRANCH  41  44
ENDBRANCH  38  41
ENDBRANCH  18  38
BRANCH   1  67
ATOM     67  O   UNL     1      -7.996  -3.155  22.542  0.00  0.00    +0.000 OA
BRANCH  67  68
ATOM     68  C   UNL     1      -8.721  -2.816  23.734  0.00  0.00    +0.000 C 
ATOM     69  H   UNL     1      -9.096  -3.763  24.183  0.00  0.00    +0.000 HD
ATOM     70  H   UNL     1      -9.561  -2.184  23.528  0.00  0.00    +0.000 HD
ATOM     71  H   UNL     1      -8.053  -2.371  24.494  0.00  0.00    +0.000 HD
ENDBRANCH  67  68
ENDBRANCH   1  67
TORSDOF 8
ENDMDL
MODEL 7
REMARK VINA RESULT:    -8.590      1.953      3.081
REMARK INTER + INTRA:         -13.035
REMARK INTER:                 -12.125
REMARK INTRA:                  -0.911
REMARK UNBOUND:                -0.930
REMARK  Name = 
REMARK  8 active torsions:
REMARK  status: ('A' for Active; 'I' for Inactive)
REMARK    1  A    between atoms: C_1  and  O_2
REMARK    2  A    between atoms: O_2  and  C_3
REMARK    3  A    between atoms: N_17  and  C_18
REMARK    4  A    between atoms: N_21  and  C_22
REMARK    5  A    between atoms: C_22  and  C_23
REMARK    6  A    between atoms: C_23  and  C_24
REMARK    7  A    between atoms: C_24  and  N_25
REMARK    8  A    between atoms: C_28  and  C_29
REMARK                            x       y       z     vdW  Elec       q    Type
REMARK                         _______ _______ _______ _____ _____    ______ ____
ROOT
ATOM      1  C   UNL     1      -8.502  -4.855  19.961  0.00  0.00    +0.000 A 
ATOM      2  C   UNL     1      -8.534  -3.526  20.371  0.00  0.00    +0.000 A 
ATOM      3  C   UNL     1      -9.238  -2.583  19.654  0.00  0.00    +0.000 A 
ATOM      4  C   UNL     1      -9.929  -2.943  18.476  0.00  0.00    +0.000 A 
ATOM      5  C   UNL     1     -10.779  -2.348  17.551  0.00  0.00    +0.000 A 
ATOM      6  C   UNL     1     -11.109  -0.979  17.581  0.00  0.00    +0.000 A 
ATOM      7  C   UNL     1     -12.123  -0.569  16.707  0.00  0.00    +0.000 A 
ATOM      8  C   UNL     1     -12.494  -1.285  15.568  0.00  0.00    +0.000 A 
ATOM      9  C   UNL     1     -11.951  -2.604  15.424  0.00  0.00    +0.000 A 
ATOM     10  C   UNL     1     -11.919  -3.190  14.146  0.00  0.00    +0.000 A 
ATOM     11  C   UNL     1     -11.992  -2.383  13.003  0.00  0.00    +0.000 A 
ATOM     12  C   UNL     1     -12.117  -1.018  13.261  0.00  0.00    +0.000 A 
ATOM     13  C   UNL     1     -11.175   0.090  13.208  0.00  0.00    +0.000 A 
ATOM     14  C   UNL     1     -11.803   1.172  13.807  0.00  0.00    +0.000 A 
ATOM     15  N   UNL     1     -13.103   0.711  13.996  0.00  0.00    +0.000 N 
ATOM     16  C   UNL     1     -12.889  -0.630  14.373  0.00  0.00    +0.000 A 
ATOM     17  C   UNL     1     -11.207  -3.149  16.521  0.00  0.00    +0.000 A 
ATOM     18  N   UNL     1     -10.552  -4.345  16.799  0.00  0.00    +0.000 N 
ATOM     19  C   UNL     1      -9.847  -4.260  18.013  0.00  0.00    +0.000 A 
ATOM     20  C   UNL     1      -9.118  -5.232  18.735  0.00  0.00    +0.000 A 
ATOM     21  C   UNL     1     -12.389   0.800  16.998  0.00  0.00    +0.000 C 
ATOM     22  O   UNL     1     -13.382   1.513  16.855  0.00  0.00    +0.000 OA
ATOM     23  N   UNL     1     -11.262   1.212  17.656  0.00  0.00    +0.000 N 
ATOM     24  C   UNL     1     -10.499   0.181  18.153  0.00  0.00    +0.000 C 
ATOM     25  O   UNL     1      -9.450   0.376  18.748  0.00  0.00    +0.000 OA
ATOM     26  H   UNL     1      -8.019  -3.205  21.278  0.00  0.00    +0.000 HD
ATOM     27  H   UNL     1      -9.254  -1.563  20.021  0.00  0.00    +0.000 HD
ATOM     28  H   UNL     1     -11.590  -4.203  13.966  0.00  0.00    +0.000 HD
ATOM     29  H   UNL     1     -11.665  -2.765  12.046  0.00  0.00    +0.000 HD
ATOM     30  H   UNL     1     -10.136   0.037  12.911  0.00  0.00    +0.000 HD
ATOM     31  H   UNL     1     -11.531   2.192  14.035  0.00  0.00    +0.000 HD
ATOM     32  H   UNL     1      -9.047  -6.259  18.409  0.00  0.00    +0.000 HD
ATOM     33  H   UNL     1     -10.697   1.857  17.114  0.00  0.00    +0.000 HD
ENDROOT
BRANCH  15  34
ATOM     34  C   UNL     1     -14.086   1.069  12.961  0.00  0.00    +0.000 C 
ATOM     35  H   UNL     1     -15.059   0.678  13.260  0.00  0.00    +0.000 HD
ATOM     36  H   UNL     1     -13.766   0.667  11.996  0.00  0.00    +0.000 HD
ATOM     37  H   UNL     1     -14.139   2.165  12.896  0.00  0.00    +0.000 HD
ENDBRANCH  15  34
BRANCH  18  38
ATOM     38  C   UNL     1     -10.564  -5.527  15.950  0.00  0.00    +0.000 C 
ATOM     39  H   UNL     1     -11.374  -5.407  15.228  0.00  0.00    +0.000 HD
ATOM     40  H   UNL     1     -10.861  -6.377  16.575  0.00  0.00    +0.000 HD
BRANCH  38  41
ATOM     41  C   UNL     1      -9.234  -5.769  15.229  0.00  0.00    +0.000 C 
ATOM     42  H   UNL     1      -8.554  -4.919  15.315  0.00  0.00    +0.000 HD
ATOM     43  H   UNL     1      -9.404  -5.853  14.149  0.00  0.00    +0.000 HD
BRANCH  41  44
ATOM     44  C   UNL     1      -8.516  -7.003  15.786  0.00  0.00    +0.000 C 
ATOM     45  H   UNL     1      -8.292  -6.815  16.845  0.00  0.00    +0.000 HD
ATOM     46  H   UNL     1      -7.551  -7.123  15.276  0.00  0.00    +0.000 HD
BRANCH  44  47
ATOM     47  N   UNL     1      -9.334  -8.218  15.662  0.00  0.00    +0.000 NA
ATOM     48  C   UNL     1      -8.724  -9.168  14.723  0.00  0.00    +0.000 C 
ATOM     49  C   UNL     1      -9.612 -10.390  14.535  0.00  0.00    +0.000 C 
ATOM     50  C   UNL     1      -9.837 -11.101  15.867  0.00  0.00    +0.000 C 
ATOM     51  C   UNL     1     -10.410 -10.098  16.875  0.00  0.00    +0.000 C 
ATOM     52  C   UNL     1      -9.560  -8.826  16.982  0.00  0.00    +0.000 C 
ATOM     53  H   UNL     1      -7.718  -9.456  15.054  0.00  0.00    +0.000 HD
ATOM     54  H   UNL     1      -8.622  -8.725  13.730  0.00  0.00    +0.000 HD
ATOM     55  H   UNL     1      -9.158 -11.049  13.788  0.00  0.00    +0.000 HD
ATOM     56  H   UNL     1     -10.578 -10.073  14.119  0.00  0.00    +0.000 HD
ATOM     57  H   UNL     1     -10.561 -11.912  15.726  0.00  0.00    +0.000 HD
ATOM     58  H   UNL     1     -10.511 -10.558  17.865  0.00  0.00    +0.000 HD
ATOM     59  H   UNL     1     -11.423  -9.817  16.555  0.00  0.00    +0.000 HD
ATOM     60  H   UNL     1      -8.610  -9.041  17.484  0.00  0.00    +0.000 HD
ATOM     61  H   UNL     1     -10.101  -8.117  17.624  0.00  0.00    +0.000 HD
BRANCH  50  62
ATOM     62  C   UNL     1      -8.548 -11.745  16.372  0.00  0.00    +0.000 C 
ATOM     63  N   UNL     1      -7.790 -12.362  15.419  0.00  0.00    +0.000 N 
ATOM     64  O   UNL     1      -8.181 -11.746  17.542  0.00  0.00    +0.000 OA
ATOM     65  H   UNL     1      -8.104 -12.511  14.472  0.00  0.00    +0.000 HD
ATOM     66  H   UNL     1      -6.942 -12.821  15.726  0.00  0.00    +0.000 HD
ENDBRANCH  50  62
ENDBRANCH  44  47
ENDBRANCH  41  44
ENDBRANCH  38  41
ENDBRANCH  18  38
BRANCH   1  67
ATOM     67  O   UNL     1      -7.878  -5.869  20.623  0.00  0.00    +0.000 OA
BRANCH  67  68
ATOM     68  C   UNL     1      -7.848  -7.111  19.903  0.00  0.00    +0.000 C 
ATOM     69  H   UNL     1      -8.608  -7.051  19.093  0.00  0.00    +0.000 HD
ATOM     70  H   UNL     1      -8.087  -7.947  20.530  0.00  0.00    +0.000 HD
ATOM     71  H   UNL     1      -6.878  -7.251  19.391  0.00  0.00    +0.000 HD
ENDBRANCH  67  68
ENDBRANCH   1  67
TORSDOF 8
ENDMDL
MODEL 8
REMARK VINA RESULT:    -8.561      4.023      6.666
REMARK INTER + INTRA:         -12.994
REMARK INTER:                 -12.260
REMARK INTRA:                  -0.735
REMARK UNBOUND:                -0.930
REMARK  Name = 
REMARK  8 active torsions:
REMARK  status: ('A' for Active; 'I' for Inactive)
REMARK    1  A    between atoms: C_1  and  O_2
REMARK    2  A    between atoms: O_2  and  C_3
REMARK    3  A    between atoms: N_17  and  C_18
REMARK    4  A    between atoms: N_21  and  C_22
REMARK    5  A    between atoms: C_22  and  C_23
REMARK    6  A    between atoms: C_23  and  C_24
REMARK    7  A    between atoms: C_24  and  N_25
REMARK    8  A    between atoms: C_28  and  C_29
REMARK                            x       y       z     vdW  Elec       q    Type
REMARK                         _______ _______ _______ _____ _____    ______ ____
ROOT
ATOM      1  C   UNL     1      -7.508  -3.010  21.948  0.00  0.00    +0.000 A 
ATOM      2  C   UNL     1      -7.307  -2.161  23.031  0.00  0.00    +0.000 A 
ATOM      3  C   UNL     1      -8.093  -1.042  23.206  0.00  0.00    +0.000 A 
ATOM      4  C   UNL     1      -9.108  -0.723  22.277  0.00  0.00    +0.000 A 
ATOM      5  C   UNL     1     -10.120   0.218  22.132  0.00  0.00    +0.000 A 
ATOM      6  C   UNL     1     -10.305   1.290  23.026  0.00  0.00    +0.000 A 
ATOM      7  C   UNL     1     -11.479   2.037  22.861  0.00  0.00    +0.000 A 
ATOM      8  C   UNL     1     -12.208   2.070  21.672  0.00  0.00    +0.000 A 
ATOM      9  C   UNL     1     -11.846   1.122  20.660  0.00  0.00    +0.000 A 
ATOM     10  C   UNL     1     -12.216   1.375  19.326  0.00  0.00    +0.000 A 
ATOM     11  C   UNL     1     -12.525   2.680  18.921  0.00  0.00    +0.000 A 
ATOM     12  C   UNL     1     -12.452   3.636  19.933  0.00  0.00    +0.000 A 
ATOM     13  C   UNL     1     -11.464   4.653  20.265  0.00  0.00    +0.000 A 
ATOM     14  C   UNL     1     -11.806   5.141  21.518  0.00  0.00    +0.000 A 
ATOM     15  N   UNL     1     -13.041   4.545  21.758  0.00  0.00    +0.000 N 
ATOM     16  C   UNL     1     -12.854   3.253  21.228  0.00  0.00    +0.000 A 
ATOM     17  C   UNL     1     -10.883   0.115  20.995  0.00  0.00    +0.000 A 
ATOM     18  N   UNL     1     -10.288  -0.966  20.350  0.00  0.00    +0.000 N 
ATOM     19  C   UNL     1      -9.274  -1.528  21.145  0.00  0.00    +0.000 A 
ATOM     20  C   UNL     1      -8.466  -2.672  20.951  0.00  0.00    +0.000 A 
ATOM     21  C   UNL     1     -11.530   2.966  23.938  0.00  0.00    +0.000 C 
ATOM     22  O   UNL     1     -12.457   3.545  24.506  0.00  0.00    +0.000 OA
ATOM     23  N   UNL     1     -10.234   3.024  24.374  0.00  0.00    +0.000 N 
ATOM     24  C   UNL     1      -9.461   1.964  23.963  0.00  0.00    +0.000 C 
ATOM     25  O   UNL     1      -8.277   1.874  24.248  0.00  0.00    +0.000 OA
ATOM     26  H   UNL     1      -6.538  -2.372  23.776  0.00  0.00    +0.000 HD
ATOM     27  H   UNL     1      -7.916  -0.420  24.075  0.00  0.00    +0.000 HD
ATOM     28  H   UNL     1     -12.041   0.678  18.520  0.00  0.00    +0.000 HD
ATOM     29  H   UNL     1     -12.507   2.942  17.872  0.00  0.00    +0.000 HD
ATOM     30  H   UNL     1     -10.555   4.868  19.721  0.00  0.00    +0.000 HD
ATOM     31  H   UNL     1     -11.391   5.867  22.201  0.00  0.00    +0.000 HD
ATOM     32  H   UNL     1      -8.579  -3.318  20.094  0.00  0.00    +0.000 HD
ATOM     33  H   UNL     1      -9.783   3.909  24.168  0.00  0.00    +0.000 HD
ENDROOT
BRANCH  15  34
ATOM     34  C   UNL     1     -14.232   5.344  21.429  0.00  0.00    +0.000 C 
ATOM     35  H   UNL     1     -14.909   4.726  20.839  0.00  0.00    +0.000 HD
ATOM     36  H   UNL     1     -13.932   6.247  20.890  0.00  0.00    +0.000 HD
ATOM     37  H   UNL     1     -14.728   5.631  22.367  0.00  0.00    +0.000 HD
ENDBRANCH  15  34
BRANCH  18  38
ATOM     38  C   UNL     1     -10.637  -1.447  19.021  0.00  0.00    +0.000 C 
ATOM     39  H   UNL     1      -9.707  -1.675  18.497  0.00  0.00    +0.000 HD
ATOM     40  H   UNL     1     -11.076  -0.606  18.473  0.00  0.00    +0.000 HD
BRANCH  38  41
ATOM     41  C   UNL     1     -11.556  -2.673  19.043  0.00  0.00    +0.000 C 
ATOM     42  H   UNL     1     -12.613  -2.399  19.070  0.00  0.00    +0.000 HD
ATOM     43  H   UNL     1     -11.411  -3.231  19.975  0.00  0.00    +0.000 HD
BRANCH  41  44
ATOM     44  C   UNL     1     -11.332  -3.558  17.812  0.00  0.00    +0.000 C 
ATOM     45  H   UNL     1     -10.522  -3.113  17.218  0.00  0.00    +0.000 HD
ATOM     46  H   UNL     1     -12.232  -3.539  17.183  0.00  0.00    +0.000 HD
BRANCH  44  47
ATOM     47  N   UNL     1     -10.975  -4.934  18.183  0.00  0.00    +0.000 NA
ATOM     48  C   UNL     1     -11.332  -5.876  17.114  0.00  0.00    +0.000 C 
ATOM     49  C   UNL     1     -11.035  -7.309  17.532  0.00  0.00    +0.000 C 
ATOM     50  C   UNL     1      -9.552  -7.479  17.852  0.00  0.00    +0.000 C 
ATOM     51  C   UNL     1      -9.153  -6.453  18.919  0.00  0.00    +0.000 C 
ATOM     52  C   UNL     1      -9.548  -5.023  18.531  0.00  0.00    +0.000 C 
ATOM     53  H   UNL     1     -10.818  -5.621  16.178  0.00  0.00    +0.000 HD
ATOM     54  H   UNL     1     -12.406  -5.847  16.910  0.00  0.00    +0.000 HD
ATOM     55  H   UNL     1     -11.366  -7.988  16.739  0.00  0.00    +0.000 HD
ATOM     56  H   UNL     1     -11.634  -7.557  18.419  0.00  0.00    +0.000 HD
ATOM     57  H   UNL     1      -9.382  -8.487  18.250  0.00  0.00    +0.000 HD
ATOM     58  H   UNL     1      -8.076  -6.498  19.115  0.00  0.00    +0.000 HD
ATOM     59  H   UNL     1      -9.655  -6.712  19.862  0.00  0.00    +0.000 HD
ATOM     60  H   UNL     1      -8.920  -4.660  17.709  0.00  0.00    +0.000 HD
ATOM     61  H   UNL     1      -9.341  -4.375  19.394  0.00  0.00    +0.000 HD
BRANCH  50  62
ATOM     62  C   UNL     1      -8.700  -7.354  16.591  0.00  0.00    +0.000 C 
ATOM     63  N   UNL     1      -7.608  -6.543  16.701  0.00  0.00    +0.000 N 
ATOM     64  O   UNL     1      -8.944  -7.913  15.528  0.00  0.00    +0.000 OA
ATOM     65  H   UNL     1      -7.433  -5.954  17.502  0.00  0.00    +0.000 HD
ATOM     66  H   UNL     1      -7.038  -6.418  15.875  0.00  0.00    +0.000 HD
ENDBRANCH  50  62
ENDBRANCH  44  47
ENDBRANCH  41  44
ENDBRANCH  38  41
ENDBRANCH  18  38
BRANCH   1  67
ATOM     67  O   UNL     1      -6.821  -4.163  21.711  0.00  0.00    +0.000 OA
BRANCH  67  68
ATOM     68  C   UNL     1      -5.455  -3.965  21.318  0.00  0.00    +0.000 C 
ATOM     69  H   UNL     1      -4.849  -4.775  21.783  0.00  0.00    +0.000 HD
ATOM     70  H   UNL     1      -5.071  -3.023  21.653  0.00  0.00    +0.000 HD
ATOM     71  H   UNL     1      -5.332  -4.091  20.227  0.00  0.00    +0.000 HD
ENDBRANCH  67  68
ENDBRANCH   1  67
TORSDOF 8
ENDMDL
MODEL 9
REMARK VINA RESULT:    -8.500      2.212      6.013
REMARK INTER + INTRA:         -12.908
REMARK INTER:                 -12.343
REMARK INTRA:                  -0.565
REMARK UNBOUND:                -0.930
REMARK  Name = 
REMARK  8 active torsions:
REMARK  status: ('A' for Active; 'I' for Inactive)
REMARK    1  A    between atoms: C_1  and  O_2
REMARK    2  A    between atoms: O_2  and  C_3
REMARK    3  A    between atoms: N_17  and  C_18
REMARK    4  A    between atoms: N_21  and  C_22
REMARK    5  A    between atoms: C_22  and  C_23
REMARK    6  A    between atoms: C_23  and  C_24
REMARK    7  A    between atoms: C_24  and  N_25
REMARK    8  A    between atoms: C_28  and  C_29
REMARK                            x       y       z     vdW  Elec       q    Type
REMARK                         _______ _______ _______ _____ _____    ______ ____
ROOT
ATOM      1  C   UNL     1     -11.293  -3.435  14.279  0.00  0.00    +0.000 A 
ATOM      2  C   UNL     1     -11.927  -2.197  14.269  0.00  0.00    +0.000 A 
ATOM      3  C   UNL     1     -11.833  -1.347  15.350  0.00  0.00    +0.000 A 
ATOM      4  C   UNL     1     -11.104  -1.724  16.500  0.00  0.00    +0.000 A 
ATOM      5  C   UNL     1     -10.717  -1.161  17.710  0.00  0.00    +0.000 A 
ATOM      6  C   UNL     1     -11.131   0.118  18.130  0.00  0.00    +0.000 A 
ATOM      7  C   UNL     1     -10.505   0.624  19.276  0.00  0.00    +0.000 A 
ATOM      8  C   UNL     1      -9.868  -0.178  20.223  0.00  0.00    +0.000 A 
ATOM      9  C   UNL     1      -9.667  -1.555  19.880  0.00  0.00    +0.000 A 
ATOM     10  C   UNL     1      -9.449  -2.488  20.910  0.00  0.00    +0.000 A 
ATOM     11  C   UNL     1      -9.845  -2.191  22.220  0.00  0.00    +0.000 A 
ATOM     12  C   UNL     1     -10.423  -0.932  22.382  0.00  0.00    +0.000 A 
ATOM     13  C   UNL     1     -11.801  -0.489  22.541  0.00  0.00    +0.000 A 
ATOM     14  C   UNL     1     -11.789   0.892  22.410  0.00  0.00    +0.000 A 
ATOM     15  N   UNL     1     -10.429   1.190  22.378  0.00  0.00    +0.000 N 
ATOM     16  C   UNL     1      -9.913   0.128  21.608  0.00  0.00    +0.000 A 
ATOM     17  C   UNL     1      -9.983  -1.969  18.544  0.00  0.00    +0.000 A 
ATOM     18  N   UNL     1      -9.923  -3.153  17.815  0.00  0.00    +0.000 N 
ATOM     19  C   UNL     1     -10.521  -2.994  16.553  0.00  0.00    +0.000 A 
ATOM     20  C   UNL     1     -10.621  -3.877  15.453  0.00  0.00    +0.000 A 
ATOM     21  C   UNL     1     -10.964   1.963  19.438  0.00  0.00    +0.000 C 
ATOM     22  O   UNL     1     -10.480   2.958  19.977  0.00  0.00    +0.000 OA
ATOM     23  N   UNL     1     -12.115   1.998  18.698  0.00  0.00    +0.000 N 
ATOM     24  C   UNL     1     -12.223   0.974  17.787  0.00  0.00    +0.000 C 
ATOM     25  O   UNL     1     -13.199   0.848  17.063  0.00  0.00    +0.000 OA
ATOM     26  H   UNL     1     -12.495  -1.864  13.399  0.00  0.00    +0.000 HD
ATOM     27  H   UNL     1     -12.324  -0.383  15.292  0.00  0.00    +0.000 HD
ATOM     28  H   UNL     1      -9.221  -3.528  20.729  0.00  0.00    +0.000 HD
ATOM     29  H   UNL     1      -9.970  -2.985  22.944  0.00  0.00    +0.000 HD
ATOM     30  H   UNL     1     -12.678  -1.119  22.587  0.00  0.00    +0.000 HD
ATOM     31  H   UNL     1     -12.534   1.674  22.422  0.00  0.00    +0.000 HD
ATOM     32  H   UNL     1     -10.172  -4.859  15.461  0.00  0.00    +0.000 HD
ATOM     33  H   UNL     1     -12.952   2.073  19.266  0.00  0.00    +0.000 HD
ENDROOT
BRANCH  15  34
ATOM     34  C   UNL     1      -9.811   1.583  23.654  0.00  0.00    +0.000 C 
ATOM     35  H   UNL     1     -10.127   0.877  24.422  0.00  0.00    +0.000 HD
ATOM     36  H   UNL     1     -10.098   2.609  23.901  0.00  0.00    +0.000 HD
ATOM     37  H   UNL     1      -8.719   1.532  23.541  0.00  0.00    +0.000 HD
ENDBRANCH  15  34
BRANCH  18  38
ATOM     38  C   UNL     1      -9.344  -4.402  18.287  0.00  0.00    +0.000 C 
ATOM     39  H   UNL     1      -8.871  -4.204  19.251  0.00  0.00    +0.000 HD
ATOM     40  H   UNL     1      -8.521  -4.658  17.610  0.00  0.00    +0.000 HD
BRANCH  38  41
ATOM     41  C   UNL     1     -10.368  -5.535  18.414  0.00  0.00    +0.000 C 
ATOM     42  H   UNL     1     -10.834  -5.783  17.459  0.00  0.00    +0.000 HD
ATOM     43  H   UNL     1     -11.212  -5.207  19.033  0.00  0.00    +0.000 HD
BRANCH  41  44
ATOM     44  C   UNL     1      -9.723  -6.809  18.967  0.00  0.00    +0.000 C 
ATOM     45  H   UNL     1     -10.006  -6.901  20.025  0.00  0.00    +0.000 HD
ATOM     46  H   UNL     1      -8.630  -6.703  18.942  0.00  0.00    +0.000 HD
BRANCH  44  47
ATOM     47  N   UNL     1     -10.154  -8.007  18.234  0.00  0.00    +0.000 NA
ATOM     48  C   UNL     1     -10.721  -7.648  16.928  0.00  0.00    +0.000 C 
ATOM     49  C   UNL     1     -11.241  -8.883  16.205  0.00  0.00    +0.000 C 
ATOM     50  C   UNL     1     -10.114  -9.890  15.984  0.00  0.00    +0.000 C 
ATOM     51  C   UNL     1      -9.470 -10.218  17.336  0.00  0.00    +0.000 C 
ATOM     52  C   UNL     1      -9.041  -8.961  18.101  0.00  0.00    +0.000 C 
ATOM     53  H   UNL     1      -9.987  -7.109  16.316  0.00  0.00    +0.000 HD
ATOM     54  H   UNL     1     -11.587  -6.992  17.046  0.00  0.00    +0.000 HD
ATOM     55  H   UNL     1     -11.708  -8.575  15.264  0.00  0.00    +0.000 HD
ATOM     56  H   UNL     1     -12.035  -9.346  16.806  0.00  0.00    +0.000 HD
ATOM     57  H   UNL     1     -10.531 -10.810  15.558  0.00  0.00    +0.000 HD
ATOM     58  H   UNL     1      -8.607 -10.881  17.202  0.00  0.00    +0.000 HD
ATOM     59  H   UNL     1     -10.197 -10.771  17.948  0.00  0.00    +0.000 HD
ATOM     60  H   UNL     1      -8.178  -8.491  17.615  0.00  0.00    +0.000 HD
ATOM     61  H   UNL     1      -8.707  -9.275  19.099  0.00  0.00    +0.000 HD
BRANCH  50  62
ATOM     62  C   UNL     1      -9.094  -9.362  14.977  0.00  0.00    +0.000 C 
ATOM     63  N   UNL     1      -8.414 -10.316  14.278  0.00  0.00    +0.000 N 
ATOM     64  O   UNL     1      -8.857  -8.174  14.784  0.00  0.00    +0.000 OA
ATOM     65  H   UNL     1      -8.467 -11.301  14.489  0.00  0.00    +0.000 HD
ATOM     66  H   UNL     1      -7.712  -9.998  13.622  0.00  0.00    +0.000 HD
ENDBRANCH  50  62
ENDBRANCH  44  47
ENDBRANCH  41  44
ENDBRANCH  38  41
ENDBRANCH  18  38
BRANCH   1  67
ATOM     67  O   UNL     1     -11.283  -4.325  13.246  0.00  0.00    +0.000 OA
BRANCH  67  68
ATOM     68  C   UNL     1     -11.553  -3.741  11.963  0.00  0.00    +0.000 C 
ATOM     69  H   UNL     1     -10.596  -3.711  11.396  0.00  0.00    +0.000 HD
ATOM     70  H   UNL     1     -11.928  -2.741  12.046  0.00  0.00    +0.000 HD
ATOM     71  H   UNL     1     -12.230  -4.381  11.369  0.00  0.00    +0.000 HD
ENDBRANCH  67  68
ENDBRANCH   1  67
TORSDOF 8
ENDMDL
