
 OpenBabel01112422143D

 41 45  0  0  0  0  0  0  0  0999 V2000
   -0.6540    1.3921    0.7132 C   0  0  0  0  0  0  0  0  0  0  0  0
    0.1345    0.2681    0.2593 N   0  0  0  0  0  0  0  0  0  0  0  0
   -0.1318   -1.0444    0.5487 C   0  0  0  0  0  0  0  0  0  0  0  0
    0.8464   -1.8097   -0.0443 C   0  0  0  0  0  0  0  0  0  0  0  0
    0.9104   -3.2231    0.0196 C   0  0  0  0  0  0  0  0  0  0  0  0
    1.4819   -4.0044    0.9474 C   0  0  0  0  0  0  0  0  0  0  0  0
    2.1772   -3.6408    2.1251 C   0  0  0  0  0  0  0  0  0  0  0  0
    3.5275   -3.3747    2.1791 C   0  0  0  0  0  0  0  0  0  0  0  0
    3.8521   -3.1344    3.4883 N   0  0  0  0  0  0  0  0  0  0  0  0
    2.7321   -3.2344    4.2835 C   0  0  0  0  0  0  0  0  0  0  0  0
    2.5988   -3.1037    5.6710 C   0  0  0  0  0  0  0  0  0  0  0  0
    1.3219   -3.2633    6.2058 C   0  0  0  0  0  0  0  0  0  0  0  0
    1.1569   -3.1631    7.5323 F   0  0  0  0  0  0  0  0  0  0  0  0
    0.2180   -3.5254    5.4053 C   0  0  0  0  0  0  0  0  0  0  0  0
    0.3675   -3.6564    4.0192 C   0  0  0  0  0  0  0  0  0  0  0  0
    1.6511   -3.5235    3.4450 C   0  0  0  0  0  0  0  0  0  0  0  0
    1.2838   -5.4103    0.5248 C   0  0  0  0  0  0  0  0  0  0  0  0
    1.6789   -6.4066    1.1011 O   0  0  0  0  0  0  0  0  0  0  0  0
    0.5899   -5.3854   -0.6305 N   0  0  0  0  0  0  0  0  0  0  0  0
    0.3205   -4.1161   -1.0032 C   0  0  0  0  0  0  0  0  0  0  0  0
   -0.3005   -3.7819   -1.9948 O   0  0  0  0  0  0  0  0  0  0  0  0
    1.7481   -0.9318   -0.7140 C   0  0  0  0  0  0  0  0  0  0  0  0
    2.9258   -1.1115   -1.4715 C   0  0  0  0  0  0  0  0  0  0  0  0
    3.5725    0.0017   -2.0207 C   0  0  0  0  0  0  0  0  0  0  0  0
    3.0641    1.2827   -1.8294 C   0  0  0  0  0  0  0  0  0  0  0  0
    1.9047    1.4898   -1.0779 C   0  0  0  0  0  0  0  0  0  0  0  0
    1.2670    0.3681   -0.5235 C   0  0  0  0  0  0  0  0  0  0  0  0
   -1.5011    1.0328    1.3023 H   0  0  0  0  0  0  0  0  0  0  0  0
   -1.0159    1.9380   -0.1619 H   0  0  0  0  0  0  0  0  0  0  0  0
   -0.0177    2.0311    1.3314 H   0  0  0  0  0  0  0  0  0  0  0  0
   -0.9930   -1.3220    1.1458 H   0  0  0  0  0  0  0  0  0  0  0  0
    4.2901   -3.3565    1.4115 H   0  0  0  0  0  0  0  0  0  0  0  0
    4.7824   -2.9356    3.8303 H   0  0  0  0  0  0  0  0  0  0  0  0
    3.4449   -2.9005    6.3168 H   0  0  0  0  0  0  0  0  0  0  0  0
   -0.7587   -3.6389    5.8656 H   0  0  0  0  0  0  0  0  0  0  0  0
   -0.4981   -3.8693    3.3989 H   0  0  0  0  0  0  0  0  0  0  0  0
    0.3129   -6.2021   -1.1477 H   0  0  0  0  0  0  0  0  0  0  0  0
    3.3305   -2.1055   -1.6353 H   0  0  0  0  0  0  0  0  0  0  0  0
    4.4767   -0.1373   -2.6081 H   0  0  0  0  0  0  0  0  0  0  0  0
    3.5739    2.1360   -2.2709 H   0  0  0  0  0  0  0  0  0  0  0  0
    1.5133    2.4921   -0.9368 H   0  0  0  0  0  0  0  0  0  0  0  0
  1  2  1  0  0  0  0
  1 28  1  0  0  0  0
  1 29  1  0  0  0  0
  1 30  1  0  0  0  0
  2  3  1  0  0  0  0
  2 27  1  0  0  0  0
  3  4  2  0  0  0  0
  3 31  1  0  0  0  0
  4  5  1  0  0  0  0
  4 22  1  0  0  0  0
  5  6  2  0  0  0  0
  5 20  1  0  0  0  0
  6  7  1  0  0  0  0
  6 17  1  0  0  0  0
  7  8  2  0  0  0  0
  7 16  1  0  0  0  0
  8  9  1  0  0  0  0
  8 32  1  0  0  0  0
  9 10  1  0  0  0  0
  9 33  1  0  0  0  0
 10 11  1  0  0  0  0
 10 16  2  0  0  0  0
 11 12  2  0  0  0  0
 11 34  1  0  0  0  0
 12 13  1  0  0  0  0
 12 14  1  0  0  0  0
 14 15  2  0  0  0  0
 14 35  1  0  0  0  0
 15 16  1  0  0  0  0
 15 36  1  0  0  0  0
 17 18  2  0  0  0  0
 17 19  1  0  0  0  0
 19 20  1  0  0  0  0
 19 37  1  0  0  0  0
 20 21  2  0  0  0  0
 22 23  1  0  0  0  0
 22 27  2  0  0  0  0
 23 24  2  0  0  0  0
 23 38  1  0  0  0  0
 24 25  1  0  0  0  0
 24 39  1  0  0  0  0
 25 26  2  0  0  0  0
 25 40  1  0  0  0  0
 26 27  1  0  0  0  0
 26 41  1  0  0  0  0
M  END
$$$$
