REMARK  Name = 
REMARK  1 active torsions:
REMARK  status: ('A' for Active; 'I' for Inactive)
REMARK    1  A    between atoms: C_6  and  C_7
REMARK                            x       y       z     vdW  Elec       q    Type
REMARK                         _______ _______ _______ _____ _____    ______ ____
ROOT
ATOM      1  C   UNL     1      -0.221   0.435   0.750  0.00  0.00    +0.000 A 
ATOM      2  C   UNL     1      -0.348   1.450   1.683  0.00  0.00    +0.000 A 
ATOM      3  N   UNL     1       0.449   2.495   1.297  0.00  0.00    +0.000 N 
ATOM      4  C   UNL     1       1.094   2.194   0.121  0.00  0.00    +0.000 A 
ATOM      5  C   UNL     1       2.001   2.957  -0.628  0.00  0.00    +0.000 A 
ATOM      6  C   UNL     1       2.503   2.386  -1.801  0.00  0.00    +0.000 A 
ATOM      7 BR   UNL     1       3.729   3.373  -2.853  0.00  0.00    +0.000 Br
ATOM      8  C   UNL     1       2.125   1.111  -2.209  0.00  0.00    +0.000 A 
ATOM      9  C   UNL     1       1.221   0.366  -1.443  0.00  0.00    +0.000 A 
ATOM     10  C   UNL     1       0.688   0.912  -0.254  0.00  0.00    +0.000 A 
ATOM     11  H   UNL     1      -0.937   1.528   2.587  0.00  0.00    +0.000 HD
ATOM     12  H   UNL     1       0.553   3.366   1.800  0.00  0.00    +0.000 HD
ATOM     13  H   UNL     1       2.300   3.949  -0.309  0.00  0.00    +0.000 HD
ATOM     14  H   UNL     1       2.524   0.679  -3.123  0.00  0.00    +0.000 HD
ATOM     15  H   UNL     1       0.931  -0.631  -1.764  0.00  0.00    +0.000 HD
ENDROOT
BRANCH   1  21
ATOM     16  N   UNL     1      -1.870  -3.389  -1.439  0.00  0.00    +0.000 N 
ATOM     17  C   UNL     1      -1.675  -2.705  -0.256  0.00  0.00    +0.000 A 
ATOM     18  N   UNL     1      -2.089  -3.295   0.868  0.00  0.00    +0.000 NA
ATOM     19  C   UNL     1      -1.869  -2.621   2.010  0.00  0.00    +0.000 A 
ATOM     20  C   UNL     1      -1.270  -1.388   2.059  0.00  0.00    +0.000 A 
ATOM     21  C   UNL     1      -0.901  -0.855   0.843  0.00  0.00    +0.000 A 
ATOM     22  N   UNL     1      -1.109  -1.500  -0.324  0.00  0.00    +0.000 NA
ATOM     23  H   UNL     1      -2.616  -4.060  -1.326  0.00  0.00    +0.000 HD
ATOM     24  H   UNL     1      -1.938  -2.737  -2.207  0.00  0.00    +0.000 HD
ATOM     25  H   UNL     1      -2.189  -3.127   2.916  0.00  0.00    +0.000 HD
ATOM     26  H   UNL     1      -1.085  -0.893   3.002  0.00  0.00    +0.000 HD
ENDBRANCH   1  21
TORSDOF 1
