MODEL 1
REMARK VINA RESULT:    -9.885      0.000      0.000
REMARK INTER + INTRA:         -14.955
REMARK INTER:                 -14.219
REMARK INTRA:                  -0.737
REMARK UNBOUND:                -0.737
REMARK  Name = 
REMARK  8 active torsions:
REMARK  status: ('A' for Active; 'I' for Inactive)
REMARK    1  A    between atoms: N_1  and  C_2
REMARK    2  A    between atoms: C_2  and  C_3
REMARK    3  A    between atoms: C_3  and  N_4
REMARK    4  A    between atoms: N_4  and  C_5
REMARK    5  A    between atoms: C_5  and  C_6
REMARK    6  A    between atoms: C_6  and  N_7
REMARK    7  A    between atoms: N_7  and  C_8
REMARK    8  A    between atoms: C_9  and  C_10
REMARK                            x       y       z     vdW  Elec       q    Type
REMARK                         _______ _______ _______ _____ _____    ______ ____
ROOT
ATOM      1  C   UNL     1      -9.121  -7.976  18.126  0.00  0.00    +0.000 C 
ATOM      2  C   UNL     1      -8.885  -9.216  18.576  0.00  0.00    +0.000 C 
ATOM      3  C   UNL     1      -8.645  -9.123  20.036  0.00  0.00    +0.000 C 
ATOM      4  O   UNL     1      -8.427 -10.041  20.804  0.00  0.00    +0.000 OA
ATOM      5  N   UNL     1      -8.713  -7.814  20.372  0.00  0.00    +0.000 N 
ATOM      6  C   UNL     1      -8.973  -7.059  19.291  0.00  0.00    +0.000 C 
ATOM      7  O   UNL     1      -9.077  -5.846  19.228  0.00  0.00    +0.000 OA
ATOM      8  H   UNL     1      -8.569  -7.462  21.301  0.00  0.00    +0.000 HD
ENDROOT
BRANCH   2   9
ATOM      9  C   UNL     1      -8.826 -10.395  17.800  0.00  0.00    +0.000 A 
ATOM     10  C   UNL     1      -8.782 -10.639  16.441  0.00  0.00    +0.000 A 
ATOM     11  C   UNL     1      -8.774 -12.047  16.240  0.00  0.00    +0.000 A 
ATOM     12  C   UNL     1      -8.739 -12.871  15.100  0.00  0.00    +0.000 A 
ATOM     13  C   UNL     1      -8.743 -14.261  15.261  0.00  0.00    +0.000 A 
ATOM     14  C   UNL     1      -8.787 -14.830  16.532  0.00  0.00    +0.000 A 
ATOM     15  C   UNL     1      -8.829 -14.030  17.679  0.00  0.00    +0.000 A 
ATOM     16  C   UNL     1      -8.819 -12.642  17.499  0.00  0.00    +0.000 A 
ATOM     17  N   UNL     1      -8.852 -11.625  18.423  0.00  0.00    +0.000 N 
ATOM     18  H   UNL     1      -8.767  -9.883  15.665  0.00  0.00    +0.000 HD
ATOM     19  H   UNL     1      -8.710 -12.433  14.106  0.00  0.00    +0.000 HD
ATOM     20  H   UNL     1      -8.712 -14.901  14.382  0.00  0.00    +0.000 HD
ATOM     21  H   UNL     1      -8.791 -15.912  16.636  0.00  0.00    +0.000 HD
ATOM     22  H   UNL     1      -8.869 -14.475  18.667  0.00  0.00    +0.000 HD
ATOM     23  H   UNL     1      -8.900 -11.752  19.426  0.00  0.00    +0.000 HD
ENDBRANCH   2   9
BRANCH   1  24
ATOM     24  N   UNL     1      -9.412  -7.469  16.861  0.00  0.00    +0.000 N 
ATOM     25  H   UNL     1      -8.974  -6.542  16.829  0.00  0.00    +0.000 HD
BRANCH  24  26
ATOM     26  C   UNL     1     -10.838  -7.277  16.492  0.00  0.00    +0.000 C 
ATOM     27  H   UNL     1     -11.009  -7.727  15.506  0.00  0.00    +0.000 HD
ATOM     28  H   UNL     1     -11.498  -7.787  17.204  0.00  0.00    +0.000 HD
BRANCH  26  29
ATOM     29  C   UNL     1     -11.201  -5.776  16.458  0.00  0.00    +0.000 C 
ATOM     30  H   UNL     1     -11.978  -5.586  17.208  0.00  0.00    +0.000 HD
ATOM     31  H   UNL     1     -10.315  -5.190  16.731  0.00  0.00    +0.000 HD
BRANCH  29  32
ATOM     32  N   UNL     1     -11.679  -5.377  15.129  0.00  0.00    +0.000 NA
ATOM     33  H   UNL     1     -11.696  -6.174  14.496  0.00  0.00    +0.000 HD
BRANCH  32  34
ATOM     34  C   UNL     1     -10.848  -4.312  14.561  0.00  0.00    +0.000 C 
ATOM     35  H   UNL     1     -11.408  -3.781  13.781  0.00  0.00    +0.000 HD
ATOM     36  H   UNL     1     -10.581  -3.587  15.340  0.00  0.00    +0.000 HD
BRANCH  34  37
ATOM     37  C   UNL     1      -9.565  -4.905  13.953  0.00  0.00    +0.000 C 
ATOM     38  H   UNL     1      -9.108  -5.611  14.656  0.00  0.00    +0.000 HD
ATOM     39  H   UNL     1      -9.807  -5.461  13.040  0.00  0.00    +0.000 HD
BRANCH  37  40
ATOM     40  N   UNL     1      -8.589  -3.865  13.627  0.00  0.00    +0.000 NA
ATOM     41  H   UNL     1      -7.762  -3.992  14.209  0.00  0.00    +0.000 HD
ATOM     42  H   UNL     1      -8.969  -2.951  13.867  0.00  0.00    +0.000 HD
ENDBRANCH  37  40
ENDBRANCH  34  37
ENDBRANCH  32  34
ENDBRANCH  29  32
ENDBRANCH  26  29
ENDBRANCH  24  26
ENDBRANCH   1  24
TORSDOF 8
ENDMDL
MODEL 2
REMARK VINA RESULT:    -9.858      1.263      1.839
REMARK INTER + INTRA:         -14.916
REMARK INTER:                 -13.664
REMARK INTRA:                  -1.253
REMARK UNBOUND:                -0.737
REMARK  Name = 
REMARK  8 active torsions:
REMARK  status: ('A' for Active; 'I' for Inactive)
REMARK    1  A    between atoms: N_1  and  C_2
REMARK    2  A    between atoms: C_2  and  C_3
REMARK    3  A    between atoms: C_3  and  N_4
REMARK    4  A    between atoms: N_4  and  C_5
REMARK    5  A    between atoms: C_5  and  C_6
REMARK    6  A    between atoms: C_6  and  N_7
REMARK    7  A    between atoms: N_7  and  C_8
REMARK    8  A    between atoms: C_9  and  C_10
REMARK                            x       y       z     vdW  Elec       q    Type
REMARK                         _______ _______ _______ _____ _____    ______ ____
ROOT
ATOM      1  C   UNL     1      -9.371  -8.061  18.080  0.00  0.00    +0.000 C 
ATOM      2  C   UNL     1      -8.968  -9.268  18.501  0.00  0.00    +0.000 C 
ATOM      3  C   UNL     1      -8.574  -9.135  19.924  0.00  0.00    +0.000 C 
ATOM      4  O   UNL     1      -8.183 -10.020  20.663  0.00  0.00    +0.000 OA
ATOM      5  N   UNL     1      -8.730  -7.835  20.266  0.00  0.00    +0.000 N 
ATOM      6  C   UNL     1      -9.181  -7.121  19.220  0.00  0.00    +0.000 C 
ATOM      7  O   UNL     1      -9.409  -5.925  19.170  0.00  0.00    +0.000 OA
ATOM      8  H   UNL     1      -8.515  -7.461  21.172  0.00  0.00    +0.000 HD
ENDROOT
BRANCH   2   9
ATOM      9  C   UNL     1      -8.884 -10.444  17.724  0.00  0.00    +0.000 A 
ATOM     10  C   UNL     1      -8.805 -10.684  16.366  0.00  0.00    +0.000 A 
ATOM     11  C   UNL     1      -8.785 -12.092  16.161  0.00  0.00    +0.000 A 
ATOM     12  C   UNL     1      -8.718 -12.913  15.020  0.00  0.00    +0.000 A 
ATOM     13  C   UNL     1      -8.719 -14.303  15.177  0.00  0.00    +0.000 A 
ATOM     14  C   UNL     1      -8.792 -14.875  16.445  0.00  0.00    +0.000 A 
ATOM     15  C   UNL     1      -8.865 -14.079  17.593  0.00  0.00    +0.000 A 
ATOM     16  C   UNL     1      -8.858 -12.691  17.417  0.00  0.00    +0.000 A 
ATOM     17  N   UNL     1      -8.919 -11.676  18.342  0.00  0.00    +0.000 N 
ATOM     18  H   UNL     1      -8.774  -9.927  15.592  0.00  0.00    +0.000 HD
ATOM     19  H   UNL     1      -8.666 -12.472  14.028  0.00  0.00    +0.000 HD
ATOM     20  H   UNL     1      -8.663 -14.941  14.298  0.00  0.00    +0.000 HD
ATOM     21  H   UNL     1      -8.792 -15.958  16.547  0.00  0.00    +0.000 HD
ATOM     22  H   UNL     1      -8.927 -14.527  18.579  0.00  0.00    +0.000 HD
ATOM     23  H   UNL     1      -8.991 -11.806  19.344  0.00  0.00    +0.000 HD
ENDBRANCH   2   9
BRANCH   1  24
ATOM     24  N   UNL     1      -9.852  -7.599  16.856  0.00  0.00    +0.000 N 
ATOM     25  H   UNL     1     -10.171  -8.434  16.353  0.00  0.00    +0.000 HD
BRANCH  24  26
ATOM     26  C   UNL     1      -8.907  -6.894  15.952  0.00  0.00    +0.000 C 
ATOM     27  H   UNL     1      -8.003  -6.641  16.518  0.00  0.00    +0.000 HD
ATOM     28  H   UNL     1      -8.604  -7.543  15.121  0.00  0.00    +0.000 HD
BRANCH  26  29
ATOM     29  C   UNL     1      -9.547  -5.611  15.378  0.00  0.00    +0.000 C 
ATOM     30  H   UNL     1      -8.825  -5.126  14.711  0.00  0.00    +0.000 HD
ATOM     31  H   UNL     1     -10.426  -5.888  14.783  0.00  0.00    +0.000 HD
BRANCH  29  32
ATOM     32  N   UNL     1      -9.937  -4.688  16.451  0.00  0.00    +0.000 NA
ATOM     33  H   UNL     1      -9.576  -5.005  17.349  0.00  0.00    +0.000 HD
BRANCH  32  34
ATOM     34  C   UNL     1     -11.393  -4.541  16.526  0.00  0.00    +0.000 C 
ATOM     35  H   UNL     1     -11.775  -4.148  15.576  0.00  0.00    +0.000 HD
ATOM     36  H   UNL     1     -11.861  -5.517  16.702  0.00  0.00    +0.000 HD
BRANCH  34  37
ATOM     37  C   UNL     1     -11.773  -3.579  17.665  0.00  0.00    +0.000 C 
ATOM     38  H   UNL     1     -11.038  -2.768  17.733  0.00  0.00    +0.000 HD
ATOM     39  H   UNL     1     -12.748  -3.123  17.458  0.00  0.00    +0.000 HD
BRANCH  37  40
ATOM     40  N   UNL     1     -11.837  -4.266  18.955  0.00  0.00    +0.000 NA
ATOM     41  H   UNL     1     -11.576  -5.242  18.825  0.00  0.00    +0.000 HD
ATOM     42  H   UNL     1     -12.798  -4.270  19.294  0.00  0.00    +0.000 HD
ENDBRANCH  37  40
ENDBRANCH  34  37
ENDBRANCH  32  34
ENDBRANCH  29  32
ENDBRANCH  26  29
ENDBRANCH  24  26
ENDBRANCH   1  24
TORSDOF 8
ENDMDL
MODEL 3
REMARK VINA RESULT:    -9.303      2.536      4.558
REMARK INTER + INTRA:         -14.119
REMARK INTER:                 -13.325
REMARK INTRA:                  -0.794
REMARK UNBOUND:                -0.737
REMARK  Name = 
REMARK  8 active torsions:
REMARK  status: ('A' for Active; 'I' for Inactive)
REMARK    1  A    between atoms: N_1  and  C_2
REMARK    2  A    between atoms: C_2  and  C_3
REMARK    3  A    between atoms: C_3  and  N_4
REMARK    4  A    between atoms: N_4  and  C_5
REMARK    5  A    between atoms: C_5  and  C_6
REMARK    6  A    between atoms: C_6  and  N_7
REMARK    7  A    between atoms: N_7  and  C_8
REMARK    8  A    between atoms: C_9  and  C_10
REMARK                            x       y       z     vdW  Elec       q    Type
REMARK                         _______ _______ _______ _____ _____    ______ ____
ROOT
ATOM      1  C   UNL     1      -9.657  -6.541  18.067  0.00  0.00    +0.000 C 
ATOM      2  C   UNL     1      -9.401  -7.264  16.968  0.00  0.00    +0.000 C 
ATOM      3  C   UNL     1      -9.401  -6.335  15.812  0.00  0.00    +0.000 C 
ATOM      4  O   UNL     1      -9.177  -6.611  14.649  0.00  0.00    +0.000 OA
ATOM      5  N   UNL     1      -9.697  -5.103  16.287  0.00  0.00    +0.000 N 
ATOM      6  C   UNL     1      -9.885  -5.139  17.618  0.00  0.00    +0.000 C 
ATOM      7  O   UNL     1     -10.187  -4.221  18.359  0.00  0.00    +0.000 OA
ATOM      8  H   UNL     1      -9.783  -4.284  15.714  0.00  0.00    +0.000 HD
ENDROOT
BRANCH   2   9
ATOM      9  C   UNL     1      -9.214  -8.663  16.906  0.00  0.00    +0.000 A 
ATOM     10  C   UNL     1      -9.108  -9.652  17.864  0.00  0.00    +0.000 A 
ATOM     11  C   UNL     1      -8.882 -10.892  17.204  0.00  0.00    +0.000 A 
ATOM     12  C   UNL     1      -8.696 -12.215  17.646  0.00  0.00    +0.000 A 
ATOM     13  C   UNL     1      -8.492 -13.228  16.702  0.00  0.00    +0.000 A 
ATOM     14  C   UNL     1      -8.466 -12.937  15.340  0.00  0.00    +0.000 A 
ATOM     15  C   UNL     1      -8.643 -11.629  14.879  0.00  0.00    +0.000 A 
ATOM     16  C   UNL     1      -8.851 -10.629  15.836  0.00  0.00    +0.000 A 
ATOM     17  N   UNL     1      -9.051  -9.277  15.683  0.00  0.00    +0.000 N 
ATOM     18  H   UNL     1      -9.174  -9.503  18.935  0.00  0.00    +0.000 HD
ATOM     19  H   UNL     1      -8.710 -12.447  18.707  0.00  0.00    +0.000 HD
ATOM     20  H   UNL     1      -8.351 -14.252  17.039  0.00  0.00    +0.000 HD
ATOM     21  H   UNL     1      -8.305 -13.738  14.623  0.00  0.00    +0.000 HD
ATOM     22  H   UNL     1      -8.617 -11.403  13.818  0.00  0.00    +0.000 HD
ATOM     23  H   UNL     1      -9.068  -8.789  14.795  0.00  0.00    +0.000 HD
ENDBRANCH   2   9
BRANCH   1  24
ATOM     24  N   UNL     1      -9.768  -6.878  19.415  0.00  0.00    +0.000 N 
ATOM     25  H   UNL     1     -10.252  -6.089  19.856  0.00  0.00    +0.000 HD
BRANCH  24  26
ATOM     26  C   UNL     1      -8.519  -7.096  20.190  0.00  0.00    +0.000 C 
ATOM     27  H   UNL     1      -8.784  -7.268  21.240  0.00  0.00    +0.000 HD
ATOM     28  H   UNL     1      -7.989  -7.987  19.834  0.00  0.00    +0.000 HD
BRANCH  26  29
ATOM     29  C   UNL     1      -7.580  -5.875  20.075  0.00  0.00    +0.000 C 
ATOM     30  H   UNL     1      -6.597  -6.149  20.475  0.00  0.00    +0.000 HD
ATOM     31  H   UNL     1      -7.457  -5.618  19.016  0.00  0.00    +0.000 HD
BRANCH  29  32
ATOM     32  N   UNL     1      -8.117  -4.723  20.812  0.00  0.00    +0.000 NA
ATOM     33  H   UNL     1      -8.612  -4.092  20.186  0.00  0.00    +0.000 HD
BRANCH  32  34
ATOM     34  C   UNL     1      -7.054  -3.995  21.511  0.00  0.00    +0.000 C 
ATOM     35  H   UNL     1      -7.225  -2.915  21.420  0.00  0.00    +0.000 HD
ATOM     36  H   UNL     1      -7.061  -4.252  22.577  0.00  0.00    +0.000 HD
BRANCH  34  37
ATOM     37  C   UNL     1      -5.683  -4.347  20.909  0.00  0.00    +0.000 C 
ATOM     38  H   UNL     1      -5.338  -5.312  21.299  0.00  0.00    +0.000 HD
ATOM     39  H   UNL     1      -5.768  -4.444  19.821  0.00  0.00    +0.000 HD
BRANCH  37  40
ATOM     40  N   UNL     1      -4.679  -3.328  21.216  0.00  0.00    +0.000 NA
ATOM     41  H   UNL     1      -5.087  -2.405  21.071  0.00  0.00    +0.000 HD
ATOM     42  H   UNL     1      -3.902  -3.403  20.561  0.00  0.00    +0.000 HD
ENDBRANCH  37  40
ENDBRANCH  34  37
ENDBRANCH  32  34
ENDBRANCH  29  32
ENDBRANCH  26  29
ENDBRANCH  24  26
ENDBRANCH   1  24
TORSDOF 8
ENDMDL
MODEL 4
REMARK VINA RESULT:    -9.219      2.657      4.873
REMARK INTER + INTRA:         -13.998
REMARK INTER:                 -12.697
REMARK INTRA:                  -1.300
REMARK UNBOUND:                -0.737
REMARK  Name = 
REMARK  8 active torsions:
REMARK  status: ('A' for Active; 'I' for Inactive)
REMARK    1  A    between atoms: N_1  and  C_2
REMARK    2  A    between atoms: C_2  and  C_3
REMARK    3  A    between atoms: C_3  and  N_4
REMARK    4  A    between atoms: N_4  and  C_5
REMARK    5  A    between atoms: C_5  and  C_6
REMARK    6  A    between atoms: C_6  and  N_7
REMARK    7  A    between atoms: N_7  and  C_8
REMARK    8  A    between atoms: C_9  and  C_10
REMARK                            x       y       z     vdW  Elec       q    Type
REMARK                         _______ _______ _______ _____ _____    ______ ____
ROOT
ATOM      1  C   UNL     1      -8.624  -6.289  18.701  0.00  0.00    +0.000 C 
ATOM      2  C   UNL     1      -9.412  -7.055  17.935  0.00  0.00    +0.000 C 
ATOM      3  C   UNL     1     -10.559  -6.222  17.499  0.00  0.00    +0.000 C 
ATOM      4  O   UNL     1     -11.471  -6.555  16.767  0.00  0.00    +0.000 OA
ATOM      5  N   UNL     1     -10.408  -5.003  18.067  0.00  0.00    +0.000 N 
ATOM      6  C   UNL     1      -9.293  -4.962  18.816  0.00  0.00    +0.000 C 
ATOM      7  O   UNL     1      -8.868  -4.034  19.482  0.00  0.00    +0.000 OA
ATOM      8  H   UNL     1     -11.057  -4.245  17.955  0.00  0.00    +0.000 HD
ENDROOT
BRANCH   2   9
ATOM      9  C   UNL     1      -9.219  -8.422  17.633  0.00  0.00    +0.000 A 
ATOM     10  C   UNL     1      -8.958  -9.539  18.402  0.00  0.00    +0.000 A 
ATOM     11  C   UNL     1      -8.819 -10.657  17.534  0.00  0.00    +0.000 A 
ATOM     12  C   UNL     1      -8.552 -12.024  17.736  0.00  0.00    +0.000 A 
ATOM     13  C   UNL     1      -8.479 -12.877  16.628  0.00  0.00    +0.000 A 
ATOM     14  C   UNL     1      -8.662 -12.384  15.338  0.00  0.00    +0.000 A 
ATOM     15  C   UNL     1      -8.922 -11.028  15.113  0.00  0.00    +0.000 A 
ATOM     16  C   UNL     1      -8.996 -10.191  16.233  0.00  0.00    +0.000 A 
ATOM     17  N   UNL     1      -9.234  -8.840  16.319  0.00  0.00    +0.000 N 
ATOM     18  H   UNL     1      -8.865  -9.554  19.481  0.00  0.00    +0.000 HD
ATOM     19  H   UNL     1      -8.404 -12.413  18.739  0.00  0.00    +0.000 HD
ATOM     20  H   UNL     1      -8.277 -13.934  16.780  0.00  0.00    +0.000 HD
ATOM     21  H   UNL     1      -8.600 -13.063  14.491  0.00  0.00    +0.000 HD
ATOM     22  H   UNL     1      -9.058 -10.646  14.107  0.00  0.00    +0.000 HD
ATOM     23  H   UNL     1      -9.389  -8.225  15.529  0.00  0.00    +0.000 HD
ENDBRANCH   2   9
BRANCH   1  24
ATOM     24  N   UNL     1      -7.424  -6.535  19.365  0.00  0.00    +0.000 N 
ATOM     25  H   UNL     1      -7.560  -6.181  20.318  0.00  0.00    +0.000 HD
BRANCH  24  26
ATOM     26  C   UNL     1      -6.189  -5.892  18.847  0.00  0.00    +0.000 C 
ATOM     27  H   UNL     1      -5.502  -6.676  18.507  0.00  0.00    +0.000 HD
ATOM     28  H   UNL     1      -6.414  -5.255  17.983  0.00  0.00    +0.000 HD
BRANCH  26  29
ATOM     29  C   UNL     1      -5.514  -5.034  19.940  0.00  0.00    +0.000 C 
ATOM     30  H   UNL     1      -4.632  -5.569  20.311  0.00  0.00    +0.000 HD
ATOM     31  H   UNL     1      -5.177  -4.091  19.494  0.00  0.00    +0.000 HD
BRANCH  29  32
ATOM     32  N   UNL     1      -6.439  -4.765  21.048  0.00  0.00    +0.000 NA
ATOM     33  H   UNL     1      -7.390  -4.648  20.705  0.00  0.00    +0.000 HD
BRANCH  32  34
ATOM     34  C   UNL     1      -6.035  -3.575  21.803  0.00  0.00    +0.000 C 
ATOM     35  H   UNL     1      -5.131  -3.795  22.383  0.00  0.00    +0.000 HD
ATOM     36  H   UNL     1      -5.805  -2.753  21.114  0.00  0.00    +0.000 HD
BRANCH  34  37
ATOM     37  C   UNL     1      -7.162  -3.142  22.757  0.00  0.00    +0.000 C 
ATOM     38  H   UNL     1      -6.853  -3.300  23.797  0.00  0.00    +0.000 HD
ATOM     39  H   UNL     1      -7.364  -2.073  22.633  0.00  0.00    +0.000 HD
BRANCH  37  40
ATOM     40  N   UNL     1      -8.395  -3.888  22.512  0.00  0.00    +0.000 NA
ATOM     41  H   UNL     1      -8.371  -4.271  21.568  0.00  0.00    +0.000 HD
ATOM     42  H   UNL     1      -9.192  -3.254  22.544  0.00  0.00    +0.000 HD
ENDBRANCH  37  40
ENDBRANCH  34  37
ENDBRANCH  32  34
ENDBRANCH  29  32
ENDBRANCH  26  29
ENDBRANCH  24  26
ENDBRANCH   1  24
TORSDOF 8
ENDMDL
MODEL 5
REMARK VINA RESULT:    -9.168      1.181      1.370
REMARK INTER + INTRA:         -13.924
REMARK INTER:                 -13.247
REMARK INTRA:                  -0.677
REMARK UNBOUND:                -0.737
REMARK  Name = 
REMARK  8 active torsions:
REMARK  status: ('A' for Active; 'I' for Inactive)
REMARK    1  A    between atoms: N_1  and  C_2
REMARK    2  A    between atoms: C_2  and  C_3
REMARK    3  A    between atoms: C_3  and  N_4
REMARK    4  A    between atoms: N_4  and  C_5
REMARK    5  A    between atoms: C_5  and  C_6
REMARK    6  A    between atoms: C_6  and  N_7
REMARK    7  A    between atoms: N_7  and  C_8
REMARK    8  A    between atoms: C_9  and  C_10
REMARK                            x       y       z     vdW  Elec       q    Type
REMARK                         _______ _______ _______ _____ _____    ______ ____
ROOT
ATOM      1  C   UNL     1      -9.349  -6.713  17.760  0.00  0.00    +0.000 C 
ATOM      2  C   UNL     1      -9.052  -7.913  18.278  0.00  0.00    +0.000 C 
ATOM      3  C   UNL     1      -8.780  -7.720  19.723  0.00  0.00    +0.000 C 
ATOM      4  O   UNL     1      -8.507  -8.579  20.540  0.00  0.00    +0.000 OA
ATOM      5  N   UNL     1      -8.894  -6.396  19.980  0.00  0.00    +0.000 N 
ATOM      6  C   UNL     1      -9.210  -5.721  18.862  0.00  0.00    +0.000 C 
ATOM      7  O   UNL     1      -9.365  -4.519  18.728  0.00  0.00    +0.000 OA
ATOM      8  H   UNL     1      -8.742  -5.982  20.882  0.00  0.00    +0.000 HD
ENDROOT
BRANCH   2   9
ATOM      9  C   UNL     1      -8.963  -9.135  17.575  0.00  0.00    +0.000 A 
ATOM     10  C   UNL     1      -9.075  -9.475  16.241  0.00  0.00    +0.000 A 
ATOM     11  C   UNL     1      -8.934 -10.885  16.126  0.00  0.00    +0.000 A 
ATOM     12  C   UNL     1      -8.959 -11.785  15.044  0.00  0.00    +0.000 A 
ATOM     13  C   UNL     1      -8.782 -13.152  15.287  0.00  0.00    +0.000 A 
ATOM     14  C   UNL     1      -8.589 -13.624  16.584  0.00  0.00    +0.000 A 
ATOM     15  C   UNL     1      -8.567 -12.749  17.675  0.00  0.00    +0.000 A 
ATOM     16  C   UNL     1      -8.740 -11.385  17.411  0.00  0.00    +0.000 A 
ATOM     17  N   UNL     1      -8.764 -10.309  18.267  0.00  0.00    +0.000 N 
ATOM     18  H   UNL     1      -9.252  -8.783  15.426  0.00  0.00    +0.000 HD
ATOM     19  H   UNL     1      -9.114 -11.423  14.031  0.00  0.00    +0.000 HD
ATOM     20  H   UNL     1      -8.796 -13.850  14.454  0.00  0.00    +0.000 HD
ATOM     21  H   UNL     1      -8.455 -14.690  16.752  0.00  0.00    +0.000 HD
ATOM     22  H   UNL     1      -8.422 -13.119  18.684  0.00  0.00    +0.000 HD
ATOM     23  H   UNL     1      -8.661 -10.365  19.274  0.00  0.00    +0.000 HD
ENDBRANCH   2   9
BRANCH   1  24
ATOM     24  N   UNL     1      -9.690  -6.298  16.474  0.00  0.00    +0.000 N 
ATOM     25  H   UNL     1      -9.203  -5.406  16.335  0.00  0.00    +0.000 HD
BRANCH  24  26
ATOM     26  C   UNL     1     -11.123  -6.050  16.174  0.00  0.00    +0.000 C 
ATOM     27  H   UNL     1     -11.519  -6.907  15.616  0.00  0.00    +0.000 HD
ATOM     28  H   UNL     1     -11.707  -5.962  17.098  0.00  0.00    +0.000 HD
BRANCH  26  29
ATOM     29  C   UNL     1     -11.297  -4.757  15.347  0.00  0.00    +0.000 C 
ATOM     30  H   UNL     1     -12.365  -4.607  15.149  0.00  0.00    +0.000 HD
ATOM     31  H   UNL     1     -10.939  -3.905  15.939  0.00  0.00    +0.000 HD
BRANCH  29  32
ATOM     32  N   UNL     1     -10.559  -4.835  14.080  0.00  0.00    +0.000 NA
ATOM     33  H   UNL     1      -9.568  -4.995  14.248  0.00  0.00    +0.000 HD
BRANCH  32  34
ATOM     34  C   UNL     1     -10.735  -3.617  13.284  0.00  0.00    +0.000 C 
ATOM     35  H   UNL     1     -11.035  -3.883  12.263  0.00  0.00    +0.000 HD
ATOM     36  H   UNL     1     -11.528  -2.995  13.718  0.00  0.00    +0.000 HD
BRANCH  34  37
ATOM     37  C   UNL     1      -9.423  -2.816  13.238  0.00  0.00    +0.000 C 
ATOM     38  H   UNL     1      -9.304  -2.346  12.255  0.00  0.00    +0.000 HD
ATOM     39  H   UNL     1      -9.450  -2.014  13.985  0.00  0.00    +0.000 HD
BRANCH  37  40
ATOM     40  N   UNL     1      -8.261  -3.664  13.498  0.00  0.00    +0.000 NA
ATOM     41  H   UNL     1      -7.457  -3.073  13.708  0.00  0.00    +0.000 HD
ATOM     42  H   UNL     1      -8.021  -4.186  12.657  0.00  0.00    +0.000 HD
ENDBRANCH  37  40
ENDBRANCH  34  37
ENDBRANCH  32  34
ENDBRANCH  29  32
ENDBRANCH  26  29
ENDBRANCH  24  26
ENDBRANCH   1  24
TORSDOF 8
ENDMDL
MODEL 6
REMARK VINA RESULT:    -8.933      2.963      5.023
REMARK INTER + INTRA:         -13.587
REMARK INTER:                 -12.316
REMARK INTRA:                  -1.271
REMARK UNBOUND:                -0.737
REMARK  Name = 
REMARK  8 active torsions:
REMARK  status: ('A' for Active; 'I' for Inactive)
REMARK    1  A    between atoms: N_1  and  C_2
REMARK    2  A    between atoms: C_2  and  C_3
REMARK    3  A    between atoms: C_3  and  N_4
REMARK    4  A    between atoms: N_4  and  C_5
REMARK    5  A    between atoms: C_5  and  C_6
REMARK    6  A    between atoms: C_6  and  N_7
REMARK    7  A    between atoms: N_7  and  C_8
REMARK    8  A    between atoms: C_9  and  C_10
REMARK                            x       y       z     vdW  Elec       q    Type
REMARK                         _______ _______ _______ _____ _____    ______ ____
ROOT
ATOM      1  C   UNL     1      -9.376  -5.573  18.484  0.00  0.00    +0.000 C 
ATOM      2  C   UNL     1      -9.628  -6.273  17.369  0.00  0.00    +0.000 C 
ATOM      3  C   UNL     1     -10.183  -5.332  16.366  0.00  0.00    +0.000 C 
ATOM      4  O   UNL     1     -10.504  -5.587  15.221  0.00  0.00    +0.000 OA
ATOM      5  N   UNL     1     -10.268  -4.118  16.958  0.00  0.00    +0.000 N 
ATOM      6  C   UNL     1      -9.828  -4.176  18.227  0.00  0.00    +0.000 C 
ATOM      7  O   UNL     1      -9.786  -3.279  19.049  0.00  0.00    +0.000 OA
ATOM      8  H   UNL     1     -10.630  -3.297  16.509  0.00  0.00    +0.000 HD
ENDROOT
BRANCH   2   9
ATOM      9  C   UNL     1      -9.446  -7.663  17.190  0.00  0.00    +0.000 A 
ATOM     10  C   UNL     1      -9.259  -8.718  18.062  0.00  0.00    +0.000 A 
ATOM     11  C   UNL     1      -9.090  -9.905  17.297  0.00  0.00    +0.000 A 
ATOM     12  C   UNL     1      -8.867 -11.255  17.624  0.00  0.00    +0.000 A 
ATOM     13  C   UNL     1      -8.744 -12.196  16.595  0.00  0.00    +0.000 A 
ATOM     14  C   UNL     1      -8.833 -11.807  15.261  0.00  0.00    +0.000 A 
ATOM     15  C   UNL     1      -9.049 -10.470  14.912  0.00  0.00    +0.000 A 
ATOM     16  C   UNL     1      -9.175  -9.544  15.954  0.00  0.00    +0.000 A 
ATOM     17  N   UNL     1      -9.388  -8.186  15.917  0.00  0.00    +0.000 N 
ATOM     18  H   UNL     1      -9.235  -8.647  19.143  0.00  0.00    +0.000 HD
ATOM     19  H   UNL     1      -8.791 -11.564  18.663  0.00  0.00    +0.000 HD
ATOM     20  H   UNL     1      -8.575 -13.241  16.844  0.00  0.00    +0.000 HD
ATOM     21  H   UNL     1      -8.733 -12.553  14.476  0.00  0.00    +0.000 HD
ATOM     22  H   UNL     1      -9.113 -10.168  13.872  0.00  0.00    +0.000 HD
ATOM     23  H   UNL     1      -9.479  -7.635  15.071  0.00  0.00    +0.000 HD
ENDBRANCH   2   9
BRANCH   1  24
ATOM     24  N   UNL     1      -8.851  -5.928  19.725  0.00  0.00    +0.000 N 
ATOM     25  H   UNL     1      -9.221  -5.238  20.388  0.00  0.00    +0.000 HD
BRANCH  24  26
ATOM     26  C   UNL     1      -7.375  -5.923  19.890  0.00  0.00    +0.000 C 
ATOM     27  H   UNL     1      -7.080  -6.831  20.430  0.00  0.00    +0.000 HD
ATOM     28  H   UNL     1      -6.873  -5.944  18.915  0.00  0.00    +0.000 HD
BRANCH  26  29
ATOM     29  C   UNL     1      -6.911  -4.672  20.667  0.00  0.00    +0.000 C 
ATOM     30  H   UNL     1      -6.112  -4.964  21.358  0.00  0.00    +0.000 HD
ATOM     31  H   UNL     1      -6.497  -3.945  19.957  0.00  0.00    +0.000 HD
BRANCH  29  32
ATOM     32  N   UNL     1      -8.023  -4.069  21.412  0.00  0.00    +0.000 NA
ATOM     33  H   UNL     1      -8.768  -3.781  20.780  0.00  0.00    +0.000 HD
BRANCH  32  34
ATOM     34  C   UNL     1      -7.575  -2.920  22.204  0.00  0.00    +0.000 C 
ATOM     35  H   UNL     1      -7.472  -3.213  23.256  0.00  0.00    +0.000 HD
ATOM     36  H   UNL     1      -6.594  -2.579  21.849  0.00  0.00    +0.000 HD
BRANCH  34  37
ATOM     37  C   UNL     1      -8.588  -1.768  22.092  0.00  0.00    +0.000 C 
ATOM     38  H   UNL     1      -9.610  -2.156  22.186  0.00  0.00    +0.000 HD
ATOM     39  H   UNL     1      -8.432  -1.054  22.909  0.00  0.00    +0.000 HD
BRANCH  37  40
ATOM     40  N   UNL     1      -8.468  -1.062  20.818  0.00  0.00    +0.000 NA
ATOM     41  H   UNL     1      -7.834  -1.580  20.210  0.00  0.00    +0.000 HD
ATOM     42  H   UNL     1      -8.038  -0.151  20.969  0.00  0.00    +0.000 HD
ENDBRANCH  37  40
ENDBRANCH  34  37
ENDBRANCH  32  34
ENDBRANCH  29  32
ENDBRANCH  26  29
ENDBRANCH  24  26
ENDBRANCH   1  24
TORSDOF 8
ENDMDL
MODEL 7
REMARK VINA RESULT:    -8.742      2.599      4.564
REMARK INTER + INTRA:         -13.312
REMARK INTER:                 -13.342
REMARK INTRA:                   0.030
REMARK UNBOUND:                -0.737
REMARK  Name = 
REMARK  8 active torsions:
REMARK  status: ('A' for Active; 'I' for Inactive)
REMARK    1  A    between atoms: N_1  and  C_2
REMARK    2  A    between atoms: C_2  and  C_3
REMARK    3  A    between atoms: C_3  and  N_4
REMARK    4  A    between atoms: N_4  and  C_5
REMARK    5  A    between atoms: C_5  and  C_6
REMARK    6  A    between atoms: C_6  and  N_7
REMARK    7  A    between atoms: N_7  and  C_8
REMARK    8  A    between atoms: C_9  and  C_10
REMARK                            x       y       z     vdW  Elec       q    Type
REMARK                         _______ _______ _______ _____ _____    ______ ____
ROOT
ATOM      1  C   UNL     1      -9.667  -6.288  18.021  0.00  0.00    +0.000 C 
ATOM      2  C   UNL     1      -9.468  -6.854  16.823  0.00  0.00    +0.000 C 
ATOM      3  C   UNL     1      -9.605  -5.790  15.799  0.00  0.00    +0.000 C 
ATOM      4  O   UNL     1      -9.463  -5.907  14.596  0.00  0.00    +0.000 OA
ATOM      5  N   UNL     1      -9.920  -4.646  16.447  0.00  0.00    +0.000 N 
ATOM      6  C   UNL     1      -9.998  -4.857  17.773  0.00  0.00    +0.000 C 
ATOM      7  O   UNL     1     -10.281  -4.056  18.646  0.00  0.00    +0.000 OA
ATOM      8  H   UNL     1     -10.091  -3.768  15.991  0.00  0.00    +0.000 HD
ENDROOT
BRANCH   2   9
ATOM      9  C   UNL     1      -9.220  -8.221  16.569  0.00  0.00    +0.000 A 
ATOM     10  C   UNL     1      -9.077  -8.965  15.414  0.00  0.00    +0.000 A 
ATOM     11  C   UNL     1      -8.880 -10.325  15.779  0.00  0.00    +0.000 A 
ATOM     12  C   UNL     1      -8.683 -11.514  15.052  0.00  0.00    +0.000 A 
ATOM     13  C   UNL     1      -8.517 -12.719  15.744  0.00  0.00    +0.000 A 
ATOM     14  C   UNL     1      -8.552 -12.750  17.136  0.00  0.00    +0.000 A 
ATOM     15  C   UNL     1      -8.752 -11.582  17.880  0.00  0.00    +0.000 A 
ATOM     16  C   UNL     1      -8.910 -10.385  17.171  0.00  0.00    +0.000 A 
ATOM     17  N   UNL     1      -9.119  -9.104  17.623  0.00  0.00    +0.000 N 
ATOM     18  H   UNL     1      -9.120  -8.575  14.404  0.00  0.00    +0.000 HD
ATOM     19  H   UNL     1      -8.660 -11.496  13.966  0.00  0.00    +0.000 HD
ATOM     20  H   UNL     1      -8.361 -13.639  15.186  0.00  0.00    +0.000 HD
ATOM     21  H   UNL     1      -8.422 -13.697  17.656  0.00  0.00    +0.000 HD
ATOM     22  H   UNL     1      -8.784 -11.609  18.963  0.00  0.00    +0.000 HD
ATOM     23  H   UNL     1      -9.201  -8.838  18.597  0.00  0.00    +0.000 HD
ENDBRANCH   2   9
BRANCH   1  24
ATOM     24  N   UNL     1      -9.652  -6.795  19.320  0.00  0.00    +0.000 N 
ATOM     25  H   UNL     1     -10.153  -6.104  19.890  0.00  0.00    +0.000 HD
BRANCH  24  26
ATOM     26  C   UNL     1      -8.337  -7.011  19.975  0.00  0.00    +0.000 C 
ATOM     27  H   UNL     1      -8.509  -7.327  21.010  0.00  0.00    +0.000 HD
ATOM     28  H   UNL     1      -7.779  -7.812  19.475  0.00  0.00    +0.000 HD
BRANCH  26  29
ATOM     29  C   UNL     1      -7.490  -5.719  19.950  0.00  0.00    +0.000 C 
ATOM     30  H   UNL     1      -8.072  -4.927  19.463  0.00  0.00    +0.000 HD
ATOM     31  H   UNL     1      -7.288  -5.406  20.981  0.00  0.00    +0.000 HD
BRANCH  29  32
ATOM     32  N   UNL     1      -6.228  -5.928  19.230  0.00  0.00    +0.000 NA
ATOM     33  H   UNL     1      -5.991  -6.917  19.193  0.00  0.00    +0.000 HD
BRANCH  32  34
ATOM     34  C   UNL     1      -5.130  -5.180  19.850  0.00  0.00    +0.000 C 
ATOM     35  H   UNL     1      -4.379  -5.879  20.237  0.00  0.00    +0.000 HD
ATOM     36  H   UNL     1      -4.645  -4.537  19.105  0.00  0.00    +0.000 HD
BRANCH  34  37
ATOM     37  C   UNL     1      -5.662  -4.313  21.005  0.00  0.00    +0.000 C 
ATOM     38  H   UNL     1      -6.634  -3.884  20.734  0.00  0.00    +0.000 HD
ATOM     39  H   UNL     1      -5.813  -4.932  21.896  0.00  0.00    +0.000 HD
BRANCH  37  40
ATOM     40  N   UNL     1      -4.742  -3.226  21.334  0.00  0.00    +0.000 NA
ATOM     41  H   UNL     1      -4.785  -3.045  22.336  0.00  0.00    +0.000 HD
ATOM     42  H   UNL     1      -5.045  -2.368  20.875  0.00  0.00    +0.000 HD
ENDBRANCH  37  40
ENDBRANCH  34  37
ENDBRANCH  32  34
ENDBRANCH  29  32
ENDBRANCH  26  29
ENDBRANCH  24  26
ENDBRANCH   1  24
TORSDOF 8
ENDMDL
MODEL 8
REMARK VINA RESULT:    -8.560      1.839      2.784
REMARK INTER + INTRA:         -13.050
REMARK INTER:                 -11.980
REMARK INTRA:                  -1.070
REMARK UNBOUND:                -0.737
REMARK  Name = 
REMARK  8 active torsions:
REMARK  status: ('A' for Active; 'I' for Inactive)
REMARK    1  A    between atoms: N_1  and  C_2
REMARK    2  A    between atoms: C_2  and  C_3
REMARK    3  A    between atoms: C_3  and  N_4
REMARK    4  A    between atoms: N_4  and  C_5
REMARK    5  A    between atoms: C_5  and  C_6
REMARK    6  A    between atoms: C_6  and  N_7
REMARK    7  A    between atoms: N_7  and  C_8
REMARK    8  A    between atoms: C_9  and  C_10
REMARK                            x       y       z     vdW  Elec       q    Type
REMARK                         _______ _______ _______ _____ _____    ______ ____
ROOT
ATOM      1  C   UNL     1     -10.242  -6.328  18.085  0.00  0.00    +0.000 C 
ATOM      2  C   UNL     1      -9.288  -7.206  18.427  0.00  0.00    +0.000 C 
ATOM      3  C   UNL     1      -8.374  -6.526  19.375  0.00  0.00    +0.000 C 
ATOM      4  O   UNL     1      -7.405  -7.006  19.932  0.00  0.00    +0.000 OA
ATOM      5  N   UNL     1      -8.815  -5.255  19.518  0.00  0.00    +0.000 N 
ATOM      6  C   UNL     1      -9.911  -5.046  18.768  0.00  0.00    +0.000 C 
ATOM      7  O   UNL     1     -10.550  -4.016  18.641  0.00  0.00    +0.000 OA
ATOM      8  H   UNL     1      -8.367  -4.563  20.091  0.00  0.00    +0.000 HD
ENDROOT
BRANCH   2   9
ATOM      9  C   UNL     1      -9.146  -8.525  17.940  0.00  0.00    +0.000 A 
ATOM     10  C   UNL     1      -8.987  -9.753  18.551  0.00  0.00    +0.000 A 
ATOM     11  C   UNL     1      -8.853 -10.742  17.538  0.00  0.00    +0.000 A 
ATOM     12  C   UNL     1      -8.667 -12.137  17.553  0.00  0.00    +0.000 A 
ATOM     13  C   UNL     1      -8.572 -12.827  16.338  0.00  0.00    +0.000 A 
ATOM     14  C   UNL     1      -8.653 -12.146  15.126  0.00  0.00    +0.000 A 
ATOM     15  C   UNL     1      -8.832 -10.759  15.087  0.00  0.00    +0.000 A 
ATOM     16  C   UNL     1      -8.930 -10.087  16.311  0.00  0.00    +0.000 A 
ATOM     17  N   UNL     1      -9.105  -8.750  16.581  0.00  0.00    +0.000 N 
ATOM     18  H   UNL     1      -8.958  -9.927  19.620  0.00  0.00    +0.000 HD
ATOM     19  H   UNL     1      -8.597 -12.673  18.495  0.00  0.00    +0.000 HD
ATOM     20  H   UNL     1      -8.432 -13.905  16.345  0.00  0.00    +0.000 HD
ATOM     21  H   UNL     1      -8.576 -12.699  14.193  0.00  0.00    +0.000 HD
ATOM     22  H   UNL     1      -8.890 -10.230  14.142  0.00  0.00    +0.000 HD
ATOM     23  H   UNL     1      -9.183  -8.021  15.882  0.00  0.00    +0.000 HD
ENDBRANCH   2   9
BRANCH   1  24
ATOM     24  N   UNL     1     -11.351  -6.416  17.246  0.00  0.00    +0.000 N 
ATOM     25  H   UNL     1     -11.679  -7.385  17.325  0.00  0.00    +0.000 HD
BRANCH  24  26
ATOM     26  C   UNL     1     -11.158  -6.151  15.797  0.00  0.00    +0.000 C 
ATOM     27  H   UNL     1     -10.111  -6.349  15.541  0.00  0.00    +0.000 HD
ATOM     28  H   UNL     1     -11.778  -6.822  15.191  0.00  0.00    +0.000 HD
BRANCH  26  29
ATOM     29  C   UNL     1     -11.519  -4.689  15.453  0.00  0.00    +0.000 C 
ATOM     30  H   UNL     1     -11.976  -4.665  14.457  0.00  0.00    +0.000 HD
ATOM     31  H   UNL     1     -12.259  -4.325  16.176  0.00  0.00    +0.000 HD
BRANCH  29  32
ATOM     32  N   UNL     1     -10.328  -3.830  15.477  0.00  0.00    +0.000 NA
ATOM     33  H   UNL     1      -9.815  -3.948  16.349  0.00  0.00    +0.000 HD
BRANCH  32  34
ATOM     34  C   UNL     1     -10.684  -2.419  15.299  0.00  0.00    +0.000 C 
ATOM     35  H   UNL     1      -9.880  -1.783  15.687  0.00  0.00    +0.000 HD
ATOM     36  H   UNL     1     -10.811  -2.195  14.233  0.00  0.00    +0.000 HD
BRANCH  34  37
ATOM     37  C   UNL     1     -11.991  -2.101  16.047  0.00  0.00    +0.000 C 
ATOM     38  H   UNL     1     -12.579  -1.370  15.480  0.00  0.00    +0.000 HD
ATOM     39  H   UNL     1     -12.597  -3.009  16.140  0.00  0.00    +0.000 HD
BRANCH  37  40
ATOM     40  N   UNL     1     -11.734  -1.566  17.383  0.00  0.00    +0.000 NA
ATOM     41  H   UNL     1     -12.532  -1.771  17.983  0.00  0.00    +0.000 HD
ATOM     42  H   UNL     1     -11.663  -0.550  17.338  0.00  0.00    +0.000 HD
ENDBRANCH  37  40
ENDBRANCH  34  37
ENDBRANCH  32  34
ENDBRANCH  29  32
ENDBRANCH  26  29
ENDBRANCH  24  26
ENDBRANCH   1  24
TORSDOF 8
ENDMDL
MODEL 9
REMARK VINA RESULT:    -8.554      2.843      7.518
REMARK INTER + INTRA:         -13.041
REMARK INTER:                 -12.564
REMARK INTRA:                  -0.477
REMARK UNBOUND:                -0.737
REMARK  Name = 
REMARK  8 active torsions:
REMARK  status: ('A' for Active; 'I' for Inactive)
REMARK    1  A    between atoms: N_1  and  C_2
REMARK    2  A    between atoms: C_2  and  C_3
REMARK    3  A    between atoms: C_3  and  N_4
REMARK    4  A    between atoms: N_4  and  C_5
REMARK    5  A    between atoms: C_5  and  C_6
REMARK    6  A    between atoms: C_6  and  N_7
REMARK    7  A    between atoms: N_7  and  C_8
REMARK    8  A    between atoms: C_9  and  C_10
REMARK                            x       y       z     vdW  Elec       q    Type
REMARK                         _______ _______ _______ _____ _____    ______ ____
ROOT
ATOM      1  C   UNL     1      -9.664  -7.787  17.510  0.00  0.00    +0.000 C 
ATOM      2  C   UNL     1      -9.539  -6.593  18.106  0.00  0.00    +0.000 C 
ATOM      3  C   UNL     1     -10.840  -5.893  17.978  0.00  0.00    +0.000 C 
ATOM      4  O   UNL     1     -11.130  -4.798  18.421  0.00  0.00    +0.000 OA
ATOM      5  N   UNL     1     -11.664  -6.701  17.273  0.00  0.00    +0.000 N 
ATOM      6  C   UNL     1     -11.037  -7.841  16.936  0.00  0.00    +0.000 C 
ATOM      7  O   UNL     1     -11.473  -8.774  16.284  0.00  0.00    +0.000 OA
ATOM      8  H   UNL     1     -12.607  -6.464  17.022  0.00  0.00    +0.000 HD
ENDROOT
BRANCH   2   9
ATOM      9  C   UNL     1      -8.372  -6.070  18.706  0.00  0.00    +0.000 A 
ATOM     10  C   UNL     1      -7.022  -6.230  18.459  0.00  0.00    +0.000 A 
ATOM     11  C   UNL     1      -6.300  -5.477  19.426  0.00  0.00    +0.000 A 
ATOM     12  C   UNL     1      -4.931  -5.263  19.674  0.00  0.00    +0.000 A 
ATOM     13  C   UNL     1      -4.550  -4.441  20.741  0.00  0.00    +0.000 A 
ATOM     14  C   UNL     1      -5.509  -3.844  21.556  0.00  0.00    +0.000 A 
ATOM     15  C   UNL     1      -6.875  -4.048  21.333  0.00  0.00    +0.000 A 
ATOM     16  C   UNL     1      -7.237  -4.869  20.258  0.00  0.00    +0.000 A 
ATOM     17  N   UNL     1      -8.479  -5.244  19.804  0.00  0.00    +0.000 N 
ATOM     18  H   UNL     1      -6.592  -6.835  17.670  0.00  0.00    +0.000 HD
ATOM     19  H   UNL     1      -4.178  -5.730  19.045  0.00  0.00    +0.000 HD
ATOM     20  H   UNL     1      -3.494  -4.270  20.934  0.00  0.00    +0.000 HD
ATOM     21  H   UNL     1      -5.193  -3.210  22.381  0.00  0.00    +0.000 HD
ATOM     22  H   UNL     1      -7.620  -3.587  21.972  0.00  0.00    +0.000 HD
ATOM     23  H   UNL     1      -9.359  -4.964  20.220  0.00  0.00    +0.000 HD
ENDBRANCH   2   9
BRANCH   1  24
ATOM     24  N   UNL     1      -8.781  -8.852  17.333  0.00  0.00    +0.000 N 
ATOM     25  H   UNL     1      -8.662  -8.943  16.318  0.00  0.00    +0.000 HD
BRANCH  24  26
ATOM     26  C   UNL     1      -9.185 -10.190  17.835  0.00  0.00    +0.000 C 
ATOM     27  H   UNL     1      -8.461 -10.513  18.593  0.00  0.00    +0.000 HD
ATOM     28  H   UNL     1     -10.168 -10.145  18.318  0.00  0.00    +0.000 HD
BRANCH  26  29
ATOM     29  C   UNL     1      -9.238 -11.217  16.683  0.00  0.00    +0.000 C 
ATOM     30  H   UNL     1     -10.287 -11.470  16.486  0.00  0.00    +0.000 HD
ATOM     31  H   UNL     1      -8.823 -10.758  15.778  0.00  0.00    +0.000 HD
BRANCH  29  32
ATOM     32  N   UNL     1      -8.485 -12.431  17.022  0.00  0.00    +0.000 NA
ATOM     33  H   UNL     1      -8.914 -13.253  16.600  0.00  0.00    +0.000 HD
BRANCH  32  34
ATOM     34  C   UNL     1      -8.390 -12.613  18.473  0.00  0.00    +0.000 C 
ATOM     35  H   UNL     1      -7.353 -12.467  18.797  0.00  0.00    +0.000 HD
ATOM     36  H   UNL     1      -9.015 -11.871  18.987  0.00  0.00    +0.000 HD
BRANCH  34  37
ATOM     37  C   UNL     1      -8.852 -14.028  18.864  0.00  0.00    +0.000 C 
ATOM     38  H   UNL     1      -8.130 -14.482  19.552  0.00  0.00    +0.000 HD
ATOM     39  H   UNL     1      -9.814 -13.974  19.386  0.00  0.00    +0.000 HD
BRANCH  37  40
ATOM     40  N   UNL     1      -8.997 -14.893  17.694  0.00  0.00    +0.000 NA
ATOM     41  H   UNL     1      -8.099 -15.330  17.490  0.00  0.00    +0.000 HD
ATOM     42  H   UNL     1      -9.233 -14.330  16.878  0.00  0.00    +0.000 HD
ENDBRANCH  37  40
ENDBRANCH  34  37
ENDBRANCH  32  34
ENDBRANCH  29  32
ENDBRANCH  26  29
ENDBRANCH  24  26
ENDBRANCH   1  24
TORSDOF 8
ENDMDL
