MODEL 1
REMARK VINA RESULT:    -8.588      0.000      0.000
REMARK INTER + INTRA:         -10.122
REMARK INTER:                  -9.843
REMARK INTRA:                  -0.279
REMARK UNBOUND:                -0.279
REMARK  Name = 
REMARK  4 active torsions:
REMARK  status: ('A' for Active; 'I' for Inactive)
REMARK    1  A    between atoms: C_1  and  C_2
REMARK    2  A    between atoms: C_4  and  C_5
REMARK    3  A    between atoms: C_7  and  N_8
REMARK    4  A    between atoms: C_9  and  C_10
REMARK                            x       y       z     vdW  Elec       q    Type
REMARK                         _______ _______ _______ _____ _____    ______ ____
ROOT
ATOM      1  C   UNL     1      -8.627 -13.232  15.529  0.00  0.00    +0.000 A 
ATOM      2  C   UNL     1      -8.872 -12.128  14.722  0.00  0.00    +0.000 A 
ATOM      3  C   UNL     1      -8.995 -10.846  15.288  0.00  0.00    +0.000 A 
ATOM      4  C   UNL     1      -8.859 -10.743  16.700  0.00  0.00    +0.000 A 
ATOM      5  C   UNL     1      -8.916  -9.645  17.635  0.00  0.00    +0.000 A 
ATOM      6  C   UNL     1      -8.720 -10.029  18.952  0.00  0.00    +0.000 A 
ATOM      7  S   UNL     1      -8.465 -11.717  19.066  0.00  0.00    +0.000 S 
ATOM      8  C   UNL     1      -8.615 -11.929  17.388  0.00  0.00    +0.000 A 
ATOM      9  N   UNL     1      -8.493 -13.166  16.866  0.00  0.00    +0.000 NA
ATOM     10  H   UNL     1      -8.968 -12.257  13.648  0.00  0.00    +0.000 HD
ENDROOT
BRANCH   6  11
ATOM     11  C   UNL     1      -8.716  -9.183  20.137  0.00  0.00    +0.000 C 
ATOM     12  N   UNL     1      -8.867  -9.806  21.346  0.00  0.00    +0.000 N 
ATOM     13  O   UNL     1      -8.584  -7.960  20.118  0.00  0.00    +0.000 OA
ATOM     14  H   UNL     1      -8.977 -10.807  21.420  0.00  0.00    +0.000 HD
ATOM     15  H   UNL     1      -8.865  -9.235  22.180  0.00  0.00    +0.000 HD
ENDBRANCH   6  11
BRANCH   1  16
ATOM     16  C   UNL     1      -8.500 -14.598  14.920  0.00  0.00    +0.000 C 
ATOM     17  H   UNL     1      -9.098 -14.696  14.009  0.00  0.00    +0.000 HD
ATOM     18  H   UNL     1      -8.840 -15.355  15.633  0.00  0.00    +0.000 HD
ATOM     19  H   UNL     1      -7.454 -14.795  14.663  0.00  0.00    +0.000 HD
ENDBRANCH   1  16
BRANCH   3  20
ATOM     20  C   UNL     1      -9.263  -9.679  14.382  0.00  0.00    +0.000 C 
ATOM     21  H   UNL     1      -8.448  -8.948  14.407  0.00  0.00    +0.000 HD
ATOM     22  H   UNL     1     -10.178  -9.164  14.694  0.00  0.00    +0.000 HD
ATOM     23  H   UNL     1      -9.368 -10.022  13.348  0.00  0.00    +0.000 HD
ENDBRANCH   3  20
BRANCH   5  24
ATOM     24  N   UNL     1      -9.139  -8.357  17.288  0.00  0.00    +0.000 N 
ATOM     25  H   UNL     1      -8.703  -7.882  16.510  0.00  0.00    +0.000 HD
ATOM     26  H   UNL     1      -9.784  -7.772  17.827  0.00  0.00    +0.000 HD
ENDBRANCH   5  24
TORSDOF 4
ENDMDL
MODEL 2
REMARK VINA RESULT:    -8.092      2.290      2.882
REMARK INTER + INTRA:          -9.554
REMARK INTER:                  -9.424
REMARK INTRA:                  -0.130
REMARK UNBOUND:                -0.279
REMARK  Name = 
REMARK  4 active torsions:
REMARK  status: ('A' for Active; 'I' for Inactive)
REMARK    1  A    between atoms: C_1  and  C_2
REMARK    2  A    between atoms: C_4  and  C_5
REMARK    3  A    between atoms: C_7  and  N_8
REMARK    4  A    between atoms: C_9  and  C_10
REMARK                            x       y       z     vdW  Elec       q    Type
REMARK                         _______ _______ _______ _____ _____    ______ ____
ROOT
ATOM      1  C   UNL     1      -8.595 -11.943  17.850  0.00  0.00    +0.000 A 
ATOM      2  C   UNL     1      -8.866 -11.746  16.503  0.00  0.00    +0.000 A 
ATOM      3  C   UNL     1      -9.233 -10.473  16.029  0.00  0.00    +0.000 A 
ATOM      4  C   UNL     1      -9.308  -9.421  16.984  0.00  0.00    +0.000 A 
ATOM      5  C   UNL     1      -9.638  -8.018  16.905  0.00  0.00    +0.000 A 
ATOM      6  C   UNL     1      -9.579  -7.367  18.126  0.00  0.00    +0.000 A 
ATOM      7  S   UNL     1      -9.124  -8.446  19.375  0.00  0.00    +0.000 S 
ATOM      8  C   UNL     1      -9.010  -9.758  18.302  0.00  0.00    +0.000 A 
ATOM      9  N   UNL     1      -8.657 -10.968  18.776  0.00  0.00    +0.000 NA
ATOM     10  H   UNL     1      -8.794 -12.581  15.811  0.00  0.00    +0.000 HD
ENDROOT
BRANCH   6  11
ATOM     11  C   UNL     1      -9.849  -5.964  18.404  0.00  0.00    +0.000 C 
ATOM     12  N   UNL     1     -11.142  -5.624  18.694  0.00  0.00    +0.000 N 
ATOM     13  O   UNL     1      -8.996  -5.076  18.395  0.00  0.00    +0.000 OA
ATOM     14  H   UNL     1     -11.882  -6.312  18.717  0.00  0.00    +0.000 HD
ATOM     15  H   UNL     1     -11.349  -4.655  18.890  0.00  0.00    +0.000 HD
ENDBRANCH   6  11
BRANCH   1  16
ATOM     16  C   UNL     1      -8.207 -13.305  18.351  0.00  0.00    +0.000 C 
ATOM     17  H   UNL     1      -7.754 -13.259  19.346  0.00  0.00    +0.000 HD
ATOM     18  H   UNL     1      -7.483 -13.758  17.668  0.00  0.00    +0.000 HD
ATOM     19  H   UNL     1      -9.093 -13.945  18.408  0.00  0.00    +0.000 HD
ENDBRANCH   1  16
BRANCH   3  20
ATOM     20  C   UNL     1      -9.521 -10.302  14.566  0.00  0.00    +0.000 C 
ATOM     21  H   UNL     1      -8.697  -9.805  14.042  0.00  0.00    +0.000 HD
ATOM     22  H   UNL     1     -10.417  -9.688  14.429  0.00  0.00    +0.000 HD
ATOM     23  H   UNL     1      -9.670 -11.279  14.095  0.00  0.00    +0.000 HD
ENDBRANCH   3  20
BRANCH   5  24
ATOM     24  N   UNL     1      -9.976  -7.375  15.764  0.00  0.00    +0.000 N 
ATOM     25  H   UNL     1      -9.865  -6.383  15.602  0.00  0.00    +0.000 HD
ATOM     26  H   UNL     1     -10.386  -7.884  14.976  0.00  0.00    +0.000 HD
ENDBRANCH   5  24
TORSDOF 4
ENDMDL
MODEL 3
REMARK VINA RESULT:    -8.061      2.278      3.406
REMARK INTER + INTRA:          -9.518
REMARK INTER:                  -9.287
REMARK INTRA:                  -0.231
REMARK UNBOUND:                -0.279
REMARK  Name = 
REMARK  4 active torsions:
REMARK  status: ('A' for Active; 'I' for Inactive)
REMARK    1  A    between atoms: C_1  and  C_2
REMARK    2  A    between atoms: C_4  and  C_5
REMARK    3  A    between atoms: C_7  and  N_8
REMARK    4  A    between atoms: C_9  and  C_10
REMARK                            x       y       z     vdW  Elec       q    Type
REMARK                         _______ _______ _______ _____ _____    ______ ____
ROOT
ATOM      1  C   UNL     1      -8.708 -13.179  15.589  0.00  0.00    +0.000 A 
ATOM      2  C   UNL     1      -8.422 -13.101  16.946  0.00  0.00    +0.000 A 
ATOM      3  C   UNL     1      -8.543 -11.878  17.630  0.00  0.00    +0.000 A 
ATOM      4  C   UNL     1      -8.966 -10.749  16.874  0.00  0.00    +0.000 A 
ATOM      5  C   UNL     1      -9.206  -9.362  17.193  0.00  0.00    +0.000 A 
ATOM      6  C   UNL     1      -9.618  -8.608  16.107  0.00  0.00    +0.000 A 
ATOM      7  S   UNL     1      -9.719  -9.571  14.695  0.00  0.00    +0.000 S 
ATOM      8  C   UNL     1      -9.219 -10.968  15.523  0.00  0.00    +0.000 A 
ATOM      9  N   UNL     1      -9.110 -12.130  14.848  0.00  0.00    +0.000 NA
ATOM     10  H   UNL     1      -8.103 -13.991  17.481  0.00  0.00    +0.000 HD
ENDROOT
BRANCH   6  11
ATOM     11  C   UNL     1      -9.942  -7.190  16.076  0.00  0.00    +0.000 C 
ATOM     12  N   UNL     1     -11.246  -6.854  15.831  0.00  0.00    +0.000 N 
ATOM     13  O   UNL     1      -9.127  -6.286  16.258  0.00  0.00    +0.000 OA
ATOM     14  H   UNL     1     -11.957  -7.555  15.677  0.00  0.00    +0.000 HD
ATOM     15  H   UNL     1     -11.491  -5.874  15.807  0.00  0.00    +0.000 HD
ENDBRANCH   6  11
BRANCH   1  16
ATOM     16  C   UNL     1      -8.574 -14.486  14.863  0.00  0.00    +0.000 C 
ATOM     17  H   UNL     1      -9.535 -14.839  14.478  0.00  0.00    +0.000 HD
ATOM     18  H   UNL     1      -8.179 -15.248  15.542  0.00  0.00    +0.000 HD
ATOM     19  H   UNL     1      -7.888 -14.373  14.017  0.00  0.00    +0.000 HD
ENDBRANCH   1  16
BRANCH   3  20
ATOM     20  C   UNL     1      -8.221 -11.835  19.096  0.00  0.00    +0.000 C 
ATOM     21  H   UNL     1      -8.207 -10.810  19.480  0.00  0.00    +0.000 HD
ATOM     22  H   UNL     1      -7.231 -12.268  19.275  0.00  0.00    +0.000 HD
ATOM     23  H   UNL     1      -8.975 -12.390  19.663  0.00  0.00    +0.000 HD
ENDBRANCH   3  20
BRANCH   5  24
ATOM     24  N   UNL     1      -9.050  -8.823  18.424  0.00  0.00    +0.000 N 
ATOM     25  H   UNL     1      -8.475  -8.019  18.637  0.00  0.00    +0.000 HD
ATOM     26  H   UNL     1      -9.522  -9.227  19.238  0.00  0.00    +0.000 HD
ENDBRANCH   5  24
TORSDOF 4
ENDMDL
MODEL 4
REMARK VINA RESULT:    -7.785      2.659      4.902
REMARK INTER + INTRA:          -9.202
REMARK INTER:                  -8.917
REMARK INTRA:                  -0.285
REMARK UNBOUND:                -0.279
REMARK  Name = 
REMARK  4 active torsions:
REMARK  status: ('A' for Active; 'I' for Inactive)
REMARK    1  A    between atoms: C_1  and  C_2
REMARK    2  A    between atoms: C_4  and  C_5
REMARK    3  A    between atoms: C_7  and  N_8
REMARK    4  A    between atoms: C_9  and  C_10
REMARK                            x       y       z     vdW  Elec       q    Type
REMARK                         _______ _______ _______ _____ _____    ______ ____
ROOT
ATOM      1  C   UNL     1      -8.791  -9.321  19.278  0.00  0.00    +0.000 A 
ATOM      2  C   UNL     1      -9.028  -8.642  18.090  0.00  0.00    +0.000 A 
ATOM      3  C   UNL     1      -9.103  -9.342  16.872  0.00  0.00    +0.000 A 
ATOM      4  C   UNL     1      -8.927 -10.753  16.922  0.00  0.00    +0.000 A 
ATOM      5  C   UNL     1      -8.932 -11.799  15.927  0.00  0.00    +0.000 A 
ATOM      6  C   UNL     1      -8.711 -13.062  16.452  0.00  0.00    +0.000 A 
ATOM      7  S   UNL     1      -8.498 -12.992  18.149  0.00  0.00    +0.000 S 
ATOM      8  C   UNL     1      -8.697 -11.305  18.179  0.00  0.00    +0.000 A 
ATOM      9  N   UNL     1      -8.621 -10.654  19.357  0.00  0.00    +0.000 NA
ATOM     10  H   UNL     1      -9.156  -7.563  18.103  0.00  0.00    +0.000 HD
ENDROOT
BRANCH   6  11
ATOM     11  C   UNL     1      -8.652 -14.328  15.736  0.00  0.00    +0.000 C 
ATOM     12  N   UNL     1      -8.938 -15.461  16.450  0.00  0.00    +0.000 N 
ATOM     13  O   UNL     1      -8.366 -14.441  14.545  0.00  0.00    +0.000 OA
ATOM     14  H   UNL     1      -9.180 -15.426  17.430  0.00  0.00    +0.000 HD
ATOM     15  H   UNL     1      -8.903 -16.349  15.970  0.00  0.00    +0.000 HD
ENDBRANCH   6  11
BRANCH   1  16
ATOM     16  C   UNL     1      -8.708  -8.568  20.574  0.00  0.00    +0.000 C 
ATOM     17  H   UNL     1      -7.724  -8.669  21.042  0.00  0.00    +0.000 HD
ATOM     18  H   UNL     1      -9.458  -8.951  21.274  0.00  0.00    +0.000 HD
ATOM     19  H   UNL     1      -8.895  -7.504  20.398  0.00  0.00    +0.000 HD
ENDBRANCH   1  16
BRANCH   3  20
ATOM     20  C   UNL     1      -9.357  -8.571  15.610  0.00  0.00    +0.000 C 
ATOM     21  H   UNL     1     -10.016  -7.713  15.781  0.00  0.00    +0.000 HD
ATOM     22  H   UNL     1      -9.841  -9.214  14.867  0.00  0.00    +0.000 HD
ATOM     23  H   UNL     1      -8.414  -8.187  15.207  0.00  0.00    +0.000 HD
ENDBRANCH   3  20
BRANCH   5  24
ATOM     24  N   UNL     1      -9.128 -11.596  14.605  0.00  0.00    +0.000 N 
ATOM     25  H   UNL     1      -8.465 -11.826  13.877  0.00  0.00    +0.000 HD
ATOM     26  H   UNL     1      -9.994 -11.171  14.262  0.00  0.00    +0.000 HD
ENDBRANCH   5  24
TORSDOF 4
ENDMDL
MODEL 5
REMARK VINA RESULT:    -7.585      2.478      3.478
REMARK INTER + INTRA:          -8.973
REMARK INTER:                  -8.679
REMARK INTRA:                  -0.294
REMARK UNBOUND:                -0.279
REMARK  Name = 
REMARK  4 active torsions:
REMARK  status: ('A' for Active; 'I' for Inactive)
REMARK    1  A    between atoms: C_1  and  C_2
REMARK    2  A    between atoms: C_4  and  C_5
REMARK    3  A    between atoms: C_7  and  N_8
REMARK    4  A    between atoms: C_9  and  C_10
REMARK                            x       y       z     vdW  Elec       q    Type
REMARK                         _______ _______ _______ _____ _____    ______ ____
ROOT
ATOM      1  C   UNL     1      -8.882 -12.001  15.957  0.00  0.00    +0.000 A 
ATOM      2  C   UNL     1      -8.408 -12.068  17.261  0.00  0.00    +0.000 A 
ATOM      3  C   UNL     1      -8.564 -10.975  18.133  0.00  0.00    +0.000 A 
ATOM      4  C   UNL     1      -9.220  -9.822  17.619  0.00  0.00    +0.000 A 
ATOM      5  C   UNL     1      -9.566  -8.535  18.173  0.00  0.00    +0.000 A 
ATOM      6  C   UNL     1     -10.219  -7.704  17.276  0.00  0.00    +0.000 A 
ATOM      7  S   UNL     1     -10.418  -8.474  15.761  0.00  0.00    +0.000 S 
ATOM      8  C   UNL     1      -9.645  -9.890  16.294  0.00  0.00    +0.000 A 
ATOM      9  N   UNL     1      -9.506 -10.925  15.443  0.00  0.00    +0.000 NA
ATOM     10  H   UNL     1      -7.913 -12.971  17.609  0.00  0.00    +0.000 HD
ENDROOT
BRANCH   6  11
ATOM     11  C   UNL     1     -10.703  -6.351  17.504  0.00  0.00    +0.000 C 
ATOM     12  N   UNL     1     -11.922  -6.028  16.972  0.00  0.00    +0.000 N 
ATOM     13  O   UNL     1     -10.093  -5.491  18.139  0.00  0.00    +0.000 OA
ATOM     14  H   UNL     1     -12.466  -6.695  16.444  0.00  0.00    +0.000 HD
ATOM     15  H   UNL     1     -12.275  -5.093  17.120  0.00  0.00    +0.000 HD
ENDBRANCH   6  11
BRANCH   1  16
ATOM     16  C   UNL     1      -8.709 -13.169  15.030  0.00  0.00    +0.000 C 
ATOM     17  H   UNL     1      -7.929 -12.986  14.286  0.00  0.00    +0.000 HD
ATOM     18  H   UNL     1      -9.646 -13.364  14.500  0.00  0.00    +0.000 HD
ATOM     19  H   UNL     1      -8.432 -14.060  15.603  0.00  0.00    +0.000 HD
ENDBRANCH   1  16
BRANCH   3  20
ATOM     20  C   UNL     1      -8.034 -11.086  19.533  0.00  0.00    +0.000 C 
ATOM     21  H   UNL     1      -7.178 -11.767  19.593  0.00  0.00    +0.000 HD
ATOM     22  H   UNL     1      -8.811 -11.476  20.199  0.00  0.00    +0.000 HD
ATOM     23  H   UNL     1      -7.702 -10.106  19.888  0.00  0.00    +0.000 HD
ENDBRANCH   3  20
BRANCH   5  24
ATOM     24  N   UNL     1      -9.291  -8.150  19.440  0.00  0.00    +0.000 N 
ATOM     25  H   UNL     1      -9.893  -7.575  20.014  0.00  0.00    +0.000 HD
ATOM     26  H   UNL     1      -8.418  -8.428  19.896  0.00  0.00    +0.000 HD
ENDBRANCH   5  24
TORSDOF 4
ENDMDL
MODEL 6
REMARK VINA RESULT:    -7.546      2.764      4.201
REMARK INTER + INTRA:          -8.928
REMARK INTER:                  -8.652
REMARK INTRA:                  -0.276
REMARK UNBOUND:                -0.279
REMARK  Name = 
REMARK  4 active torsions:
REMARK  status: ('A' for Active; 'I' for Inactive)
REMARK    1  A    between atoms: C_1  and  C_2
REMARK    2  A    between atoms: C_4  and  C_5
REMARK    3  A    between atoms: C_7  and  N_8
REMARK    4  A    between atoms: C_9  and  C_10
REMARK                            x       y       z     vdW  Elec       q    Type
REMARK                         _______ _______ _______ _____ _____    ______ ____
ROOT
ATOM      1  C   UNL     1      -8.774 -11.540  17.477  0.00  0.00    +0.000 A 
ATOM      2  C   UNL     1      -8.427 -11.101  18.748  0.00  0.00    +0.000 A 
ATOM      3  C   UNL     1      -8.703  -9.780  19.146  0.00  0.00    +0.000 A 
ATOM      4  C   UNL     1      -9.345  -8.937  18.198  0.00  0.00    +0.000 A 
ATOM      5  C   UNL     1      -9.787  -7.563  18.215  0.00  0.00    +0.000 A 
ATOM      6  C   UNL     1     -10.377  -7.156  17.029  0.00  0.00    +0.000 A 
ATOM      7  S   UNL     1     -10.402  -8.431  15.888  0.00  0.00    +0.000 S 
ATOM      8  C   UNL     1      -9.637  -9.505  16.960  0.00  0.00    +0.000 A 
ATOM      9  N   UNL     1      -9.381 -10.766  16.559  0.00  0.00    +0.000 NA
ATOM     10  H   UNL     1      -7.938 -11.783  19.439  0.00  0.00    +0.000 HD
ENDROOT
BRANCH   6  11
ATOM     11  C   UNL     1     -10.926  -5.847  16.709  0.00  0.00    +0.000 C 
ATOM     12  N   UNL     1     -11.725  -5.761  15.601  0.00  0.00    +0.000 N 
ATOM     13  O   UNL     1     -10.721  -4.826  17.366  0.00  0.00    +0.000 OA
ATOM     14  H   UNL     1     -11.929  -6.567  15.027  0.00  0.00    +0.000 HD
ATOM     15  H   UNL     1     -12.117  -4.861  15.363  0.00  0.00    +0.000 HD
ENDBRANCH   6  11
BRANCH   1  16
ATOM     16  C   UNL     1      -8.472 -12.949  17.057  0.00  0.00    +0.000 C 
ATOM     17  H   UNL     1      -8.238 -13.014  15.990  0.00  0.00    +0.000 HD
ATOM     18  H   UNL     1      -9.338 -13.588  17.255  0.00  0.00    +0.000 HD
ATOM     19  H   UNL     1      -7.613 -13.329  17.619  0.00  0.00    +0.000 HD
ENDBRANCH   1  16
BRANCH   3  20
ATOM     20  C   UNL     1      -8.309  -9.344  20.527  0.00  0.00    +0.000 C 
ATOM     21  H   UNL     1      -7.268  -9.004  20.566  0.00  0.00    +0.000 HD
ATOM     22  H   UNL     1      -8.409 -10.179  21.228  0.00  0.00    +0.000 HD
ATOM     23  H   UNL     1      -8.940  -8.512  20.853  0.00  0.00    +0.000 HD
ENDBRANCH   3  20
BRANCH   5  24
ATOM     24  N   UNL     1      -9.649  -6.729  19.271  0.00  0.00    +0.000 N 
ATOM     25  H   UNL     1      -8.782  -6.299  19.563  0.00  0.00    +0.000 HD
ATOM     26  H   UNL     1     -10.453  -6.489  19.859  0.00  0.00    +0.000 HD
ENDBRANCH   5  24
TORSDOF 4
ENDMDL
MODEL 7
REMARK VINA RESULT:    -7.410      2.724      5.189
REMARK INTER + INTRA:          -8.772
REMARK INTER:                  -8.502
REMARK INTRA:                  -0.271
REMARK UNBOUND:                -0.279
REMARK  Name = 
REMARK  4 active torsions:
REMARK  status: ('A' for Active; 'I' for Inactive)
REMARK    1  A    between atoms: C_1  and  C_2
REMARK    2  A    between atoms: C_4  and  C_5
REMARK    3  A    between atoms: C_7  and  N_8
REMARK    4  A    between atoms: C_9  and  C_10
REMARK                            x       y       z     vdW  Elec       q    Type
REMARK                         _______ _______ _______ _____ _____    ______ ____
ROOT
ATOM      1  C   UNL     1      -8.987  -8.071  16.400  0.00  0.00    +0.000 A 
ATOM      2  C   UNL     1      -8.877  -8.250  17.773  0.00  0.00    +0.000 A 
ATOM      3  C   UNL     1      -8.811  -9.545  18.319  0.00  0.00    +0.000 A 
ATOM      4  C   UNL     1      -8.862 -10.637  17.410  0.00  0.00    +0.000 A 
ATOM      5  C   UNL     1      -8.825 -12.072  17.563  0.00  0.00    +0.000 A 
ATOM      6  C   UNL     1      -8.906 -12.759  16.363  0.00  0.00    +0.000 A 
ATOM      7  S   UNL     1      -9.028 -11.675  15.044  0.00  0.00    +0.000 S 
ATOM      8  C   UNL     1      -8.973 -10.315  16.060  0.00  0.00    +0.000 A 
ATOM      9  N   UNL     1      -9.037  -9.084  15.516  0.00  0.00    +0.000 NA
ATOM     10  H   UNL     1      -8.841  -7.384  18.428  0.00  0.00    +0.000 HD
ENDROOT
BRANCH   6  11
ATOM     11  C   UNL     1      -8.897 -14.200  16.157  0.00  0.00    +0.000 C 
ATOM     12  N   UNL     1      -8.951 -14.644  14.864  0.00  0.00    +0.000 N 
ATOM     13  O   UNL     1      -8.843 -15.032  17.062  0.00  0.00    +0.000 OA
ATOM     14  H   UNL     1      -8.995 -14.006  14.082  0.00  0.00    +0.000 HD
ATOM     15  H   UNL     1      -8.945 -15.641  14.701  0.00  0.00    +0.000 HD
ENDBRANCH   6  11
BRANCH   1  16
ATOM     16  C   UNL     1      -9.060  -6.687  15.823  0.00  0.00    +0.000 C 
ATOM     17  H   UNL     1      -9.981  -6.531  15.255  0.00  0.00    +0.000 HD
ATOM     18  H   UNL     1      -8.213  -6.520  15.151  0.00  0.00    +0.000 HD
ATOM     19  H   UNL     1      -9.027  -5.946  16.629  0.00  0.00    +0.000 HD
ENDBRANCH   1  16
BRANCH   3  20
ATOM     20  C   UNL     1      -8.696  -9.696  19.809  0.00  0.00    +0.000 C 
ATOM     21  H   UNL     1      -9.520 -10.287  20.223  0.00  0.00    +0.000 HD
ATOM     22  H   UNL     1      -8.723  -8.712  20.289  0.00  0.00    +0.000 HD
ATOM     23  H   UNL     1      -7.762 -10.205  20.064  0.00  0.00    +0.000 HD
ENDBRANCH   3  20
BRANCH   5  24
ATOM     24  N   UNL     1      -8.722 -12.711  18.751  0.00  0.00    +0.000 N 
ATOM     25  H   UNL     1      -9.169 -12.416  19.609  0.00  0.00    +0.000 HD
ATOM     26  H   UNL     1      -8.155 -13.558  18.845  0.00  0.00    +0.000 HD
ENDBRANCH   5  24
TORSDOF 4
ENDMDL
MODEL 8
REMARK VINA RESULT:    -7.153      3.014      6.052
REMARK INTER + INTRA:          -8.478
REMARK INTER:                  -8.196
REMARK INTRA:                  -0.282
REMARK UNBOUND:                -0.279
REMARK  Name = 
REMARK  4 active torsions:
REMARK  status: ('A' for Active; 'I' for Inactive)
REMARK    1  A    between atoms: C_1  and  C_2
REMARK    2  A    between atoms: C_4  and  C_5
REMARK    3  A    between atoms: C_7  and  N_8
REMARK    4  A    between atoms: C_9  and  C_10
REMARK                            x       y       z     vdW  Elec       q    Type
REMARK                         _______ _______ _______ _____ _____    ______ ____
ROOT
ATOM      1  C   UNL     1      -8.438  -6.043  19.222  0.00  0.00    +0.000 A 
ATOM      2  C   UNL     1      -8.460  -7.072  20.154  0.00  0.00    +0.000 A 
ATOM      3  C   UNL     1      -8.678  -8.400  19.745  0.00  0.00    +0.000 A 
ATOM      4  C   UNL     1      -8.870  -8.627  18.354  0.00  0.00    +0.000 A 
ATOM      5  C   UNL     1      -9.115  -9.804  17.555  0.00  0.00    +0.000 A 
ATOM      6  C   UNL     1      -9.240  -9.538  16.201  0.00  0.00    +0.000 A 
ATOM      7  S   UNL     1      -9.062  -7.865  15.887  0.00  0.00    +0.000 S 
ATOM      8  C   UNL     1      -8.823  -7.505  17.530  0.00  0.00    +0.000 A 
ATOM      9  N   UNL     1      -8.616  -6.227  17.901  0.00  0.00    +0.000 NA
ATOM     10  H   UNL     1      -8.307  -6.848  21.207  0.00  0.00    +0.000 HD
ENDROOT
BRANCH   6  11
ATOM     11  C   UNL     1      -9.488 -10.485  15.124  0.00  0.00    +0.000 C 
ATOM     12  N   UNL     1      -9.986  -9.981  13.954  0.00  0.00    +0.000 N 
ATOM     13  O   UNL     1      -9.279 -11.696  15.200  0.00  0.00    +0.000 OA
ATOM     14  H   UNL     1     -10.175  -8.996  13.836  0.00  0.00    +0.000 HD
ATOM     15  H   UNL     1     -10.164 -10.623  13.194  0.00  0.00    +0.000 HD
ENDBRANCH   6  11
BRANCH   1  16
ATOM     16  C   UNL     1      -8.208  -4.627  19.666  0.00  0.00    +0.000 C 
ATOM     17  H   UNL     1      -8.104  -3.946  18.816  0.00  0.00    +0.000 HD
ATOM     18  H   UNL     1      -7.292  -4.569  20.262  0.00  0.00    +0.000 HD
ATOM     19  H   UNL     1      -9.051  -4.287  20.275  0.00  0.00    +0.000 HD
ENDBRANCH   1  16
BRANCH   3  20
ATOM     20  C   UNL     1      -8.698  -9.483  20.784  0.00  0.00    +0.000 C 
ATOM     21  H   UNL     1      -9.425  -9.275  21.576  0.00  0.00    +0.000 HD
ATOM     22  H   UNL     1      -7.713  -9.569  21.255  0.00  0.00    +0.000 HD
ATOM     23  H   UNL     1      -8.973 -10.438  20.326  0.00  0.00    +0.000 HD
ENDBRANCH   3  20
BRANCH   5  24
ATOM     24  N   UNL     1      -9.217 -11.058  18.052  0.00  0.00    +0.000 N 
ATOM     25  H   UNL     1      -8.795 -11.376  18.914  0.00  0.00    +0.000 HD
ATOM     26  H   UNL     1      -9.746 -11.779  17.554  0.00  0.00    +0.000 HD
ENDBRANCH   5  24
TORSDOF 4
ENDMDL
MODEL 9
REMARK VINA RESULT:    -6.968      3.000      5.020
REMARK INTER + INTRA:          -8.265
REMARK INTER:                  -8.075
REMARK INTRA:                  -0.191
REMARK UNBOUND:                -0.279
REMARK  Name = 
REMARK  4 active torsions:
REMARK  status: ('A' for Active; 'I' for Inactive)
REMARK    1  A    between atoms: C_1  and  C_2
REMARK    2  A    between atoms: C_4  and  C_5
REMARK    3  A    between atoms: C_7  and  N_8
REMARK    4  A    between atoms: C_9  and  C_10
REMARK                            x       y       z     vdW  Elec       q    Type
REMARK                         _______ _______ _______ _____ _____    ______ ____
ROOT
ATOM      1  C   UNL     1      -8.739  -9.635  20.066  0.00  0.00    +0.000 A 
ATOM      2  C   UNL     1      -8.614 -10.594  19.069  0.00  0.00    +0.000 A 
ATOM      3  C   UNL     1      -8.859 -10.259  17.725  0.00  0.00    +0.000 A 
ATOM      4  C   UNL     1      -9.233  -8.915  17.448  0.00  0.00    +0.000 A 
ATOM      5  C   UNL     1      -9.560  -8.194  16.241  0.00  0.00    +0.000 A 
ATOM      6  C   UNL     1      -9.872  -6.862  16.459  0.00  0.00    +0.000 A 
ATOM      7  S   UNL     1      -9.772  -6.474  18.123  0.00  0.00    +0.000 S 
ATOM      8  C   UNL     1      -9.320  -8.058  18.542  0.00  0.00    +0.000 A 
ATOM      9  N   UNL     1      -9.090  -8.357  19.835  0.00  0.00    +0.000 NA
ATOM     10  H   UNL     1      -8.325 -11.608  19.330  0.00  0.00    +0.000 HD
ENDROOT
BRANCH   6  11
ATOM     11  C   UNL     1     -10.246  -5.859  15.473  0.00  0.00    +0.000 C 
ATOM     12  N   UNL     1     -11.558  -5.472  15.444  0.00  0.00    +0.000 N 
ATOM     13  O   UNL     1      -9.463  -5.344  14.675  0.00  0.00    +0.000 OA
ATOM     14  H   UNL     1     -12.242  -5.861  16.077  0.00  0.00    +0.000 HD
ATOM     15  H   UNL     1     -11.836  -4.776  14.766  0.00  0.00    +0.000 HD
ENDBRANCH   6  11
BRANCH   1  16
ATOM     16  C   UNL     1      -8.479  -9.999  21.499  0.00  0.00    +0.000 C 
ATOM     17  H   UNL     1      -7.683  -9.390  21.936  0.00  0.00    +0.000 HD
ATOM     18  H   UNL     1      -8.179 -11.050  21.567  0.00  0.00    +0.000 HD
ATOM     19  H   UNL     1      -9.387  -9.850  22.091  0.00  0.00    +0.000 HD
ENDBRANCH   1  16
BRANCH   3  20
ATOM     20  C   UNL     1      -8.717 -11.325  16.677  0.00  0.00    +0.000 C 
ATOM     21  H   UNL     1      -7.880 -11.998  16.891  0.00  0.00    +0.000 HD
ATOM     22  H   UNL     1      -8.532 -10.868  15.699  0.00  0.00    +0.000 HD
ATOM     23  H   UNL     1      -9.627 -11.933  16.634  0.00  0.00    +0.000 HD
ENDBRANCH   3  20
BRANCH   5  24
ATOM     24  N   UNL     1      -9.570  -8.740  15.003  0.00  0.00    +0.000 N 
ATOM     25  H   UNL     1      -9.361  -9.707  14.794  0.00  0.00    +0.000 HD
ATOM     26  H   UNL     1      -9.793  -8.173  14.181  0.00  0.00    +0.000 HD
ENDBRANCH   5  24
TORSDOF 4
ENDMDL
