
 OpenBabel01112422113D

 31 33  0  0  0  0  0  0  0  0999 V2000
    1.1419   -0.0367    0.2634 N   0  0  0  0  0  0  0  0  0  0  0  0
    2.5237    0.0506    0.0666 C   0  0  0  0  0  0  0  0  0  0  0  0
    3.3181   -1.1175    0.0858 C   0  0  0  0  0  0  0  0  0  0  0  0
    4.7206   -1.0586    0.0432 C   0  0  0  0  0  0  0  0  0  0  0  0
    5.3085    0.1920    0.0227 C   0  0  0  0  0  0  0  0  0  0  0  0
    4.5289    1.3432    0.0500 C   0  0  0  0  0  0  0  0  0  0  0  0
    3.1458    1.3010    0.0910 C   0  0  0  0  0  0  0  0  0  0  0  0
    5.3747    2.5351    0.0571 C   0  0  0  0  0  0  0  0  0  0  0  0
    4.9903    3.6861    0.0712 O   0  0  0  0  0  0  0  0  0  0  0  0
    6.7724    2.0356    0.0400 C   0  0  0  0  0  0  0  0  0  0  0  0
    7.7956    2.8986    0.0637 C   0  0  0  0  0  0  0  0  0  0  0  0
    9.2150    2.5531    0.0682 C   0  0  0  0  0  0  0  0  0  0  0  0
    9.9097    2.4140   -1.1375 C   0  0  0  0  0  0  0  0  0  0  0  0
   11.2749    2.1191   -1.1232 C   0  0  0  0  0  0  0  0  0  0  0  0
   12.1885    1.9488   -2.7768 Br  0  0  0  0  0  0  0  0  0  0  0  0
   11.9557    1.9651    0.0884 C   0  0  0  0  0  0  0  0  0  0  0  0
   13.2932    1.6681    0.1114 O   0  0  0  0  0  0  0  0  0  0  0  0
   11.2629    2.1193    1.2910 C   0  0  0  0  0  0  0  0  0  0  0  0
   12.1351    1.9486    2.9673 Br  0  0  0  0  0  0  0  0  0  0  0  0
    9.8961    2.4135    1.2825 C   0  0  0  0  0  0  0  0  0  0  0  0
    6.7413    0.5461    0.0085 C   0  0  0  0  0  0  0  0  0  0  0  0
    7.6705   -0.2311   -0.0257 O   0  0  0  0  0  0  0  0  0  0  0  0
    0.7176   -0.9008   -0.0592 H   0  0  0  0  0  0  0  0  0  0  0  0
    0.6190    0.7826   -0.0343 H   0  0  0  0  0  0  0  0  0  0  0  0
    2.8351   -2.0922    0.1426 H   0  0  0  0  0  0  0  0  0  0  0  0
    5.3194   -1.9646    0.0500 H   0  0  0  0  0  0  0  0  0  0  0  0
    2.5736    2.2216    0.1487 H   0  0  0  0  0  0  0  0  0  0  0  0
    7.5935    3.9692    0.0935 H   0  0  0  0  0  0  0  0  0  0  0  0
    9.3897    2.5432   -2.0838 H   0  0  0  0  0  0  0  0  0  0  0  0
   13.5868    1.5401   -0.8085 H   0  0  0  0  0  0  0  0  0  0  0  0
    9.3641    2.5408    2.2227 H   0  0  0  0  0  0  0  0  0  0  0  0
  1  2  1  0  0  0  0
  1 23  1  0  0  0  0
  1 24  1  0  0  0  0
  2  3  1  0  0  0  0
  2  7  2  0  0  0  0
  3  4  2  0  0  0  0
  3 25  1  0  0  0  0
  4  5  1  0  0  0  0
  4 26  1  0  0  0  0
  5  6  2  0  0  0  0
  5 21  1  0  0  0  0
  6  7  1  0  0  0  0
  6  8  1  0  0  0  0
  7 27  1  0  0  0  0
  8  9  2  0  0  0  0
  8 10  1  0  0  0  0
 10 11  2  0  0  0  0
 10 21  1  0  0  0  0
 11 12  1  0  0  0  0
 11 28  1  0  0  0  0
 12 13  1  0  0  0  0
 12 20  2  0  0  0  0
 13 14  2  0  0  0  0
 13 29  1  0  0  0  0
 14 15  1  0  0  0  0
 14 16  1  0  0  0  0
 16 17  1  0  0  0  0
 16 18  2  0  0  0  0
 17 30  1  0  0  0  0
 18 19  1  0  0  0  0
 18 20  1  0  0  0  0
 20 31  1  0  0  0  0
 21 22  2  0  0  0  0
M  END
$$$$
