REMARK  Name = 
REMARK  7 active torsions:
REMARK  status: ('A' for Active; 'I' for Inactive)
REMARK    1  A    between atoms: C_1  and  N_2
REMARK    2  A    between atoms: N_5  and  C_6
REMARK    3  A    between atoms: C_6  and  C_7
REMARK    4  A    between atoms: C_10  and  C_11
REMARK    5  A    between atoms: N_13  and  C_14
REMARK    6  A    between atoms: C_18  and  N_19
REMARK    7  A    between atoms: C_24  and  C_25
REMARK                            x       y       z     vdW  Elec       q    Type
REMARK                         _______ _______ _______ _____ _____    ______ ____
ROOT
ATOM      1  C   UNL     1      -1.191   0.585  -1.080  0.00  0.00    +0.000 C 
ATOM      2  O   UNL     1      -2.300   0.822  -0.611  0.00  0.00    +0.000 OA
ATOM      3  N   UNL     1      -0.595  -0.660  -1.202  0.00  0.00    +0.000 N 
ATOM      4  H   UNL     1       0.396  -0.684  -1.399  0.00  0.00    +0.000 HD
ENDROOT
BRANCH   1   8
ATOM      5  C   UNL     1       1.132   4.008  -2.237  0.00  0.00    +0.000 A 
ATOM      6  C   UNL     1       0.158   4.090  -1.231  0.00  0.00    +0.000 A 
ATOM      7  C   UNL     1      -0.576   2.966  -0.860  0.00  0.00    +0.000 A 
ATOM      8  C   UNL     1      -0.363   1.744  -1.504  0.00  0.00    +0.000 A 
ATOM      9  C   UNL     1       0.576   1.658  -2.539  0.00  0.00    +0.000 A 
ATOM     10  C   UNL     1       1.331   2.782  -2.890  0.00  0.00    +0.000 A 
ATOM     11  H   UNL     1      -0.032   5.029  -0.719  0.00  0.00    +0.000 HD
ATOM     12  H   UNL     1      -1.316   3.047  -0.066  0.00  0.00    +0.000 HD
ATOM     13  H   UNL     1       0.712   0.738  -3.100  0.00  0.00    +0.000 HD
ATOM     14  H   UNL     1       2.066   2.704  -3.688  0.00  0.00    +0.000 HD
BRANCH   5  15
ATOM     15  C   UNL     1       1.943   5.232  -2.613  0.00  0.00    +0.000 C 
ATOM     16  H   UNL     1       2.169   5.149  -3.685  0.00  0.00    +0.000 HD
ATOM     17  H   UNL     1       1.302   6.116  -2.522  0.00  0.00    +0.000 HD
BRANCH  15  21
ATOM     18  N   UNL     1       3.115   8.014  -0.451  0.00  0.00    +0.000 NA
ATOM     19  C   UNL     1       2.370   6.835   0.025  0.00  0.00    +0.000 C 
ATOM     20  C   UNL     1       3.048   5.518  -0.416  0.00  0.00    +0.000 C 
ATOM     21  N   UNL     1       3.214   5.375  -1.880  0.00  0.00    +0.000 NA
ATOM     22  C   UNL     1       3.946   6.577  -2.353  0.00  0.00    +0.000 C 
ATOM     23  C   UNL     1       3.339   7.934  -1.906  0.00  0.00    +0.000 C 
ATOM     24  H   UNL     1       1.336   6.866  -0.337  0.00  0.00    +0.000 HD
ATOM     25  H   UNL     1       2.325   6.848   1.120  0.00  0.00    +0.000 HD
ATOM     26  H   UNL     1       2.516   4.660   0.009  0.00  0.00    +0.000 HD
ATOM     27  H   UNL     1       4.045   5.472   0.043  0.00  0.00    +0.000 HD
ATOM     28  H   UNL     1       4.036   6.558  -3.446  0.00  0.00    +0.000 HD
ATOM     29  H   UNL     1       4.976   6.515  -1.975  0.00  0.00    +0.000 HD
ATOM     30  H   UNL     1       2.401   8.104  -2.448  0.00  0.00    +0.000 HD
ATOM     31  H   UNL     1       4.030   8.732  -2.205  0.00  0.00    +0.000 HD
BRANCH  18  32
ATOM     32  C   UNL     1       2.421   9.247  -0.088  0.00  0.00    +0.000 C 
ATOM     33  H   UNL     1       2.272   9.301   0.996  0.00  0.00    +0.000 HD
ATOM     34  H   UNL     1       1.441   9.330  -0.572  0.00  0.00    +0.000 HD
ATOM     35  H   UNL     1       3.020  10.120  -0.368  0.00  0.00    +0.000 HD
ENDBRANCH  18  32
ENDBRANCH  15  21
ENDBRANCH   5  15
ENDBRANCH   1   8
BRANCH   3  36
ATOM     36  C   UNL     1      -1.205  -1.899  -0.902  0.00  0.00    +0.000 A 
ATOM     37  C   UNL     1      -2.579  -2.030  -0.701  0.00  0.00    +0.000 A 
ATOM     38  C   UNL     1      -3.131  -3.264  -0.382  0.00  0.00    +0.000 A 
ATOM     39  C   UNL     1      -2.306  -4.376  -0.257  0.00  0.00    +0.000 A 
ATOM     40  C   UNL     1      -0.920  -4.287  -0.451  0.00  0.00    +0.000 A 
ATOM     41  C   UNL     1      -0.384  -3.035  -0.797  0.00  0.00    +0.000 A 
ATOM     42  H   UNL     1      -3.257  -1.188  -0.795  0.00  0.00    +0.000 HD
ATOM     43  H   UNL     1      -4.200  -3.357  -0.219  0.00  0.00    +0.000 HD
ATOM     44  H   UNL     1      -2.773  -5.325  -0.006  0.00  0.00    +0.000 HD
ATOM     45  H   UNL     1       0.688  -2.942  -0.939  0.00  0.00    +0.000 HD
BRANCH  40  46
ATOM     46  N   UNL     1      -0.067  -5.375  -0.212  0.00  0.00    +0.000 N 
ATOM     47  C   UNL     1      -0.253  -6.482   0.616  0.00  0.00    +0.000 A 
ATOM     48  N   UNL     1       0.664  -7.454   0.568  0.00  0.00    +0.000 NA
ATOM     49  C   UNL     1       0.481  -8.497   1.401  0.00  0.00    +0.000 A 
ATOM     50  C   UNL     1      -0.559  -8.595   2.297  0.00  0.00    +0.000 A 
ATOM     51  C   UNL     1      -1.452  -7.547   2.299  0.00  0.00    +0.000 A 
ATOM     52  N   UNL     1      -1.294  -6.508   1.459  0.00  0.00    +0.000 NA
ATOM     53  H   UNL     1       0.869  -5.355  -0.585  0.00  0.00    +0.000 HD
ATOM     54  H   UNL     1       1.232  -9.280   1.334  0.00  0.00    +0.000 HD
ATOM     55  H   UNL     1      -0.636  -9.439   2.968  0.00  0.00    +0.000 HD
BRANCH  51  56
ATOM     56  C   UNL     1      -2.607  -7.433   3.204  0.00  0.00    +0.000 A 
ATOM     57  C   UNL     1      -3.138  -6.180   3.561  0.00  0.00    +0.000 A 
ATOM     58  C   UNL     1      -4.220  -6.077   4.431  0.00  0.00    +0.000 A 
ATOM     59  C   UNL     1      -4.764  -7.247   4.933  0.00  0.00    +0.000 A 
ATOM     60  N   UNL     1      -4.310  -8.476   4.613  0.00  0.00    +0.000 NA
ATOM     61  C   UNL     1      -3.258  -8.535   3.757  0.00  0.00    +0.000 A 
ATOM     62  H   UNL     1      -2.701  -5.265   3.157  0.00  0.00    +0.000 HD
ATOM     63  H   UNL     1      -4.623  -5.110   4.709  0.00  0.00    +0.000 HD
ATOM     64  H   UNL     1      -5.602  -7.222   5.622  0.00  0.00    +0.000 HD
ATOM     65  H   UNL     1      -2.958  -9.551   3.514  0.00  0.00    +0.000 HD
ENDBRANCH  51  56
ENDBRANCH  40  46
ENDBRANCH   3  36
TORSDOF 7
