
 OpenBabel01112423013D

 63 66  0  0  0  0  0  0  0  0999 V2000
    6.4644   -5.1167    3.6564 C   0  0  0  0  0  0  0  0  0  0  0  0
    6.5393   -3.9061    2.9040 O   0  0  0  0  0  0  0  0  0  0  0  0
    7.3519   -2.9524    3.4229 C   0  0  0  0  0  0  0  0  0  0  0  0
    8.0206   -3.0522    4.4369 O   0  0  0  0  0  0  0  0  0  0  0  0
    7.3049   -1.7268    2.5724 C   0  0  0  0  0  0  0  0  0  0  0  0
    6.5398   -1.6955    1.3999 C   0  0  0  0  0  0  0  0  0  0  0  0
    6.5005   -0.5487    0.6253 C   0  0  0  0  0  0  0  0  0  0  0  0
    7.2210    0.5780    1.0218 C   0  0  0  0  0  0  0  0  0  0  0  0
    7.9905    0.5828    2.1928 C   0  0  0  0  0  0  0  0  0  0  0  0
    8.7069    1.7248    2.6349 N   0  0  0  0  0  0  0  0  0  0  0  0
    8.8895    2.9018    1.9264 C   0  0  0  0  0  0  0  0  0  0  0  0
    8.5312    3.0540    0.7588 O   0  0  0  0  0  0  0  0  0  0  0  0
    9.6953    4.0166    2.6270 C   0  0  0  0  0  0  0  0  0  0  0  0
    9.3144    4.1180    4.1468 C   0  0  0  0  0  0  0  0  0  0  0  0
    9.5754    2.9824    5.0779 N   0  0  0  0  0  0  0  0  0  0  0  0
   10.9939    2.6459    5.2471 C   0  0  0  0  0  0  0  0  0  0  0  0
    9.0685    3.3441    6.4188 C   0  0  0  0  0  0  0  0  0  0  0  0
    9.2976    5.3929    1.9718 C   0  0  0  0  0  0  0  0  0  0  0  0
    9.8855    5.6380    0.5736 C   0  0  0  0  0  0  0  0  0  0  0  0
   11.3110    5.3722    0.6179 N   0  0  0  0  0  0  0  0  0  0  0  0
   12.2854    6.3000    0.3343 C   0  0  0  0  0  0  0  0  0  0  0  0
   13.4665    5.8803   -0.1993 N   0  0  0  0  0  0  0  0  0  0  0  0
   14.4056    6.7914   -0.5275 C   0  0  0  0  0  0  0  0  0  0  0  0
   14.3607    8.1245   -0.3782 N   0  0  0  0  0  0  0  0  0  0  0  0
   13.1994    8.5039    0.1796 C   0  0  0  0  0  0  0  0  0  0  0  0
   12.8523    9.7998    0.4457 N   0  0  0  0  0  0  0  0  0  0  0  0
   11.5785    9.8428    0.9618 C   0  0  0  0  0  0  0  0  0  0  0  0
   10.8261   11.0912    1.2052 C   0  0  0  0  0  0  0  0  0  0  0  0
   11.1814    8.5389    1.1532 C   0  0  0  0  0  0  0  0  0  0  0  0
   12.1520    7.6833    0.5689 C   0  0  0  0  0  0  0  0  0  0  0  0
   11.6809    4.0208    0.9682 C   0  0  0  0  0  0  0  0  0  0  0  0
   11.2042    3.7798    2.4013 C   0  0  0  0  0  0  0  0  0  0  0  0
    8.0285   -0.5846    2.9680 C   0  0  0  0  0  0  0  0  0  0  0  0
    5.9113   -5.8510    3.0602 H   0  0  0  0  0  0  0  0  0  0  0  0
    5.9134   -4.9439    4.5846 H   0  0  0  0  0  0  0  0  0  0  0  0
    7.4593   -5.5204    3.8591 H   0  0  0  0  0  0  0  0  0  0  0  0
    5.9658   -2.5631    1.0740 H   0  0  0  0  0  0  0  0  0  0  0  0
    5.9040   -0.5142   -0.2830 H   0  0  0  0  0  0  0  0  0  0  0  0
    7.1293    1.4546    0.3894 H   0  0  0  0  0  0  0  0  0  0  0  0
    9.0617    1.7093    3.5920 H   0  0  0  0  0  0  0  0  0  0  0  0
    8.2264    4.2864    4.1719 H   0  0  0  0  0  0  0  0  0  0  0  0
    9.7665    5.0291    4.5641 H   0  0  0  0  0  0  0  0  0  0  0  0
   11.3628    2.0645    4.4041 H   0  0  0  0  0  0  0  0  0  0  0  0
   11.1374    1.9743    6.1018 H   0  0  0  0  0  0  0  0  0  0  0  0
   11.6218    3.5299    5.4008 H   0  0  0  0  0  0  0  0  0  0  0  0
    8.0049    3.6046    6.3901 H   0  0  0  0  0  0  0  0  0  0  0  0
    9.6228    4.1868    6.8498 H   0  0  0  0  0  0  0  0  0  0  0  0
    9.1641    2.4916    7.1014 H   0  0  0  0  0  0  0  0  0  0  0  0
    9.6510    6.2028    2.6233 H   0  0  0  0  0  0  0  0  0  0  0  0
    8.2060    5.4943    1.9179 H   0  0  0  0  0  0  0  0  0  0  0  0
    9.6443    6.6488    0.2331 H   0  0  0  0  0  0  0  0  0  0  0  0
    9.4209    4.9952   -0.1804 H   0  0  0  0  0  0  0  0  0  0  0  0
   15.3092    6.3922   -0.9770 H   0  0  0  0  0  0  0  0  0  0  0  0
   13.4459   10.5914    0.2392 H   0  0  0  0  0  0  0  0  0  0  0  0
   11.4259   11.9814    1.0065 H   0  0  0  0  0  0  0  0  0  0  0  0
   10.4654   11.1282    2.2381 H   0  0  0  0  0  0  0  0  0  0  0  0
    9.9516   11.1122    0.5444 H   0  0  0  0  0  0  0  0  0  0  0  0
   10.2415    8.2458    1.6034 H   0  0  0  0  0  0  0  0  0  0  0  0
   12.7612    3.8410    0.9293 H   0  0  0  0  0  0  0  0  0  0  0  0
   11.2208    3.3051    0.2763 H   0  0  0  0  0  0  0  0  0  0  0  0
   11.7760    4.4291    3.0741 H   0  0  0  0  0  0  0  0  0  0  0  0
   11.4727    2.7409    2.6118 H   0  0  0  0  0  0  0  0  0  0  0  0
    8.6311   -0.6255    3.8743 H   0  0  0  0  0  0  0  0  0  0  0  0
  1  2  1  0  0  0  0
  1 34  1  0  0  0  0
  1 35  1  0  0  0  0
  1 36  1  0  0  0  0
  2  3  1  0  0  0  0
  3  4  2  0  0  0  0
  3  5  1  0  0  0  0
  5  6  1  0  0  0  0
  5 33  2  0  0  0  0
  6  7  2  0  0  0  0
  6 37  1  0  0  0  0
  7  8  1  0  0  0  0
  7 38  1  0  0  0  0
  8  9  2  0  0  0  0
  8 39  1  0  0  0  0
  9 10  1  0  0  0  0
  9 33  1  0  0  0  0
 10 11  1  0  0  0  0
 10 40  1  0  0  0  0
 11 12  2  0  0  0  0
 11 13  1  0  0  0  0
 13 14  1  0  0  0  0
 13 18  1  0  0  0  0
 13 32  1  0  0  0  0
 14 15  1  0  0  0  0
 14 41  1  0  0  0  0
 14 42  1  0  0  0  0
 15 16  1  0  0  0  0
 15 17  1  0  0  0  0
 16 43  1  0  0  0  0
 16 44  1  0  0  0  0
 16 45  1  0  0  0  0
 17 46  1  0  0  0  0
 17 47  1  0  0  0  0
 17 48  1  0  0  0  0
 18 19  1  0  0  0  0
 18 49  1  0  0  0  0
 18 50  1  0  0  0  0
 19 20  1  0  0  0  0
 19 51  1  0  0  0  0
 19 52  1  0  0  0  0
 20 21  1  0  0  0  0
 20 31  1  0  0  0  0
 21 22  1  0  0  0  0
 21 30  2  0  0  0  0
 22 23  2  0  0  0  0
 23 24  1  0  0  0  0
 23 53  1  0  0  0  0
 24 25  2  0  0  0  0
 25 26  1  0  0  0  0
 25 30  1  0  0  0  0
 26 27  1  0  0  0  0
 26 54  1  0  0  0  0
 27 28  1  0  0  0  0
 27 29  2  0  0  0  0
 28 55  1  0  0  0  0
 28 56  1  0  0  0  0
 28 57  1  0  0  0  0
 29 30  1  0  0  0  0
 29 58  1  0  0  0  0
 31 32  1  0  0  0  0
 31 59  1  0  0  0  0
 31 60  1  0  0  0  0
 32 61  1  0  0  0  0
 32 62  1  0  0  0  0
 33 63  1  0  0  0  0
M  END
$$$$
