REMARK  Name = 
REMARK  6 active torsions:
REMARK  status: ('A' for Active; 'I' for Inactive)
REMARK    1  A    between atoms: C_1  and  O_2
REMARK    2  A    between atoms: O_2  and  C_3
REMARK    3  A    between atoms: C_4  and  N_5
REMARK    4  A    between atoms: N_5  and  C_6
REMARK    5  A    between atoms: C_7  and  C_9
REMARK    6  A    between atoms: C_18  and  C_19
REMARK                            x       y       z     vdW  Elec       q    Type
REMARK                         _______ _______ _______ _____ _____    ______ ____
ROOT
ATOM      1  C   UNL     1       1.760  -0.385   0.764  0.00  0.00    +0.000 C 
ATOM      2  C   UNL     1       2.148   1.048   0.415  0.00  0.00    +0.000 C 
ATOM      3  C   UNL     1       0.826   1.995   0.254  0.00  0.00    +0.000 C 
ATOM      4  C   UNL     1      -0.516   1.823   1.615  0.00  0.00    +0.000 C 
ATOM      5  O   UNL     1       0.520   1.009   2.494  0.00  0.00    +0.000 OA
ATOM      6  C   UNL     1       0.726  -0.298   1.857  0.00  0.00    +0.000 C 
ATOM      7  N   UNL     1      -0.634  -0.483   1.108  0.00  0.00    +0.000 N 
ATOM      8  C   UNL     1      -1.130   0.489   0.312  0.00  0.00    +0.000 A 
ATOM      9  C   UNL     1      -1.502   2.263  -0.079  0.00  0.00    +0.000 A 
ATOM     10  C   UNL     1      -1.927   3.429   1.225  0.00  0.00    +0.000 A 
ATOM     11  C   UNL     1      -2.063   2.853   2.902  0.00  0.00    +0.000 A 
ATOM     12  C   UNL     1      -1.749   1.151   3.351  0.00  0.00    +0.000 A 
ATOM     13  C   UNL     1      -1.314  -0.154   2.093  0.00  0.00    +0.000 A 
ATOM     14  C   UNL     1      -1.937  -1.933   1.902  0.00  0.00    +0.000 A 
ATOM     15  C   UNL     1      -2.324  -2.383   0.383  0.00  0.00    +0.000 A 
ATOM     16  C   UNL     1      -3.124  -1.510  -0.543  0.00  0.00    +0.000 A 
ATOM     17  C   UNL     1      -3.720  -0.372   0.060  0.00  0.00    +0.000 A 
ATOM     18  C   UNL     1      -4.027   0.904  -0.474  0.00  0.00    +0.000 A 
ATOM     19  C   UNL     1      -4.498   1.548  -1.609  0.00  0.00    +0.000 A 
ATOM     20  C   UNL     1      -5.346   2.622  -1.282  0.00  0.00    +0.000 A 
ATOM     21  C   UNL     1      -5.926   2.595  -0.006  0.00  0.00    +0.000 A 
ATOM     22  C   UNL     1      -5.132   2.203   1.078  0.00  0.00    +0.000 A 
ATOM     23  C   UNL     1      -3.819   1.898   0.660  0.00  0.00    +0.000 A 
ATOM     24  N   UNL     1      -2.545   1.409   1.448  0.00  0.00    +0.000 N 
ATOM     25  C   UNL     1      -3.215   0.119   1.261  0.00  0.00    +0.000 A 
ATOM     26  C   UNL     1      -2.234  -0.666   1.688  0.00  0.00    +0.000 A 
ATOM     27  C   UNL     1      -2.810  -1.818  -1.898  0.00  0.00    +0.000 C 
ATOM     28  O   UNL     1      -2.984  -1.224  -2.955  0.00  0.00    +0.000 OA
ATOM     29  N   UNL     1      -2.024  -2.966  -1.802  0.00  0.00    +0.000 N 
ATOM     30  C   UNL     1      -1.631  -3.404  -0.448  0.00  0.00    +0.000 C 
ATOM     31  H   UNL     1       2.631  -0.855   1.228  0.00  0.00    +0.000 HD
ATOM     32  H   UNL     1       2.632   1.478   1.303  0.00  0.00    +0.000 HD
ATOM     33  H   UNL     1       1.170   3.037   0.352  0.00  0.00    +0.000 HD
ATOM     34  H   UNL     1       0.497   1.926  -0.788  0.00  0.00    +0.000 HD
ATOM     35  H   UNL     1      -0.327   2.815   2.115  0.00  0.00    +0.000 HD
ATOM     36  H   UNL     1      -1.681   2.479  -1.168  0.00  0.00    +0.000 HD
ATOM     37  H   UNL     1      -2.265   4.427   0.959  0.00  0.00    +0.000 HD
ATOM     38  H   UNL     1      -2.398   3.544   3.672  0.00  0.00    +0.000 HD
ATOM     39  H   UNL     1      -1.934   0.785   4.346  0.00  0.00    +0.000 HD
ATOM     40  H   UNL     1      -4.393   1.184  -2.620  0.00  0.00    +0.000 HD
ATOM     41  H   UNL     1      -4.891   3.599  -1.527  0.00  0.00    +0.000 HD
ATOM     42  H   UNL     1      -7.000   2.395   0.054  0.00  0.00    +0.000 HD
ATOM     43  H   UNL     1      -5.582   1.699   1.937  0.00  0.00    +0.000 HD
ATOM     44  H   UNL     1      -1.528  -3.242  -2.640  0.00  0.00    +0.000 HD
ATOM     45  H   UNL     1      -0.542  -3.351  -0.372  0.00  0.00    +0.000 HD
ATOM     46  H   UNL     1      -2.002  -4.412  -0.291  0.00  0.00    +0.000 HD
ENDROOT
BRANCH   6  47
ATOM     47  C   UNL     1       1.093  -1.183   3.079  0.00  0.00    +0.000 C 
ATOM     48  H   UNL     1       2.169  -1.089   3.301  0.00  0.00    +0.000 HD
ATOM     49  H   UNL     1       0.618  -0.820   4.003  0.00  0.00    +0.000 HD
ATOM     50  H   UNL     1       0.856  -2.237   2.944  0.00  0.00    +0.000 HD
ENDBRANCH   6  47
BRANCH   2  51
ATOM     51  N   UNL     1       3.298   0.959  -0.577  0.00  0.00    +0.000 N 
ATOM     52  C   UNL     1       4.453   0.246  -0.034  0.00  0.00    +0.000 C 
ATOM     53  O   UNL     1       4.766   0.322   1.155  0.00  0.00    +0.000 OA
BRANCH  52  54
ATOM     54  C   UNL     1       5.086  -0.861  -0.837  0.00  0.00    +0.000 A 
ATOM     55  C   UNL     1       5.568  -0.660  -2.130  0.00  0.00    +0.000 A 
ATOM     56  C   UNL     1       5.574  -1.730  -3.029  0.00  0.00    +0.000 A 
ATOM     57  C   UNL     1       5.202  -3.008  -2.607  0.00  0.00    +0.000 A 
ATOM     58  C   UNL     1       4.956  -3.247  -1.257  0.00  0.00    +0.000 A 
ATOM     59  C   UNL     1       4.919  -2.174  -0.363  0.00  0.00    +0.000 A 
ATOM     60  H   UNL     1       5.820   0.338  -2.473  0.00  0.00    +0.000 HD
ATOM     61  H   UNL     1       5.801  -1.554  -4.078  0.00  0.00    +0.000 HD
ATOM     62  H   UNL     1       5.099  -3.814  -3.330  0.00  0.00    +0.000 HD
ATOM     63  H   UNL     1       4.722  -4.253  -0.915  0.00  0.00    +0.000 HD
ATOM     64  H   UNL     1       4.668  -2.359   0.680  0.00  0.00    +0.000 HD
ENDBRANCH  52  54
BRANCH  51  65
ATOM     65  C   UNL     1       3.011   0.802  -1.997  0.00  0.00    +0.000 C 
ATOM     66  H   UNL     1       3.799   1.298  -2.567  0.00  0.00    +0.000 HD
ATOM     67  H   UNL     1       2.074   1.275  -2.274  0.00  0.00    +0.000 HD
ATOM     68  H   UNL     1       2.989  -0.257  -2.283  0.00  0.00    +0.000 HD
ENDBRANCH  51  65
ENDBRANCH   2  51
BRANCH   1  69
ATOM     69  O   UNL     1       1.523  -1.325  -0.321  0.00  0.00    +0.000 OA
BRANCH  69  70
ATOM     70  C   UNL     1       0.627  -1.023  -1.379  0.00  0.00    +0.000 C 
ATOM     71  H   UNL     1      -0.387  -1.233  -1.096  0.00  0.00    +0.000 HD
ATOM     72  H   UNL     1       0.816  -1.687  -2.224  0.00  0.00    +0.000 HD
ATOM     73  H   UNL     1       0.645   0.005  -1.722  0.00  0.00    +0.000 HD
ENDBRANCH  69  70
ENDBRANCH   1  69
TORSDOF 6
