MODEL 1
REMARK VINA RESULT:    -9.928      0.000      0.000
REMARK INTER + INTRA:         -15.351
REMARK INTER:                 -14.571
REMARK INTRA:                  -0.780
REMARK UNBOUND:                -0.780
REMARK  Name = 
REMARK  8 active torsions:
REMARK  status: ('A' for Active; 'I' for Inactive)
REMARK    1  A    between atoms: S_2  and  N_4
REMARK    2  A    between atoms: S_2  and  C_18
REMARK    3  A    between atoms: N_4  and  C_5
REMARK    4  A    between atoms: C_5  and  C_6
REMARK    5  A    between atoms: C_6  and  N_7
REMARK    6  A    between atoms: N_7  and  C_8
REMARK    7  A    between atoms: C_8  and  C_9
REMARK    8  A    between atoms: C_10  and  C_11
REMARK                            x       y       z     vdW  Elec       q    Type
REMARK                         _______ _______ _______ _____ _____    ______ ____
ROOT
ATOM      1  C   UNL     1     -10.587  -5.779  17.393  0.00  0.00    +0.000 C 
ATOM      2  H   UNL     1     -11.585  -5.376  17.566  0.00  0.00    +0.000 HD
ATOM      3  H   UNL     1     -10.314  -5.636  16.344  0.00  0.00    +0.000 HD
ENDROOT
BRANCH   1   4
ATOM      4  C   UNL     1      -9.575  -5.038  18.282  0.00  0.00    +0.000 C 
ATOM      5  H   UNL     1      -9.856  -5.171  19.335  0.00  0.00    +0.000 HD
ATOM      6  H   UNL     1      -9.608  -3.957  18.098  0.00  0.00    +0.000 HD
BRANCH   4   7
ATOM      7  N   UNL     1      -8.202  -5.533  18.115  0.00  0.00    +0.000 NA
ATOM      8  H   UNL     1      -7.674  -4.887  17.528  0.00  0.00    +0.000 HD
BRANCH   7   9
ATOM      9  C   UNL     1      -7.516  -5.664  19.402  0.00  0.00    +0.000 C 
ATOM     10  H   UNL     1      -6.432  -5.632  19.260  0.00  0.00    +0.000 HD
ATOM     11  H   UNL     1      -7.763  -6.608  19.896  0.00  0.00    +0.000 HD
BRANCH   9  12
ATOM     12  C   UNL     1      -7.934  -4.550  20.301  0.00  0.00    +0.000 C 
ATOM     13  C   UNL     1      -7.351  -4.312  21.489  0.00  0.00    +0.000 C 
ATOM     14  H   UNL     1      -8.743  -3.927  19.932  0.00  0.00    +0.000 HD
ATOM     15  H   UNL     1      -6.520  -4.931  21.824  0.00  0.00    +0.000 HD
BRANCH  13  16
ATOM     16  C   UNL     1      -7.771  -3.255  22.415  0.00  0.00    +0.000 A 
ATOM     17  C   UNL     1      -8.471  -3.546  23.593  0.00  0.00    +0.000 A 
ATOM     18  C   UNL     1      -8.808  -2.532  24.489  0.00  0.00    +0.000 A 
ATOM     19  C   UNL     1      -8.433  -1.221  24.217  0.00  0.00    +0.000 A 
ATOM     20 BR   UNL     1      -8.868   0.148  25.446  0.00  0.00    +0.000 Br
ATOM     21  C   UNL     1      -7.729  -0.912  23.055  0.00  0.00    +0.000 A 
ATOM     22  C   UNL     1      -7.395  -1.930  22.158  0.00  0.00    +0.000 A 
ATOM     23  H   UNL     1      -8.748  -4.568  23.836  0.00  0.00    +0.000 HD
ATOM     24  H   UNL     1      -9.351  -2.783  25.396  0.00  0.00    +0.000 HD
ATOM     25  H   UNL     1      -7.431   0.111  22.841  0.00  0.00    +0.000 HD
ATOM     26  H   UNL     1      -6.840  -1.676  21.256  0.00  0.00    +0.000 HD
ENDBRANCH  13  16
ENDBRANCH   9  12
ENDBRANCH   7   9
ENDBRANCH   4   7
ENDBRANCH   1   4
BRANCH   1  27
ATOM     27  N   UNL     1     -10.649  -7.209  17.709  0.00  0.00    +0.000 NA
ATOM     28  H   UNL     1     -10.341  -7.468  18.646  0.00  0.00    +0.000 HD
BRANCH  27  30
ATOM     29  O   UNL     1     -11.192  -8.805  15.811  0.00  0.00    +0.000 OA
ATOM     30  S   UNL     1     -10.051  -8.236  16.495  0.00  0.00    +0.000 S 
ATOM     31  O   UNL     1      -9.016  -7.520  15.780  0.00  0.00    +0.000 OA
BRANCH  30  32
ATOM     32  C   UNL     1      -9.287  -9.539  17.449  0.00  0.00    +0.000 A 
ATOM     33  C   UNL     1      -9.001  -9.273  18.799  0.00  0.00    +0.000 A 
ATOM     34  C   UNL     1      -8.433 -10.262  19.597  0.00  0.00    +0.000 A 
ATOM     35  C   UNL     1      -8.166 -11.515  19.054  0.00  0.00    +0.000 A 
ATOM     36  C   UNL     1      -8.453 -11.798  17.706  0.00  0.00    +0.000 A 
ATOM     37  C   UNL     1      -8.200 -13.060  17.161  0.00  0.00    +0.000 A 
ATOM     38  N   UNL     1      -8.451 -13.415  15.881  0.00  0.00    +0.000 NA
ATOM     39  C   UNL     1      -8.951 -12.459  15.084  0.00  0.00    +0.000 A 
ATOM     40  C   UNL     1      -9.229 -11.172  15.513  0.00  0.00    +0.000 A 
ATOM     41  C   UNL     1      -9.006 -10.806  16.864  0.00  0.00    +0.000 A 
ATOM     42  H   UNL     1      -9.214  -8.299  19.238  0.00  0.00    +0.000 HD
ATOM     43  H   UNL     1      -8.200 -10.057  20.639  0.00  0.00    +0.000 HD
ATOM     44  H   UNL     1      -7.722 -12.278  19.692  0.00  0.00    +0.000 HD
ATOM     45  H   UNL     1      -7.772 -13.856  17.764  0.00  0.00    +0.000 HD
ATOM     46  H   UNL     1      -9.128 -12.752  14.052  0.00  0.00    +0.000 HD
ATOM     47  H   UNL     1      -9.593 -10.472  14.770  0.00  0.00    +0.000 HD
ENDBRANCH  30  32
ENDBRANCH  27  30
ENDBRANCH   1  27
TORSDOF 8
ENDMDL
MODEL 2
REMARK VINA RESULT:    -9.846      4.207      9.159
REMARK INTER + INTRA:         -15.231
REMARK INTER:                 -14.676
REMARK INTRA:                  -0.555
REMARK UNBOUND:                -0.780
REMARK  Name = 
REMARK  8 active torsions:
REMARK  status: ('A' for Active; 'I' for Inactive)
REMARK    1  A    between atoms: S_2  and  N_4
REMARK    2  A    between atoms: S_2  and  C_18
REMARK    3  A    between atoms: N_4  and  C_5
REMARK    4  A    between atoms: C_5  and  C_6
REMARK    5  A    between atoms: C_6  and  N_7
REMARK    6  A    between atoms: N_7  and  C_8
REMARK    7  A    between atoms: C_8  and  C_9
REMARK    8  A    between atoms: C_10  and  C_11
REMARK                            x       y       z     vdW  Elec       q    Type
REMARK                         _______ _______ _______ _____ _____    ______ ____
ROOT
ATOM      1  C   UNL     1     -10.292  -4.799  17.919  0.00  0.00    +0.000 C 
ATOM      2  H   UNL     1     -10.843  -3.927  18.274  0.00  0.00    +0.000 HD
ATOM      3  H   UNL     1     -10.651  -5.691  18.436  0.00  0.00    +0.000 HD
ENDROOT
BRANCH   1   4
ATOM      4  C   UNL     1     -10.520  -4.967  16.407  0.00  0.00    +0.000 C 
ATOM      5  H   UNL     1      -9.550  -4.935  15.892  0.00  0.00    +0.000 HD
ATOM      6  H   UNL     1     -11.101  -4.130  16.002  0.00  0.00    +0.000 HD
BRANCH   4   7
ATOM      7  N   UNL     1     -11.169  -6.241  16.069  0.00  0.00    +0.000 NA
ATOM      8  H   UNL     1     -10.603  -6.740  15.382  0.00  0.00    +0.000 HD
BRANCH   7   9
ATOM      9  C   UNL     1     -11.334  -7.092  17.249  0.00  0.00    +0.000 C 
ATOM     10  H   UNL     1     -12.359  -7.023  17.626  0.00  0.00    +0.000 HD
ATOM     11  H   UNL     1     -10.658  -6.797  18.056  0.00  0.00    +0.000 HD
BRANCH   9  12
ATOM     12  C   UNL     1     -11.031  -8.506  16.886  0.00  0.00    +0.000 C 
ATOM     13  C   UNL     1      -9.787  -9.015  16.911  0.00  0.00    +0.000 C 
ATOM     14  H   UNL     1     -11.886  -9.112  16.605  0.00  0.00    +0.000 HD
ATOM     15  H   UNL     1      -8.948  -8.395  17.226  0.00  0.00    +0.000 HD
BRANCH  13  16
ATOM     16  C   UNL     1      -9.451 -10.386  16.514  0.00  0.00    +0.000 A 
ATOM     17  C   UNL     1      -9.279 -10.742  15.170  0.00  0.00    +0.000 A 
ATOM     18  C   UNL     1      -8.901 -12.037  14.819  0.00  0.00    +0.000 A 
ATOM     19  C   UNL     1      -8.677 -12.982  15.815  0.00  0.00    +0.000 A 
ATOM     20 BR   UNL     1      -8.139 -14.731  15.339  0.00  0.00    +0.000 Br
ATOM     21  C   UNL     1      -8.834 -12.646  17.158  0.00  0.00    +0.000 A 
ATOM     22  C   UNL     1      -9.216 -11.348  17.506  0.00  0.00    +0.000 A 
ATOM     23  H   UNL     1      -9.422 -10.010  14.380  0.00  0.00    +0.000 HD
ATOM     24  H   UNL     1      -8.774 -12.289  13.770  0.00  0.00    +0.000 HD
ATOM     25  H   UNL     1      -8.657 -13.381  17.939  0.00  0.00    +0.000 HD
ATOM     26  H   UNL     1      -9.329 -11.097  18.560  0.00  0.00    +0.000 HD
ENDBRANCH  13  16
ENDBRANCH   9  12
ENDBRANCH   7   9
ENDBRANCH   4   7
ENDBRANCH   1   4
BRANCH   1  27
ATOM     27  N   UNL     1      -8.880  -4.562  18.236  0.00  0.00    +0.000 NA
ATOM     28  H   UNL     1      -8.361  -4.008  17.556  0.00  0.00    +0.000 HD
BRANCH  27  30
ATOM     29  O   UNL     1      -8.912  -6.657  19.669  0.00  0.00    +0.000 OA
ATOM     30  S   UNL     1      -8.032  -5.929  18.781  0.00  0.00    +0.000 S 
ATOM     31  O   UNL     1      -7.424  -6.560  17.629  0.00  0.00    +0.000 OA
BRANCH  30  32
ATOM     32  C   UNL     1      -6.741  -5.198  19.777  0.00  0.00    +0.000 A 
ATOM     33  C   UNL     1      -5.419  -5.600  19.522  0.00  0.00    +0.000 A 
ATOM     34  C   UNL     1      -4.371  -5.042  20.247  0.00  0.00    +0.000 A 
ATOM     35  C   UNL     1      -4.640  -4.076  21.213  0.00  0.00    +0.000 A 
ATOM     36  C   UNL     1      -5.958  -3.660  21.475  0.00  0.00    +0.000 A 
ATOM     37  C   UNL     1      -6.231  -2.680  22.433  0.00  0.00    +0.000 A 
ATOM     38  N   UNL     1      -7.464  -2.220  22.741  0.00  0.00    +0.000 NA
ATOM     39  C   UNL     1      -8.491  -2.784  22.087  0.00  0.00    +0.000 A 
ATOM     40  C   UNL     1      -8.339  -3.771  21.127  0.00  0.00    +0.000 A 
ATOM     41  C   UNL     1      -7.046  -4.227  20.772  0.00  0.00    +0.000 A 
ATOM     42  H   UNL     1      -5.194  -6.349  18.762  0.00  0.00    +0.000 HD
ATOM     43  H   UNL     1      -3.347  -5.357  20.061  0.00  0.00    +0.000 HD
ATOM     44  H   UNL     1      -3.808  -3.648  21.772  0.00  0.00    +0.000 HD
ATOM     45  H   UNL     1      -5.432  -2.215  23.004  0.00  0.00    +0.000 HD
ATOM     46  H   UNL     1      -9.480  -2.420  22.359  0.00  0.00    +0.000 HD
ATOM     47  H   UNL     1      -9.244  -4.181  20.694  0.00  0.00    +0.000 HD
ENDBRANCH  30  32
ENDBRANCH  27  30
ENDBRANCH   1  27
TORSDOF 8
ENDMDL
MODEL 3
REMARK VINA RESULT:    -9.803      1.343      2.239
REMARK INTER + INTRA:         -15.168
REMARK INTER:                 -14.592
REMARK INTRA:                  -0.576
REMARK UNBOUND:                -0.780
REMARK  Name = 
REMARK  8 active torsions:
REMARK  status: ('A' for Active; 'I' for Inactive)
REMARK    1  A    between atoms: S_2  and  N_4
REMARK    2  A    between atoms: S_2  and  C_18
REMARK    3  A    between atoms: N_4  and  C_5
REMARK    4  A    between atoms: C_5  and  C_6
REMARK    5  A    between atoms: C_6  and  N_7
REMARK    6  A    between atoms: N_7  and  C_8
REMARK    7  A    between atoms: C_8  and  C_9
REMARK    8  A    between atoms: C_10  and  C_11
REMARK                            x       y       z     vdW  Elec       q    Type
REMARK                         _______ _______ _______ _____ _____    ______ ____
ROOT
ATOM      1  C   UNL     1      -9.861  -5.420  17.381  0.00  0.00    +0.000 C 
ATOM      2  H   UNL     1     -10.860  -5.792  17.608  0.00  0.00    +0.000 HD
ATOM      3  H   UNL     1      -9.914  -4.726  16.539  0.00  0.00    +0.000 HD
ENDROOT
BRANCH   1   4
ATOM      4  C   UNL     1      -9.297  -4.682  18.607  0.00  0.00    +0.000 C 
ATOM      5  H   UNL     1      -9.857  -4.990  19.500  0.00  0.00    +0.000 HD
ATOM      6  H   UNL     1      -9.449  -3.600  18.517  0.00  0.00    +0.000 HD
BRANCH   4   7
ATOM      7  N   UNL     1      -7.877  -4.973  18.842  0.00  0.00    +0.000 NA
ATOM      8  H   UNL     1      -7.308  -4.197  18.501  0.00  0.00    +0.000 HD
BRANCH   7   9
ATOM      9  C   UNL     1      -7.596  -5.171  20.265  0.00  0.00    +0.000 C 
ATOM     10  H   UNL     1      -6.553  -5.468  20.409  0.00  0.00    +0.000 HD
ATOM     11  H   UNL     1      -8.230  -5.950  20.696  0.00  0.00    +0.000 HD
BRANCH   9  12
ATOM     12  C   UNL     1      -7.858  -3.902  21.003  0.00  0.00    +0.000 C 
ATOM     13  C   UNL     1      -7.921  -3.836  22.344  0.00  0.00    +0.000 C 
ATOM     14  H   UNL     1      -7.987  -3.018  20.385  0.00  0.00    +0.000 HD
ATOM     15  H   UNL     1      -7.757  -4.731  22.943  0.00  0.00    +0.000 HD
BRANCH  13  16
ATOM     16  C   UNL     1      -8.225  -2.614  23.095  0.00  0.00    +0.000 A 
ATOM     17  C   UNL     1      -9.079  -2.625  24.205  0.00  0.00    +0.000 A 
ATOM     18  C   UNL     1      -9.306  -1.463  24.941  0.00  0.00    +0.000 A 
ATOM     19  C   UNL     1      -8.667  -0.283  24.577  0.00  0.00    +0.000 A 
ATOM     20 BR   UNL     1      -8.956   1.286  25.591  0.00  0.00    +0.000 Br
ATOM     21  C   UNL     1      -7.807  -0.252  23.481  0.00  0.00    +0.000 A 
ATOM     22  C   UNL     1      -7.583  -1.418  22.744  0.00  0.00    +0.000 A 
ATOM     23  H   UNL     1      -9.565  -3.545  24.521  0.00  0.00    +0.000 HD
ATOM     24  H   UNL     1      -9.973  -1.498  25.798  0.00  0.00    +0.000 HD
ATOM     25  H   UNL     1      -7.303   0.668  23.196  0.00  0.00    +0.000 HD
ATOM     26  H   UNL     1      -6.904  -1.381  21.894  0.00  0.00    +0.000 HD
ENDBRANCH  13  16
ENDBRANCH   9  12
ENDBRANCH   7   9
ENDBRANCH   4   7
ENDBRANCH   1   4
BRANCH   1  27
ATOM     27  N   UNL     1      -9.049  -6.588  17.024  0.00  0.00    +0.000 NA
ATOM     28  H   UNL     1      -8.909  -6.740  16.025  0.00  0.00    +0.000 HD
BRANCH  27  30
ATOM     29  O   UNL     1      -8.401  -8.191  18.882  0.00  0.00    +0.000 OA
ATOM     30  S   UNL     1      -9.425  -8.008  17.877  0.00  0.00    +0.000 S 
ATOM     31  O   UNL     1     -10.829  -7.956  18.223  0.00  0.00    +0.000 OA
BRANCH  30  32
ATOM     32  C   UNL     1      -9.192  -9.267  16.631  0.00  0.00    +0.000 A 
ATOM     33  C   UNL     1      -9.256  -8.867  15.285  0.00  0.00    +0.000 A 
ATOM     34  C   UNL     1      -9.052  -9.800  14.273  0.00  0.00    +0.000 A 
ATOM     35  C   UNL     1      -8.771 -11.123  14.603  0.00  0.00    +0.000 A 
ATOM     36  C   UNL     1      -8.698 -11.536  15.946  0.00  0.00    +0.000 A 
ATOM     37  C   UNL     1      -8.402 -12.860  16.281  0.00  0.00    +0.000 A 
ATOM     38  N   UNL     1      -8.307 -13.337  17.543  0.00  0.00    +0.000 NA
ATOM     39  C   UNL     1      -8.550 -12.462  18.531  0.00  0.00    +0.000 A 
ATOM     40  C   UNL     1      -8.865 -11.131  18.314  0.00  0.00    +0.000 A 
ATOM     41  C   UNL     1      -8.926 -10.617  16.995  0.00  0.00    +0.000 A 
ATOM     42  H   UNL     1      -9.466  -7.833  15.014  0.00  0.00    +0.000 HD
ATOM     43  H   UNL     1      -9.111  -9.498  13.230  0.00  0.00    +0.000 HD
ATOM     44  H   UNL     1      -8.614 -11.841  13.798  0.00  0.00    +0.000 HD
ATOM     45  H   UNL     1      -8.223 -13.607  15.513  0.00  0.00    +0.000 HD
ATOM     46  H   UNL     1      -8.491 -12.863  19.540  0.00  0.00    +0.000 HD
ATOM     47  H   UNL     1      -9.082 -10.527  19.188  0.00  0.00    +0.000 HD
ENDBRANCH  30  32
ENDBRANCH  27  30
ENDBRANCH   1  27
TORSDOF 8
ENDMDL
MODEL 4
REMARK VINA RESULT:    -9.621      5.360     11.164
REMARK INTER + INTRA:         -14.901
REMARK INTER:                 -14.437
REMARK INTRA:                  -0.464
REMARK UNBOUND:                -0.780
REMARK  Name = 
REMARK  8 active torsions:
REMARK  status: ('A' for Active; 'I' for Inactive)
REMARK    1  A    between atoms: S_2  and  N_4
REMARK    2  A    between atoms: S_2  and  C_18
REMARK    3  A    between atoms: N_4  and  C_5
REMARK    4  A    between atoms: C_5  and  C_6
REMARK    5  A    between atoms: C_6  and  N_7
REMARK    6  A    between atoms: N_7  and  C_8
REMARK    7  A    between atoms: C_8  and  C_9
REMARK    8  A    between atoms: C_10  and  C_11
REMARK                            x       y       z     vdW  Elec       q    Type
REMARK                         _______ _______ _______ _____ _____    ______ ____
ROOT
ATOM      1  C   UNL     1      -7.438  -4.381  20.941  0.00  0.00    +0.000 C 
ATOM      2  H   UNL     1      -6.724  -5.027  21.452  0.00  0.00    +0.000 HD
ATOM      3  H   UNL     1      -6.924  -3.492  20.571  0.00  0.00    +0.000 HD
ENDROOT
BRANCH   1   4
ATOM      4  C   UNL     1      -8.055  -5.138  19.753  0.00  0.00    +0.000 C 
ATOM      5  H   UNL     1      -7.717  -4.673  18.816  0.00  0.00    +0.000 HD
ATOM      6  H   UNL     1      -9.147  -5.047  19.754  0.00  0.00    +0.000 HD
BRANCH   4   7
ATOM      7  N   UNL     1      -7.668  -6.555  19.718  0.00  0.00    +0.000 NA
ATOM      8  H   UNL     1      -6.945  -6.728  20.417  0.00  0.00    +0.000 HD
BRANCH   7   9
ATOM      9  C   UNL     1      -8.807  -7.431  19.994  0.00  0.00    +0.000 C 
ATOM     10  H   UNL     1      -9.740  -6.951  19.684  0.00  0.00    +0.000 HD
ATOM     11  H   UNL     1      -8.887  -7.666  21.059  0.00  0.00    +0.000 HD
BRANCH   9  12
ATOM     12  C   UNL     1      -8.637  -8.713  19.251  0.00  0.00    +0.000 C 
ATOM     13  C   UNL     1      -9.254  -8.969  18.084  0.00  0.00    +0.000 C 
ATOM     14  H   UNL     1      -7.968  -9.435  19.708  0.00  0.00    +0.000 HD
ATOM     15  H   UNL     1      -9.897  -8.215  17.629  0.00  0.00    +0.000 HD
BRANCH  13  16
ATOM     16  C   UNL     1      -9.145 -10.236  17.355  0.00  0.00    +0.000 A 
ATOM     17  C   UNL     1      -9.369 -10.313  15.975  0.00  0.00    +0.000 A 
ATOM     18  C   UNL     1      -9.201 -11.517  15.292  0.00  0.00    +0.000 A 
ATOM     19  C   UNL     1      -8.793 -12.651  15.987  0.00  0.00    +0.000 A 
ATOM     20 BR   UNL     1      -8.540 -14.276  15.055  0.00  0.00    +0.000 Br
ATOM     21  C   UNL     1      -8.557 -12.593  17.359  0.00  0.00    +0.000 A 
ATOM     22  C   UNL     1      -8.728 -11.386  18.041  0.00  0.00    +0.000 A 
ATOM     23  H   UNL     1      -9.661  -9.431  15.411  0.00  0.00    +0.000 HD
ATOM     24  H   UNL     1      -9.381 -11.551  14.221  0.00  0.00    +0.000 HD
ATOM     25  H   UNL     1      -8.234 -13.477  17.904  0.00  0.00    +0.000 HD
ATOM     26  H   UNL     1      -8.535 -11.354  19.112  0.00  0.00    +0.000 HD
ENDBRANCH  13  16
ENDBRANCH   9  12
ENDBRANCH   7   9
ENDBRANCH   4   7
ENDBRANCH   1   4
BRANCH   1  27
ATOM     27  N   UNL     1      -8.450  -4.005  21.934  0.00  0.00    +0.000 NA
ATOM     28  H   UNL     1      -9.407  -3.946  21.588  0.00  0.00    +0.000 HD
BRANCH  27  30
ATOM     29  O   UNL     1      -8.250  -3.125  24.307  0.00  0.00    +0.000 OA
ATOM     30  S   UNL     1      -8.015  -2.708  22.941  0.00  0.00    +0.000 S 
ATOM     31  O   UNL     1      -6.721  -2.226  22.507  0.00  0.00    +0.000 OA
BRANCH  30  32
ATOM     32  C   UNL     1      -9.248  -1.483  22.529  0.00  0.00    +0.000 A 
ATOM     33  C   UNL     1     -10.176  -1.809  21.525  0.00  0.00    +0.000 A 
ATOM     34  C   UNL     1     -11.177  -0.905  21.185  0.00  0.00    +0.000 A 
ATOM     35  C   UNL     1     -11.260   0.314  21.853  0.00  0.00    +0.000 A 
ATOM     36  C   UNL     1     -10.341   0.651  22.863  0.00  0.00    +0.000 A 
ATOM     37  C   UNL     1     -10.431   1.867  23.546  0.00  0.00    +0.000 A 
ATOM     38  N   UNL     1      -9.595   2.265  24.531  0.00  0.00    +0.000 NA
ATOM     39  C   UNL     1      -8.593   1.427  24.838  0.00  0.00    +0.000 A 
ATOM     40  C   UNL     1      -8.401   0.203  24.218  0.00  0.00    +0.000 A 
ATOM     41  C   UNL     1      -9.299  -0.236  23.214  0.00  0.00    +0.000 A 
ATOM     42  H   UNL     1     -10.127  -2.764  21.002  0.00  0.00    +0.000 HD
ATOM     43  H   UNL     1     -11.891  -1.148  20.401  0.00  0.00    +0.000 HD
ATOM     44  H   UNL     1     -12.050   1.011  21.573  0.00  0.00    +0.000 HD
ATOM     45  H   UNL     1     -11.211   2.587  23.312  0.00  0.00    +0.000 HD
ATOM     46  H   UNL     1      -7.916   1.768  25.617  0.00  0.00    +0.000 HD
ATOM     47  H   UNL     1      -7.534  -0.372  24.521  0.00  0.00    +0.000 HD
ENDBRANCH  30  32
ENDBRANCH  27  30
ENDBRANCH   1  27
TORSDOF 8
ENDMDL
MODEL 5
REMARK VINA RESULT:    -9.608      4.596      9.888
REMARK INTER + INTRA:         -14.882
REMARK INTER:                 -14.169
REMARK INTRA:                  -0.713
REMARK UNBOUND:                -0.780
REMARK  Name = 
REMARK  8 active torsions:
REMARK  status: ('A' for Active; 'I' for Inactive)
REMARK    1  A    between atoms: S_2  and  N_4
REMARK    2  A    between atoms: S_2  and  C_18
REMARK    3  A    between atoms: N_4  and  C_5
REMARK    4  A    between atoms: C_5  and  C_6
REMARK    5  A    between atoms: C_6  and  N_7
REMARK    6  A    between atoms: N_7  and  C_8
REMARK    7  A    between atoms: C_8  and  C_9
REMARK    8  A    between atoms: C_10  and  C_11
REMARK                            x       y       z     vdW  Elec       q    Type
REMARK                         _______ _______ _______ _____ _____    ______ ____
ROOT
ATOM      1  C   UNL     1     -10.356  -4.229  17.460  0.00  0.00    +0.000 C 
ATOM      2  H   UNL     1     -10.367  -3.915  16.416  0.00  0.00    +0.000 HD
ATOM      3  H   UNL     1     -11.342  -4.062  17.900  0.00  0.00    +0.000 HD
ENDROOT
BRANCH   1   4
ATOM      4  C   UNL     1     -10.017  -5.727  17.541  0.00  0.00    +0.000 C 
ATOM      5  H   UNL     1      -8.961  -5.872  17.276  0.00  0.00    +0.000 HD
ATOM      6  H   UNL     1     -10.591  -6.300  16.802  0.00  0.00    +0.000 HD
BRANCH   4   7
ATOM      7  N   UNL     1     -10.226  -6.286  18.883  0.00  0.00    +0.000 NA
ATOM      8  H   UNL     1     -11.098  -6.816  18.900  0.00  0.00    +0.000 HD
BRANCH   7   9
ATOM      9  C   UNL     1      -9.129  -7.174  19.274  0.00  0.00    +0.000 C 
ATOM     10  H   UNL     1      -9.278  -7.535  20.296  0.00  0.00    +0.000 HD
ATOM     11  H   UNL     1      -8.164  -6.662  19.236  0.00  0.00    +0.000 HD
BRANCH   9  12
ATOM     12  C   UNL     1      -9.074  -8.334  18.339  0.00  0.00    +0.000 C 
ATOM     13  C   UNL     1      -8.867  -9.596  18.752  0.00  0.00    +0.000 C 
ATOM     14  H   UNL     1      -9.222  -8.098  17.290  0.00  0.00    +0.000 HD
ATOM     15  H   UNL     1      -8.752  -9.812  19.814  0.00  0.00    +0.000 HD
BRANCH  13  16
ATOM     16  C   UNL     1      -8.759 -10.750  17.853  0.00  0.00    +0.000 A 
ATOM     17  C   UNL     1      -8.486 -12.036  18.336  0.00  0.00    +0.000 A 
ATOM     18  C   UNL     1      -8.448 -13.128  17.471  0.00  0.00    +0.000 A 
ATOM     19  C   UNL     1      -8.697 -12.941  16.116  0.00  0.00    +0.000 A 
ATOM     20 BR   UNL     1      -8.671 -14.427  14.947  0.00  0.00    +0.000 Br
ATOM     21  C   UNL     1      -8.979 -11.671  15.616  0.00  0.00    +0.000 A 
ATOM     22  C   UNL     1      -9.015 -10.578  16.486  0.00  0.00    +0.000 A 
ATOM     23  H   UNL     1      -8.316 -12.206  19.396  0.00  0.00    +0.000 HD
ATOM     24  H   UNL     1      -8.233 -14.116  17.870  0.00  0.00    +0.000 HD
ATOM     25  H   UNL     1      -9.179 -11.522  14.558  0.00  0.00    +0.000 HD
ATOM     26  H   UNL     1      -9.242  -9.592  16.083  0.00  0.00    +0.000 HD
ENDBRANCH  13  16
ENDBRANCH   9  12
ENDBRANCH   7   9
ENDBRANCH   4   7
ENDBRANCH   1   4
BRANCH   1  27
ATOM     27  N   UNL     1      -9.352  -3.404  18.138  0.00  0.00    +0.000 NA
ATOM     28  H   UNL     1      -8.530  -3.900  18.480  0.00  0.00    +0.000 HD
BRANCH  27  30
ATOM     29  O   UNL     1      -9.608  -0.967  18.801  0.00  0.00    +0.000 OA
ATOM     30  S   UNL     1      -9.980  -2.289  19.256  0.00  0.00    +0.000 S 
ATOM     31  O   UNL     1     -11.360  -2.646  19.508  0.00  0.00    +0.000 OA
BRANCH  30  32
ATOM     32  C   UNL     1      -9.022  -2.647  20.721  0.00  0.00    +0.000 A 
ATOM     33  C   UNL     1      -8.086  -3.692  20.644  0.00  0.00    +0.000 A 
ATOM     34  C   UNL     1      -7.291  -3.995  21.746  0.00  0.00    +0.000 A 
ATOM     35  C   UNL     1      -7.420  -3.248  22.914  0.00  0.00    +0.000 A 
ATOM     36  C   UNL     1      -8.349  -2.196  23.002  0.00  0.00    +0.000 A 
ATOM     37  C   UNL     1      -8.470  -1.434  24.168  0.00  0.00    +0.000 A 
ATOM     38  N   UNL     1      -9.331  -0.404  24.334  0.00  0.00    +0.000 NA
ATOM     39  C   UNL     1     -10.140  -0.131  23.300  0.00  0.00    +0.000 A 
ATOM     40  C   UNL     1     -10.115  -0.828  22.103  0.00  0.00    +0.000 A 
ATOM     41  C   UNL     1      -9.187  -1.881  21.909  0.00  0.00    +0.000 A 
ATOM     42  H   UNL     1      -7.969  -4.278  19.733  0.00  0.00    +0.000 HD
ATOM     43  H   UNL     1      -6.573  -4.810  21.696  0.00  0.00    +0.000 HD
ATOM     44  H   UNL     1      -6.790  -3.498  23.767  0.00  0.00    +0.000 HD
ATOM     45  H   UNL     1      -7.853  -1.637  25.039  0.00  0.00    +0.000 HD
ATOM     46  H   UNL     1     -10.842   0.686  23.454  0.00  0.00    +0.000 HD
ATOM     47  H   UNL     1     -10.844  -0.544  21.352  0.00  0.00    +0.000 HD
ENDBRANCH  30  32
ENDBRANCH  27  30
ENDBRANCH   1  27
TORSDOF 8
ENDMDL
MODEL 6
REMARK VINA RESULT:    -9.459      1.897      2.241
REMARK INTER + INTRA:         -14.663
REMARK INTER:                 -14.120
REMARK INTRA:                  -0.543
REMARK UNBOUND:                -0.780
REMARK  Name = 
REMARK  8 active torsions:
REMARK  status: ('A' for Active; 'I' for Inactive)
REMARK    1  A    between atoms: S_2  and  N_4
REMARK    2  A    between atoms: S_2  and  C_18
REMARK    3  A    between atoms: N_4  and  C_5
REMARK    4  A    between atoms: C_5  and  C_6
REMARK    5  A    between atoms: C_6  and  N_7
REMARK    6  A    between atoms: N_7  and  C_8
REMARK    7  A    between atoms: C_8  and  C_9
REMARK    8  A    between atoms: C_10  and  C_11
REMARK                            x       y       z     vdW  Elec       q    Type
REMARK                         _______ _______ _______ _____ _____    ______ ____
ROOT
ATOM      1  C   UNL     1      -9.327  -5.127  18.441  0.00  0.00    +0.000 C 
ATOM      2  H   UNL     1      -8.778  -5.101  17.499  0.00  0.00    +0.000 HD
ATOM      3  H   UNL     1      -8.697  -4.731  19.240  0.00  0.00    +0.000 HD
ENDROOT
BRANCH   1   4
ATOM      4  C   UNL     1     -10.591  -4.259  18.320  0.00  0.00    +0.000 C 
ATOM      5  H   UNL     1     -11.137  -4.285  19.273  0.00  0.00    +0.000 HD
ATOM      6  H   UNL     1     -11.279  -4.670  17.572  0.00  0.00    +0.000 HD
BRANCH   4   7
ATOM      7  N   UNL     1     -10.290  -2.855  18.010  0.00  0.00    +0.000 NA
ATOM      8  H   UNL     1     -10.527  -2.662  17.037  0.00  0.00    +0.000 HD
BRANCH   7   9
ATOM      9  C   UNL     1     -11.045  -1.940  18.868  0.00  0.00    +0.000 C 
ATOM     10  H   UNL     1     -12.104  -2.214  18.876  0.00  0.00    +0.000 HD
ATOM     11  H   UNL     1     -10.967  -0.906  18.521  0.00  0.00    +0.000 HD
BRANCH   9  12
ATOM     12  C   UNL     1     -10.504  -2.003  20.256  0.00  0.00    +0.000 C 
ATOM     13  C   UNL     1     -11.249  -1.734  21.343  0.00  0.00    +0.000 C 
ATOM     14  H   UNL     1      -9.461  -2.291  20.341  0.00  0.00    +0.000 HD
ATOM     15  H   UNL     1     -12.302  -1.478  21.234  0.00  0.00    +0.000 HD
BRANCH  13  16
ATOM     16  C   UNL     1     -10.733  -1.740  22.716  0.00  0.00    +0.000 A 
ATOM     17  C   UNL     1     -11.312  -2.532  23.715  0.00  0.00    +0.000 A 
ATOM     18  C   UNL     1     -10.769  -2.568  24.999  0.00  0.00    +0.000 A 
ATOM     19  C   UNL     1      -9.632  -1.821  25.286  0.00  0.00    +0.000 A 
ATOM     20 BR   UNL     1      -8.882  -1.891  27.020  0.00  0.00    +0.000 Br
ATOM     21  C   UNL     1      -9.036  -1.033  24.303  0.00  0.00    +0.000 A 
ATOM     22  C   UNL     1      -9.584  -0.997  23.018  0.00  0.00    +0.000 A 
ATOM     23  H   UNL     1     -12.184  -3.145  23.502  0.00  0.00    +0.000 HD
ATOM     24  H   UNL     1     -11.237  -3.190  25.757  0.00  0.00    +0.000 HD
ATOM     25  H   UNL     1      -8.145  -0.450  24.523  0.00  0.00    +0.000 HD
ATOM     26  H   UNL     1      -9.105  -0.382  22.259  0.00  0.00    +0.000 HD
ENDBRANCH  13  16
ENDBRANCH   9  12
ENDBRANCH   7   9
ENDBRANCH   4   7
ENDBRANCH   1   4
BRANCH   1  27
ATOM     27  N   UNL     1      -9.651  -6.533  18.701  0.00  0.00    +0.000 NA
ATOM     28  H   UNL     1      -9.090  -6.990  19.419  0.00  0.00    +0.000 HD
BRANCH  27  30
ATOM     29  O   UNL     1     -11.299  -7.641  17.119  0.00  0.00    +0.000 OA
ATOM     30  S   UNL     1      -9.873  -7.483  17.310  0.00  0.00    +0.000 S 
ATOM     31  O   UNL     1      -9.021  -6.950  16.269  0.00  0.00    +0.000 OA
BRANCH  30  32
ATOM     32  C   UNL     1      -9.219  -9.063  17.827  0.00  0.00    +0.000 A 
ATOM     33  C   UNL     1      -8.866  -9.208  19.180  0.00  0.00    +0.000 A 
ATOM     34  C   UNL     1      -8.380 -10.426  19.645  0.00  0.00    +0.000 A 
ATOM     35  C   UNL     1      -8.260 -11.499  18.767  0.00  0.00    +0.000 A 
ATOM     36  C   UNL     1      -8.614 -11.371  17.412  0.00  0.00    +0.000 A 
ATOM     37  C   UNL     1      -8.510 -12.451  16.531  0.00  0.00    +0.000 A 
ATOM     38  N   UNL     1      -8.834 -12.414  15.219  0.00  0.00    +0.000 NA
ATOM     39  C   UNL     1      -9.257 -11.233  14.742  0.00  0.00    +0.000 A 
ATOM     40  C   UNL     1      -9.388 -10.095  15.521  0.00  0.00    +0.000 A 
ATOM     41  C   UNL     1      -9.088 -10.139  16.905  0.00  0.00    +0.000 A 
ATOM     42  H   UNL     1      -8.964  -8.378  19.879  0.00  0.00    +0.000 HD
ATOM     43  H   UNL     1      -8.095 -10.539  20.689  0.00  0.00    +0.000 HD
ATOM     44  H   UNL     1      -7.877 -12.446  19.147  0.00  0.00    +0.000 HD
ATOM     45  H   UNL     1      -8.148 -13.418  16.869  0.00  0.00    +0.000 HD
ATOM     46  H   UNL     1      -9.495 -11.212  13.681  0.00  0.00    +0.000 HD
ATOM     47  H   UNL     1      -9.700  -9.187  15.018  0.00  0.00    +0.000 HD
ENDBRANCH  30  32
ENDBRANCH  27  30
ENDBRANCH   1  27
TORSDOF 8
ENDMDL
MODEL 7
REMARK VINA RESULT:    -9.439      5.079     10.872
REMARK INTER + INTRA:         -14.634
REMARK INTER:                 -14.144
REMARK INTRA:                  -0.490
REMARK UNBOUND:                -0.780
REMARK  Name = 
REMARK  8 active torsions:
REMARK  status: ('A' for Active; 'I' for Inactive)
REMARK    1  A    between atoms: S_2  and  N_4
REMARK    2  A    between atoms: S_2  and  C_18
REMARK    3  A    between atoms: N_4  and  C_5
REMARK    4  A    between atoms: C_5  and  C_6
REMARK    5  A    between atoms: C_6  and  N_7
REMARK    6  A    between atoms: N_7  and  C_8
REMARK    7  A    between atoms: C_8  and  C_9
REMARK    8  A    between atoms: C_10  and  C_11
REMARK                            x       y       z     vdW  Elec       q    Type
REMARK                         _______ _______ _______ _____ _____    ______ ____
ROOT
ATOM      1  C   UNL     1      -9.473  -3.124  19.134  0.00  0.00    +0.000 C 
ATOM      2  H   UNL     1      -8.927  -2.203  18.932  0.00  0.00    +0.000 HD
ATOM      3  H   UNL     1     -10.120  -3.357  18.285  0.00  0.00    +0.000 HD
ENDROOT
BRANCH   1   4
ATOM      4  C   UNL     1      -8.477  -4.277  19.339  0.00  0.00    +0.000 C 
ATOM      5  H   UNL     1      -8.564  -4.649  20.369  0.00  0.00    +0.000 HD
ATOM      6  H   UNL     1      -7.443  -3.926  19.235  0.00  0.00    +0.000 HD
BRANCH   4   7
ATOM      7  N   UNL     1      -8.718  -5.406  18.430  0.00  0.00    +0.000 NA
ATOM      8  H   UNL     1      -7.869  -5.606  17.901  0.00  0.00    +0.000 HD
BRANCH   7   9
ATOM      9  C   UNL     1      -9.111  -6.612  19.161  0.00  0.00    +0.000 C 
ATOM     10  H   UNL     1     -10.122  -6.500  19.563  0.00  0.00    +0.000 HD
ATOM     11  H   UNL     1      -8.437  -6.813  19.998  0.00  0.00    +0.000 HD
BRANCH   9  12
ATOM     12  C   UNL     1      -9.067  -7.785  18.241  0.00  0.00    +0.000 C 
ATOM     13  C   UNL     1      -9.158  -9.055  18.672  0.00  0.00    +0.000 C 
ATOM     14  H   UNL     1      -8.966  -7.550  17.186  0.00  0.00    +0.000 HD
ATOM     15  H   UNL     1      -9.291  -9.264  19.733  0.00  0.00    +0.000 HD
BRANCH  13  16
ATOM     16  C   UNL     1      -9.070 -10.229  17.798  0.00  0.00    +0.000 A 
ATOM     17  C   UNL     1      -9.376 -10.155  16.433  0.00  0.00    +0.000 A 
ATOM     18  C   UNL     1      -9.227 -11.270  15.610  0.00  0.00    +0.000 A 
ATOM     19  C   UNL     1      -8.757 -12.464  16.145  0.00  0.00    +0.000 A 
ATOM     20 BR   UNL     1      -8.531 -13.967  15.021  0.00  0.00    +0.000 Br
ATOM     21  C   UNL     1      -8.439 -12.556  17.499  0.00  0.00    +0.000 A 
ATOM     22  C   UNL     1      -8.591 -11.438  18.323  0.00  0.00    +0.000 A 
ATOM     23  H   UNL     1      -9.717  -9.223  15.991  0.00  0.00    +0.000 HD
ATOM     24  H   UNL     1      -9.471 -11.187  14.554  0.00  0.00    +0.000 HD
ATOM     25  H   UNL     1      -8.068 -13.487  17.921  0.00  0.00    +0.000 HD
ATOM     26  H   UNL     1      -8.334 -11.522  19.377  0.00  0.00    +0.000 HD
ENDBRANCH  13  16
ENDBRANCH   9  12
ENDBRANCH   7   9
ENDBRANCH   4   7
ENDBRANCH   1   4
BRANCH   1  27
ATOM     27  N   UNL     1     -10.281  -2.879  20.333  0.00  0.00    +0.000 NA
ATOM     28  H   UNL     1     -11.205  -3.312  20.339  0.00  0.00    +0.000 HD
BRANCH  27  30
ATOM     29  O   UNL     1      -9.239  -0.571  20.160  0.00  0.00    +0.000 OA
ATOM     30  S   UNL     1     -10.287  -1.269  20.874  0.00  0.00    +0.000 S 
ATOM     31  O   UNL     1     -11.657  -0.803  20.861  0.00  0.00    +0.000 OA
BRANCH  30  32
ATOM     32  C   UNL     1      -9.761  -1.442  22.573  0.00  0.00    +0.000 A 
ATOM     33  C   UNL     1      -9.498  -2.741  23.041  0.00  0.00    +0.000 A 
ATOM     34  C   UNL     1      -9.056  -2.932  24.347  0.00  0.00    +0.000 A 
ATOM     35  C   UNL     1      -8.864  -1.831  25.177  0.00  0.00    +0.000 A 
ATOM     36  C   UNL     1      -9.117  -0.525  24.719  0.00  0.00    +0.000 A 
ATOM     37  C   UNL     1      -8.911   0.583  25.545  0.00  0.00    +0.000 A 
ATOM     38  N   UNL     1      -9.124   1.869  25.183  0.00  0.00    +0.000 NA
ATOM     39  C   UNL     1      -9.598   2.069  23.944  0.00  0.00    +0.000 A 
ATOM     40  C   UNL     1      -9.851   1.044  23.046  0.00  0.00    +0.000 A 
ATOM     41  C   UNL     1      -9.591  -0.301  23.407  0.00  0.00    +0.000 A 
ATOM     42  H   UNL     1      -9.635  -3.610  22.398  0.00  0.00    +0.000 HD
ATOM     43  H   UNL     1      -8.861  -3.936  24.718  0.00  0.00    +0.000 HD
ATOM     44  H   UNL     1      -8.517  -1.999  26.197  0.00  0.00    +0.000 HD
ATOM     45  H   UNL     1      -8.552   0.466  26.564  0.00  0.00    +0.000 HD
ATOM     46  H   UNL     1      -9.785   3.105  23.673  0.00  0.00    +0.000 HD
ATOM     47  H   UNL     1     -10.271   1.322  22.087  0.00  0.00    +0.000 HD
ENDBRANCH  30  32
ENDBRANCH  27  30
ENDBRANCH   1  27
TORSDOF 8
ENDMDL
MODEL 8
REMARK VINA RESULT:    -9.367      1.937      2.648
REMARK INTER + INTRA:         -14.528
REMARK INTER:                 -14.020
REMARK INTRA:                  -0.509
REMARK UNBOUND:                -0.780
REMARK  Name = 
REMARK  8 active torsions:
REMARK  status: ('A' for Active; 'I' for Inactive)
REMARK    1  A    between atoms: S_2  and  N_4
REMARK    2  A    between atoms: S_2  and  C_18
REMARK    3  A    between atoms: N_4  and  C_5
REMARK    4  A    between atoms: C_5  and  C_6
REMARK    5  A    between atoms: C_6  and  N_7
REMARK    6  A    between atoms: N_7  and  C_8
REMARK    7  A    between atoms: C_8  and  C_9
REMARK    8  A    between atoms: C_10  and  C_11
REMARK                            x       y       z     vdW  Elec       q    Type
REMARK                         _______ _______ _______ _____ _____    ______ ____
ROOT
ATOM      1  C   UNL     1      -8.727  -4.952  19.167  0.00  0.00    +0.000 C 
ATOM      2  H   UNL     1      -9.384  -4.093  19.310  0.00  0.00    +0.000 HD
ATOM      3  H   UNL     1      -8.214  -4.862  18.207  0.00  0.00    +0.000 HD
ENDROOT
BRANCH   1   4
ATOM      4  C   UNL     1      -7.682  -4.991  20.295  0.00  0.00    +0.000 C 
ATOM      5  H   UNL     1      -6.738  -4.569  19.926  0.00  0.00    +0.000 HD
ATOM      6  H   UNL     1      -7.455  -6.025  20.583  0.00  0.00    +0.000 HD
BRANCH   4   7
ATOM      7  N   UNL     1      -8.091  -4.219  21.476  0.00  0.00    +0.000 NA
ATOM      8  H   UNL     1      -8.535  -4.840  22.153  0.00  0.00    +0.000 HD
BRANCH   7   9
ATOM      9  C   UNL     1      -6.946  -3.568  22.116  0.00  0.00    +0.000 C 
ATOM     10  H   UNL     1      -6.109  -3.495  21.415  0.00  0.00    +0.000 HD
ATOM     11  H   UNL     1      -6.603  -4.125  22.992  0.00  0.00    +0.000 HD
BRANCH   9  12
ATOM     12  C   UNL     1      -7.341  -2.201  22.563  0.00  0.00    +0.000 C 
ATOM     13  C   UNL     1      -8.601  -1.879  22.904  0.00  0.00    +0.000 C 
ATOM     14  H   UNL     1      -6.538  -1.472  22.608  0.00  0.00    +0.000 HD
ATOM     15  H   UNL     1      -9.384  -2.637  22.881  0.00  0.00    +0.000 HD
BRANCH  13  16
ATOM     16  C   UNL     1      -9.028  -0.534  23.301  0.00  0.00    +0.000 A 
ATOM     17  C   UNL     1     -10.010   0.166  22.589  0.00  0.00    +0.000 A 
ATOM     18  C   UNL     1     -10.444   1.419  23.020  0.00  0.00    +0.000 A 
ATOM     19  C   UNL     1      -9.907   1.973  24.176  0.00  0.00    +0.000 A 
ATOM     20 BR   UNL     1     -10.516   3.661  24.773  0.00  0.00    +0.000 Br
ATOM     21  C   UNL     1      -8.936   1.289  24.904  0.00  0.00    +0.000 A 
ATOM     22  C   UNL     1      -8.500   0.035  24.469  0.00  0.00    +0.000 A 
ATOM     23  H   UNL     1     -10.462  -0.263  21.699  0.00  0.00    +0.000 HD
ATOM     24  H   UNL     1     -11.207   1.942  22.450  0.00  0.00    +0.000 HD
ATOM     25  H   UNL     1      -8.516   1.718  25.811  0.00  0.00    +0.000 HD
ATOM     26  H   UNL     1      -7.745  -0.491  25.050  0.00  0.00    +0.000 HD
ENDBRANCH  13  16
ENDBRANCH   9  12
ENDBRANCH   7   9
ENDBRANCH   4   7
ENDBRANCH   1   4
BRANCH   1  27
ATOM     27  N   UNL     1      -9.584  -6.142  19.174  0.00  0.00    +0.000 NA
ATOM     28  H   UNL     1      -9.442  -6.784  19.952  0.00  0.00    +0.000 HD
BRANCH  27  30
ATOM     29  O   UNL     1     -11.143  -6.993  17.359  0.00  0.00    +0.000 OA
ATOM     30  S   UNL     1      -9.731  -6.924  17.672  0.00  0.00    +0.000 S 
ATOM     31  O   UNL     1      -8.780  -6.320  16.764  0.00  0.00    +0.000 OA
BRANCH  30  32
ATOM     32  C   UNL     1      -9.180  -8.579  18.056  0.00  0.00    +0.000 A 
ATOM     33  C   UNL     1      -8.789  -8.842  19.380  0.00  0.00    +0.000 A 
ATOM     34  C   UNL     1      -8.379 -10.122  19.742  0.00  0.00    +0.000 A 
ATOM     35  C   UNL     1      -8.374 -11.138  18.790  0.00  0.00    +0.000 A 
ATOM     36  C   UNL     1      -8.769 -10.890  17.463  0.00  0.00    +0.000 A 
ATOM     37  C   UNL     1      -8.780 -11.911  16.509  0.00  0.00    +0.000 A 
ATOM     38  N   UNL     1      -9.150 -11.760  15.217  0.00  0.00    +0.000 NA
ATOM     39  C   UNL     1      -9.499 -10.522  14.838  0.00  0.00    +0.000 A 
ATOM     40  C   UNL     1      -9.513  -9.434  15.695  0.00  0.00    +0.000 A 
ATOM     41  C   UNL     1      -9.166  -9.596  17.059  0.00  0.00    +0.000 A 
ATOM     42  H   UNL     1      -8.797  -8.058  20.136  0.00  0.00    +0.000 HD
ATOM     43  H   UNL     1      -8.065 -10.328  20.762  0.00  0.00    +0.000 HD
ATOM     44  H   UNL     1      -8.050 -12.135  19.090  0.00  0.00    +0.000 HD
ATOM     45  H   UNL     1      -8.480 -12.924  16.766  0.00  0.00    +0.000 HD
ATOM     46  H   UNL     1      -9.775 -10.410  13.792  0.00  0.00    +0.000 HD
ATOM     47  H   UNL     1      -9.775  -8.473  15.268  0.00  0.00    +0.000 HD
ENDBRANCH  30  32
ENDBRANCH  27  30
ENDBRANCH   1  27
TORSDOF 8
ENDMDL
MODEL 9
REMARK VINA RESULT:    -9.366      4.771      9.822
REMARK INTER + INTRA:         -14.526
REMARK INTER:                 -13.990
REMARK INTRA:                  -0.536
REMARK UNBOUND:                -0.780
REMARK  Name = 
REMARK  8 active torsions:
REMARK  status: ('A' for Active; 'I' for Inactive)
REMARK    1  A    between atoms: S_2  and  N_4
REMARK    2  A    between atoms: S_2  and  C_18
REMARK    3  A    between atoms: N_4  and  C_5
REMARK    4  A    between atoms: C_5  and  C_6
REMARK    5  A    between atoms: C_6  and  N_7
REMARK    6  A    between atoms: N_7  and  C_8
REMARK    7  A    between atoms: C_8  and  C_9
REMARK    8  A    between atoms: C_10  and  C_11
REMARK                            x       y       z     vdW  Elec       q    Type
REMARK                         _______ _______ _______ _____ _____    ______ ____
ROOT
ATOM      1  C   UNL     1     -10.786  -3.483  18.216  0.00  0.00    +0.000 C 
ATOM      2  H   UNL     1     -11.153  -3.162  17.241  0.00  0.00    +0.000 HD
ATOM      3  H   UNL     1     -11.634  -3.688  18.874  0.00  0.00    +0.000 HD
ENDROOT
BRANCH   1   4
ATOM      4  C   UNL     1      -9.954  -4.767  18.053  0.00  0.00    +0.000 C 
ATOM      5  H   UNL     1      -8.946  -4.595  18.455  0.00  0.00    +0.000 HD
ATOM      6  H   UNL     1      -9.815  -5.012  16.994  0.00  0.00    +0.000 HD
BRANCH   4   7
ATOM      7  N   UNL     1     -10.534  -5.914  18.764  0.00  0.00    +0.000 NA
ATOM      8  H   UNL     1     -11.198  -6.393  18.154  0.00  0.00    +0.000 HD
BRANCH   7   9
ATOM      9  C   UNL     1      -9.504  -6.869  19.177  0.00  0.00    +0.000 C 
ATOM     10  H   UNL     1      -9.652  -7.159  20.221  0.00  0.00    +0.000 HD
ATOM     11  H   UNL     1      -8.500  -6.443  19.086  0.00  0.00    +0.000 HD
BRANCH   9  12
ATOM     12  C   UNL     1      -9.573  -8.079  18.308  0.00  0.00    +0.000 C 
ATOM     13  C   UNL     1      -8.884  -9.204  18.567  0.00  0.00    +0.000 C 
ATOM     14  H   UNL     1     -10.229  -8.002  17.447  0.00  0.00    +0.000 HD
ATOM     15  H   UNL     1      -8.256  -9.268  19.456  0.00  0.00    +0.000 HD
BRANCH  13  16
ATOM     16  C   UNL     1      -8.893 -10.391  17.707  0.00  0.00    +0.000 A 
ATOM     17  C   UNL     1      -9.170 -10.306  16.337  0.00  0.00    +0.000 A 
ATOM     18  C   UNL     1      -9.115 -11.439  15.527  0.00  0.00    +0.000 A 
ATOM     19  C   UNL     1      -8.767 -12.665  16.083  0.00  0.00    +0.000 A 
ATOM     20 BR   UNL     1      -8.666 -14.196  14.978  0.00  0.00    +0.000 Br
ATOM     21  C   UNL     1      -8.479 -12.770  17.442  0.00  0.00    +0.000 A 
ATOM     22  C   UNL     1      -8.537 -11.633  18.252  0.00  0.00    +0.000 A 
ATOM     23  H   UNL     1      -9.417  -9.351  15.880  0.00  0.00    +0.000 HD
ATOM     24  H   UNL     1      -9.335 -11.346  14.467  0.00  0.00    +0.000 HD
ATOM     25  H   UNL     1      -8.202 -13.726  17.879  0.00  0.00    +0.000 HD
ATOM     26  H   UNL     1      -8.304 -11.728  19.311  0.00  0.00    +0.000 HD
ENDBRANCH  13  16
ENDBRANCH   9  12
ENDBRANCH   7   9
ENDBRANCH   4   7
ENDBRANCH   1   4
BRANCH   1  27
ATOM     27  N   UNL     1      -9.986  -2.377  18.750  0.00  0.00    +0.000 NA
ATOM     28  H   UNL     1      -8.976  -2.472  18.647  0.00  0.00    +0.000 HD
BRANCH  27  30
ATOM     29  O   UNL     1     -10.272  -0.395  20.310  0.00  0.00    +0.000 OA
ATOM     30  S   UNL     1     -10.459  -1.830  20.287  0.00  0.00    +0.000 S 
ATOM     31  O   UNL     1     -11.737  -2.434  20.597  0.00  0.00    +0.000 OA
BRANCH  30  32
ATOM     32  C   UNL     1      -9.214  -2.554  21.343  0.00  0.00    +0.000 A 
ATOM     33  C   UNL     1      -8.082  -3.111  20.724  0.00  0.00    +0.000 A 
ATOM     34  C   UNL     1      -7.066  -3.662  21.499  0.00  0.00    +0.000 A 
ATOM     35  C   UNL     1      -7.174  -3.645  22.887  0.00  0.00    +0.000 A 
ATOM     36  C   UNL     1      -8.298  -3.086  23.520  0.00  0.00    +0.000 A 
ATOM     37  C   UNL     1      -8.402  -3.054  24.914  0.00  0.00    +0.000 A 
ATOM     38  N   UNL     1      -9.443  -2.532  25.601  0.00  0.00    +0.000 NA
ATOM     39  C   UNL     1     -10.455  -2.041  24.869  0.00  0.00    +0.000 A 
ATOM     40  C   UNL     1     -10.464  -2.033  23.483  0.00  0.00    +0.000 A 
ATOM     41  C   UNL     1      -9.357  -2.542  22.759  0.00  0.00    +0.000 A 
ATOM     42  H   UNL     1      -7.982  -3.122  19.639  0.00  0.00    +0.000 HD
ATOM     43  H   UNL     1      -6.193  -4.104  21.024  0.00  0.00    +0.000 HD
ATOM     44  H   UNL     1      -6.369  -4.081  23.479  0.00  0.00    +0.000 HD
ATOM     45  H   UNL     1      -7.618  -3.463  25.545  0.00  0.00    +0.000 HD
ATOM     46  H   UNL     1     -11.295  -1.643  25.433  0.00  0.00    +0.000 HD
ATOM     47  H   UNL     1     -11.353  -1.647  22.998  0.00  0.00    +0.000 HD
ENDBRANCH  30  32
ENDBRANCH  27  30
ENDBRANCH   1  27
TORSDOF 8
ENDMDL
