
 OpenBabel01112422373D

 70 75  0  0  0  0  0  0  0  0999 V2000
    2.7120    0.8515   -2.2756 C   0  0  0  0  0  0  0  0  0  0  0  0
    3.4453    1.4928   -3.4705 C   0  0  0  0  0  0  0  0  0  0  0  0
    4.7925    2.0550   -3.6674 N   0  0  0  0  0  0  0  0  0  0  0  0
    5.1631    2.1775   -5.1077 C   0  0  0  0  0  0  0  0  0  0  0  0
    6.5830    2.5660   -5.6828 C   0  0  0  0  0  0  0  0  0  0  0  0
    6.9836    3.9457   -5.5468 O   0  0  0  0  0  0  0  0  0  0  0  0
    8.1771    4.2501   -6.3292 C   0  0  0  0  0  0  0  0  0  0  0  0
    8.6540    5.7068   -6.1193 C   0  0  0  0  0  0  0  0  0  0  0  0
    9.9472    5.9621   -5.4888 N   0  0  0  0  0  0  0  0  0  0  0  0
   10.0895    6.9480   -4.5421 C   0  0  0  0  0  0  0  0  0  0  0  0
   11.4285    6.9820   -4.1387 C   0  0  0  0  0  0  0  0  0  0  0  0
   12.1190    6.0279   -4.8972 C   0  0  0  0  0  0  0  0  0  0  0  0
   13.4726    5.5970   -4.9037 C   0  0  0  0  0  0  0  0  0  0  0  0
   13.8984    4.6608   -5.8393 C   0  0  0  0  0  0  0  0  0  0  0  0
   13.0002    4.1446   -6.7611 C   0  0  0  0  0  0  0  0  0  0  0  0
   11.6496    4.5158   -6.7803 C   0  0  0  0  0  0  0  0  0  0  0  0
   11.2070    5.4381   -5.8035 C   0  0  0  0  0  0  0  0  0  0  0  0
   11.9333    7.8171   -3.1053 C   0  0  0  0  0  0  0  0  0  0  0  0
   11.4541    7.9826   -1.8629 C   0  0  0  0  0  0  0  0  0  0  0  0
   12.3249    8.9447   -1.1607 C   0  0  0  0  0  0  0  0  0  0  0  0
   12.1875    9.3411   -0.0169 O   0  0  0  0  0  0  0  0  0  0  0  0
   13.3040    9.2957   -2.0175 N   0  0  0  0  0  0  0  0  0  0  0  0
   13.1453    8.6712   -3.1991 C   0  0  0  0  0  0  0  0  0  0  0  0
   13.8884    8.7961   -4.1675 O   0  0  0  0  0  0  0  0  0  0  0  0
   10.3475    7.3448   -1.2486 C   0  0  0  0  0  0  0  0  0  0  0  0
   10.2394    5.9855   -1.0852 C   0  0  0  0  0  0  0  0  0  0  0  0
    9.0110    5.7174   -0.5291 N   0  0  0  0  0  0  0  0  0  0  0  0
    8.3312    6.9007   -0.2948 C   0  0  0  0  0  0  0  0  0  0  0  0
    7.0604    7.1807    0.2465 C   0  0  0  0  0  0  0  0  0  0  0  0
    6.6188    8.5022    0.2973 C   0  0  0  0  0  0  0  0  0  0  0  0
    7.4245    9.5394   -0.1435 C   0  0  0  0  0  0  0  0  0  0  0  0
    8.6939    9.2729   -0.6575 C   0  0  0  0  0  0  0  0  0  0  0  0
    9.1580    7.9409   -0.7479 C   0  0  0  0  0  0  0  0  0  0  0  0
    8.5609    4.3469   -0.3555 C   0  0  0  0  0  0  0  0  0  0  0  0
    7.0715    4.1229   -0.5091 C   0  0  0  0  0  0  0  0  0  0  0  0
    6.8391    2.7566   -0.8385 O   0  0  0  0  0  0  0  0  0  0  0  0
    5.5847    2.6014   -1.4917 C   0  0  0  0  0  0  0  0  0  0  0  0
    5.7760    1.6679   -2.6918 C   0  0  0  0  0  0  0  0  0  0  0  0
    2.9111   -0.2224   -2.1801 H   0  0  0  0  0  0  0  0  0  0  0  0
    1.6331    0.9139   -2.5096 H   0  0  0  0  0  0  0  0  0  0  0  0
    2.8475    1.3505   -1.3166 H   0  0  0  0  0  0  0  0  0  0  0  0
    3.3785    0.6806   -4.1944 H   0  0  0  0  0  0  0  0  0  0  0  0
    2.8150    2.3610   -3.6577 H   0  0  0  0  0  0  0  0  0  0  0  0
    4.4571    2.8977   -5.5455 H   0  0  0  0  0  0  0  0  0  0  0  0
    4.9438    1.2077   -5.5779 H   0  0  0  0  0  0  0  0  0  0  0  0
    6.5359    2.3531   -6.7605 H   0  0  0  0  0  0  0  0  0  0  0  0
    7.3605    1.9198   -5.2639 H   0  0  0  0  0  0  0  0  0  0  0  0
    7.9056    4.1489   -7.3906 H   0  0  0  0  0  0  0  0  0  0  0  0
    8.9606    3.5229   -6.1033 H   0  0  0  0  0  0  0  0  0  0  0  0
    7.9094    6.2248   -5.5006 H   0  0  0  0  0  0  0  0  0  0  0  0
    8.6992    6.2379   -7.0785 H   0  0  0  0  0  0  0  0  0  0  0  0
    9.2556    7.5171   -4.2011 H   0  0  0  0  0  0  0  0  0  0  0  0
   14.1806    6.0337   -4.2150 H   0  0  0  0  0  0  0  0  0  0  0  0
   14.9440    4.3643   -5.8410 H   0  0  0  0  0  0  0  0  0  0  0  0
   13.3651    3.4420   -7.5050 H   0  0  0  0  0  0  0  0  0  0  0  0
   10.9678    4.0924   -7.5163 H   0  0  0  0  0  0  0  0  0  0  0  0
   14.0653    9.9240   -1.8069 H   0  0  0  0  0  0  0  0  0  0  0  0
   10.9083    5.1788   -1.3598 H   0  0  0  0  0  0  0  0  0  0  0  0
    6.4005    6.4035    0.6108 H   0  0  0  0  0  0  0  0  0  0  0  0
    5.6253    8.7223    0.6907 H   0  0  0  0  0  0  0  0  0  0  0  0
    7.0722   10.5664   -0.0863 H   0  0  0  0  0  0  0  0  0  0  0  0
    9.3284   10.0929   -0.9797 H   0  0  0  0  0  0  0  0  0  0  0  0
    8.9235    3.9961    0.6133 H   0  0  0  0  0  0  0  0  0  0  0  0
    9.0748    3.7476   -1.1219 H   0  0  0  0  0  0  0  0  0  0  0  0
    6.6884    4.7780   -1.3020 H   0  0  0  0  0  0  0  0  0  0  0  0
    6.5444    4.3268    0.4266 H   0  0  0  0  0  0  0  0  0  0  0  0
    5.1915    3.5711   -1.8371 H   0  0  0  0  0  0  0  0  0  0  0  0
    4.8539    2.2090   -0.7785 H   0  0  0  0  0  0  0  0  0  0  0  0
    5.6622    0.6225   -2.3843 H   0  0  0  0  0  0  0  0  0  0  0  0
    6.7983    1.7698   -3.0708 H   0  0  0  0  0  0  0  0  0  0  0  0
  1  2  1  0  0  0  0
  1 39  1  0  0  0  0
  1 40  1  0  0  0  0
  1 41  1  0  0  0  0
  2  3  1  0  0  0  0
  2 42  1  0  0  0  0
  2 43  1  0  0  0  0
  3  4  1  0  0  0  0
  3 38  1  0  0  0  0
  4  5  1  0  0  0  0
  4 44  1  0  0  0  0
  4 45  1  0  0  0  0
  5  6  1  0  0  0  0
  5 46  1  0  0  0  0
  5 47  1  0  0  0  0
  6  7  1  0  0  0  0
  7  8  1  0  0  0  0
  7 48  1  0  0  0  0
  7 49  1  0  0  0  0
  8  9  1  0  0  0  0
  8 50  1  0  0  0  0
  8 51  1  0  0  0  0
  9 10  1  0  0  0  0
  9 17  1  0  0  0  0
 10 11  2  0  0  0  0
 10 52  1  0  0  0  0
 11 12  1  0  0  0  0
 11 18  1  0  0  0  0
 12 13  1  0  0  0  0
 12 17  2  0  0  0  0
 13 14  2  0  0  0  0
 13 53  1  0  0  0  0
 14 15  1  0  0  0  0
 14 54  1  0  0  0  0
 15 16  2  0  0  0  0
 15 55  1  0  0  0  0
 16 17  1  0  0  0  0
 16 56  1  0  0  0  0
 18 19  2  0  0  0  0
 18 23  1  0  0  0  0
 19 20  1  0  0  0  0
 19 25  1  0  0  0  0
 20 21  2  0  0  0  0
 20 22  1  0  0  0  0
 22 23  1  0  0  0  0
 22 57  1  0  0  0  0
 23 24  2  0  0  0  0
 25 26  2  0  0  0  0
 25 33  1  0  0  0  0
 26 27  1  0  0  0  0
 26 58  1  0  0  0  0
 27 28  1  0  0  0  0
 27 34  1  0  0  0  0
 28 29  1  0  0  0  0
 28 33  2  0  0  0  0
 29 30  2  0  0  0  0
 29 59  1  0  0  0  0
 30 31  1  0  0  0  0
 30 60  1  0  0  0  0
 31 32  2  0  0  0  0
 31 61  1  0  0  0  0
 32 33  1  0  0  0  0
 32 62  1  0  0  0  0
 34 35  1  0  0  0  0
 34 63  1  0  0  0  0
 34 64  1  0  0  0  0
 35 36  1  0  0  0  0
 35 65  1  0  0  0  0
 35 66  1  0  0  0  0
 36 37  1  0  0  0  0
 37 38  1  0  0  0  0
 37 67  1  0  0  0  0
 37 68  1  0  0  0  0
 38 69  1  0  0  0  0
 38 70  1  0  0  0  0
M  END
$$$$
