MODEL 1
REMARK VINA RESULT:    -8.487      0.000      0.000
REMARK INTER + INTRA:         -10.929
REMARK INTER:                 -10.472
REMARK INTRA:                  -0.457
REMARK UNBOUND:                -0.457
REMARK  Name = 
REMARK  6 active torsions:
REMARK  status: ('A' for Active; 'I' for Inactive)
REMARK    1  A    between atoms: C_2  and  C_3
REMARK    2  A    between atoms: C_7  and  N_8
REMARK    3  A    between atoms: C_15  and  O_16
REMARK    4  A    between atoms: C_17  and  O_18
REMARK    5  A    between atoms: C_24  and  O_25
REMARK    6  A    between atoms: C_26  and  O_27
REMARK                            x       y       z     vdW  Elec       q    Type
REMARK                         _______ _______ _______ _____ _____    ______ ____
ROOT
ATOM      1  O   UNL     1      -6.063  -4.088  23.382  0.00  0.00    +0.000 OA
ATOM      2  C   UNL     1      -6.903  -3.834  22.522  0.00  0.00    +0.000 C 
ATOM      3  N   UNL     1      -7.984  -3.018  22.850  0.00  0.00    +0.000 N 
ATOM      4  C   UNL     1      -8.708  -2.233  21.962  0.00  0.00    +0.000 A 
ATOM      5  C   UNL     1      -8.518  -1.855  20.630  0.00  0.00    +0.000 A 
ATOM      6  C   UNL     1      -9.691  -1.680  19.915  0.00  0.00    +0.000 A 
ATOM      7  C   UNL     1     -10.934  -1.825  20.526  0.00  0.00    +0.000 A 
ATOM      8  C   UNL     1     -11.060  -1.807  21.916  0.00  0.00    +0.000 A 
ATOM      9  C   UNL     1      -9.869  -1.905  22.656  0.00  0.00    +0.000 A 
ATOM     10  C   UNL     1      -9.391  -1.743  23.979  0.00  0.00    +0.000 A 
ATOM     11  C   UNL     1      -9.591  -0.904  25.095  0.00  0.00    +0.000 A 
ATOM     12  C   UNL     1      -9.006  -1.263  26.323  0.00  0.00    +0.000 A 
ATOM     13  C   UNL     1      -8.478  -2.539  26.476  0.00  0.00    +0.000 A 
ATOM     14  C   UNL     1      -8.266  -3.361  25.372  0.00  0.00    +0.000 A 
ATOM     15  C   UNL     1      -8.490  -2.796  24.119  0.00  0.00    +0.000 A 
ATOM     16  H   UNL     1      -7.543  -1.857  20.159  0.00  0.00    +0.000 HD
ATOM     17  H   UNL     1     -12.034  -1.864  22.392  0.00  0.00    +0.000 HD
ATOM     18  H   UNL     1     -10.076   0.062  24.978  0.00  0.00    +0.000 HD
ATOM     19  H   UNL     1      -9.023  -0.561  27.150  0.00  0.00    +0.000 HD
ENDROOT
BRANCH   2  20
ATOM     20  C   UNL     1      -6.638  -4.413  21.182  0.00  0.00    +0.000 A 
ATOM     21  C   UNL     1      -5.308  -4.419  20.752  0.00  0.00    +0.000 A 
ATOM     22  C   UNL     1      -4.940  -5.132  19.620  0.00  0.00    +0.000 A 
ATOM     23  C   UNL     1      -5.904  -5.848  18.916  0.00  0.00    +0.000 A 
ATOM     24  C   UNL     1      -7.249  -5.810  19.327  0.00  0.00    +0.000 A 
ATOM     25  C   UNL     1      -7.634  -5.074  20.456  0.00  0.00    +0.000 A 
ATOM     26  H   UNL     1      -4.549  -3.906  21.344  0.00  0.00    +0.000 HD
ATOM     27  H   UNL     1      -3.897  -5.171  19.324  0.00  0.00    +0.000 HD
ATOM     28  H   UNL     1      -5.594  -6.456  18.067  0.00  0.00    +0.000 HD
ATOM     29  H   UNL     1      -8.669  -5.075  20.786  0.00  0.00    +0.000 HD
BRANCH  24  30
ATOM     30  N   UNL     1      -8.245  -6.588  18.621  0.00  0.00    +0.000 N 
ATOM     31  O   UNL     1      -8.078  -6.793  17.414  0.00  0.00    +0.000 OA
ATOM     32  O   UNL     1      -9.214  -7.023  19.251  0.00  0.00    +0.000 OA
ENDBRANCH  24  30
ENDBRANCH   2  20
BRANCH   6  33
ATOM     33  O   UNL     1      -9.652  -1.451  18.569  0.00  0.00    +0.000 OA
ATOM     34  H   UNL     1      -8.957  -0.783  18.418  0.00  0.00    +0.000 HD
ENDBRANCH   6  33
BRANCH   7  35
ATOM     35  O   UNL     1     -12.040  -2.006  19.745  0.00  0.00    +0.000 OA
ATOM     36  H   UNL     1     -11.681  -2.176  18.849  0.00  0.00    +0.000 HD
ENDBRANCH   7  35
BRANCH  13  37
ATOM     37  O   UNL     1      -8.118  -3.032  27.700  0.00  0.00    +0.000 OA
ATOM     38  H   UNL     1      -8.035  -3.998  27.626  0.00  0.00    +0.000 HD
ENDBRANCH  13  37
BRANCH  14  39
ATOM     39  O   UNL     1      -7.876  -4.661  25.534  0.00  0.00    +0.000 OA
ATOM     40  H   UNL     1      -7.311  -4.849  24.759  0.00  0.00    +0.000 HD
ENDBRANCH  14  39
TORSDOF 6
ENDMDL
MODEL 2
REMARK VINA RESULT:    -8.441      4.092      7.764
REMARK INTER + INTRA:         -10.872
REMARK INTER:                 -10.311
REMARK INTRA:                  -0.561
REMARK UNBOUND:                -0.457
REMARK  Name = 
REMARK  6 active torsions:
REMARK  status: ('A' for Active; 'I' for Inactive)
REMARK    1  A    between atoms: C_2  and  C_3
REMARK    2  A    between atoms: C_7  and  N_8
REMARK    3  A    between atoms: C_15  and  O_16
REMARK    4  A    between atoms: C_17  and  O_18
REMARK    5  A    between atoms: C_24  and  O_25
REMARK    6  A    between atoms: C_26  and  O_27
REMARK                            x       y       z     vdW  Elec       q    Type
REMARK                         _______ _______ _______ _____ _____    ______ ____
ROOT
ATOM      1  O   UNL     1     -10.236  -6.784  15.814  0.00  0.00    +0.000 OA
ATOM      2  C   UNL     1     -10.059  -5.896  16.643  0.00  0.00    +0.000 C 
ATOM      3  N   UNL     1     -10.469  -4.598  16.346  0.00  0.00    +0.000 N 
ATOM      4  C   UNL     1     -10.820  -3.625  17.273  0.00  0.00    +0.000 A 
ATOM      5  C   UNL     1     -11.065  -3.644  18.649  0.00  0.00    +0.000 A 
ATOM      6  C   UNL     1     -10.713  -2.476  19.306  0.00  0.00    +0.000 A 
ATOM      7  C   UNL     1     -10.213  -1.381  18.607  0.00  0.00    +0.000 A 
ATOM      8  C   UNL     1     -10.366  -1.278  17.224  0.00  0.00    +0.000 A 
ATOM      9  C   UNL     1     -10.798  -2.434  16.552  0.00  0.00    +0.000 A 
ATOM     10  C   UNL     1     -11.291  -2.841  15.288  0.00  0.00    +0.000 A 
ATOM     11  C   UNL     1     -12.140  -2.368  14.266  0.00  0.00    +0.000 A 
ATOM     12  C   UNL     1     -12.177  -3.062  13.043  0.00  0.00    +0.000 A 
ATOM     13  C   UNL     1     -11.206  -4.019  12.777  0.00  0.00    +0.000 A 
ATOM     14  C   UNL     1     -10.378  -4.499  13.789  0.00  0.00    +0.000 A 
ATOM     15  C   UNL     1     -10.657  -4.065  15.083  0.00  0.00    +0.000 A 
ATOM     16  H   UNL     1     -11.351  -4.546  19.176  0.00  0.00    +0.000 HD
ATOM     17  H   UNL     1     -10.026  -0.399  16.685  0.00  0.00    +0.000 HD
ATOM     18  H   UNL     1     -12.844  -1.564  14.465  0.00  0.00    +0.000 HD
ATOM     19  H   UNL     1     -12.928  -2.804  12.304  0.00  0.00    +0.000 HD
ENDROOT
BRANCH   2  20
ATOM     20  C   UNL     1      -9.444  -6.332  17.922  0.00  0.00    +0.000 A 
ATOM     21  C   UNL     1      -9.941  -7.510  18.488  0.00  0.00    +0.000 A 
ATOM     22  C   UNL     1      -9.283  -8.106  19.554  0.00  0.00    +0.000 A 
ATOM     23  C   UNL     1      -8.121  -7.528  20.056  0.00  0.00    +0.000 A 
ATOM     24  C   UNL     1      -7.644  -6.321  19.511  0.00  0.00    +0.000 A 
ATOM     25  C   UNL     1      -8.314  -5.699  18.448  0.00  0.00    +0.000 A 
ATOM     26  H   UNL     1     -10.816  -7.990  18.049  0.00  0.00    +0.000 HD
ATOM     27  H   UNL     1      -9.649  -9.047  19.953  0.00  0.00    +0.000 HD
ATOM     28  H   UNL     1      -7.579  -8.037  20.851  0.00  0.00    +0.000 HD
ATOM     29  H   UNL     1      -7.921  -4.786  18.012  0.00  0.00    +0.000 HD
BRANCH  24  30
ATOM     30  N   UNL     1      -6.412  -5.741  20.003  0.00  0.00    +0.000 N 
ATOM     31  O   UNL     1      -6.486  -4.758  20.747  0.00  0.00    +0.000 OA
ATOM     32  O   UNL     1      -5.340  -6.255  19.669  0.00  0.00    +0.000 OA
ENDBRANCH  24  30
ENDBRANCH   2  20
BRANCH   6  33
ATOM     33  O   UNL     1     -10.764  -2.409  20.669  0.00  0.00    +0.000 OA
ATOM     34  H   UNL     1     -11.526  -2.950  20.949  0.00  0.00    +0.000 HD
ENDBRANCH   6  33
BRANCH   7  35
ATOM     35  O   UNL     1      -9.549  -0.404  19.292  0.00  0.00    +0.000 OA
ATOM     36  H   UNL     1      -9.885  -0.477  20.210  0.00  0.00    +0.000 HD
ENDBRANCH   7  35
BRANCH  13  37
ATOM     37  O   UNL     1     -11.039  -4.552  11.528  0.00  0.00    +0.000 OA
ATOM     38  H   UNL     1     -10.097  -4.487  11.295  0.00  0.00    +0.000 HD
ENDBRANCH  13  37
BRANCH  14  39
ATOM     39  O   UNL     1      -9.337  -5.336  13.502  0.00  0.00    +0.000 OA
ATOM     40  H   UNL     1      -9.424  -6.068  14.143  0.00  0.00    +0.000 HD
ENDBRANCH  14  39
TORSDOF 6
ENDMDL
MODEL 3
REMARK VINA RESULT:    -8.128      2.526      6.307
REMARK INTER + INTRA:         -10.486
REMARK INTER:                  -9.883
REMARK INTRA:                  -0.603
REMARK UNBOUND:                -0.457
REMARK  Name = 
REMARK  6 active torsions:
REMARK  status: ('A' for Active; 'I' for Inactive)
REMARK    1  A    between atoms: C_2  and  C_3
REMARK    2  A    between atoms: C_7  and  N_8
REMARK    3  A    between atoms: C_15  and  O_16
REMARK    4  A    between atoms: C_17  and  O_18
REMARK    5  A    between atoms: C_24  and  O_25
REMARK    6  A    between atoms: C_26  and  O_27
REMARK                            x       y       z     vdW  Elec       q    Type
REMARK                         _______ _______ _______ _____ _____    ______ ____
ROOT
ATOM      1  O   UNL     1      -7.354  -3.565  23.591  0.00  0.00    +0.000 OA
ATOM      2  C   UNL     1      -8.115  -2.734  23.102  0.00  0.00    +0.000 C 
ATOM      3  N   UNL     1      -8.555  -2.906  21.791  0.00  0.00    +0.000 N 
ATOM      4  C   UNL     1      -9.741  -2.413  21.261  0.00  0.00    +0.000 A 
ATOM      5  C   UNL     1     -10.879  -1.825  21.821  0.00  0.00    +0.000 A 
ATOM      6  C   UNL     1     -11.494  -0.888  21.007  0.00  0.00    +0.000 A 
ATOM      7  C   UNL     1     -11.017  -0.625  19.726  0.00  0.00    +0.000 A 
ATOM      8  C   UNL     1     -10.146  -1.508  19.086  0.00  0.00    +0.000 A 
ATOM      9  C   UNL     1      -9.574  -2.515  19.883  0.00  0.00    +0.000 A 
ATOM     10  C   UNL     1      -8.844  -3.721  19.758  0.00  0.00    +0.000 A 
ATOM     11  C   UNL     1      -8.780  -4.854  18.919  0.00  0.00    +0.000 A 
ATOM     12  C   UNL     1      -7.708  -5.750  19.075  0.00  0.00    +0.000 A 
ATOM     13  C   UNL     1      -6.618  -5.377  19.852  0.00  0.00    +0.000 A 
ATOM     14  C   UNL     1      -6.686  -4.269  20.693  0.00  0.00    +0.000 A 
ATOM     15  C   UNL     1      -7.926  -3.643  20.803  0.00  0.00    +0.000 A 
ATOM     16  H   UNL     1     -11.159  -1.971  22.857  0.00  0.00    +0.000 HD
ATOM     17  H   UNL     1      -9.818  -1.333  18.066  0.00  0.00    +0.000 HD
ATOM     18  H   UNL     1      -9.608  -5.095  18.257  0.00  0.00    +0.000 HD
ATOM     19  H   UNL     1      -7.720  -6.697  18.545  0.00  0.00    +0.000 HD
ENDROOT
BRANCH   2  20
ATOM     20  C   UNL     1      -8.521  -1.631  24.008  0.00  0.00    +0.000 A 
ATOM     21  C   UNL     1      -8.922  -1.992  25.297  0.00  0.00    +0.000 A 
ATOM     22  C   UNL     1      -9.104  -1.022  26.272  0.00  0.00    +0.000 A 
ATOM     23  C   UNL     1      -8.881   0.316  25.961  0.00  0.00    +0.000 A 
ATOM     24  C   UNL     1      -8.515   0.682  24.652  0.00  0.00    +0.000 A 
ATOM     25  C   UNL     1      -8.350  -0.289  23.654  0.00  0.00    +0.000 A 
ATOM     26  H   UNL     1      -9.035  -3.047  25.550  0.00  0.00    +0.000 HD
ATOM     27  H   UNL     1      -9.367  -1.318  27.283  0.00  0.00    +0.000 HD
ATOM     28  H   UNL     1      -8.965   1.063  26.749  0.00  0.00    +0.000 HD
ATOM     29  H   UNL     1      -8.036  -0.002  22.655  0.00  0.00    +0.000 HD
BRANCH  24  30
ATOM     30  N   UNL     1      -8.240   2.069  24.338  0.00  0.00    +0.000 N 
ATOM     31  O   UNL     1      -9.063   2.687  23.655  0.00  0.00    +0.000 OA
ATOM     32  O   UNL     1      -7.202   2.580  24.770  0.00  0.00    +0.000 OA
ENDBRANCH  24  30
ENDBRANCH   2  20
BRANCH   6  33
ATOM     33  O   UNL     1     -12.529  -0.134  21.483  0.00  0.00    +0.000 OA
ATOM     34  H   UNL     1     -13.150  -0.750  21.914  0.00  0.00    +0.000 HD
ENDBRANCH   6  33
BRANCH   7  35
ATOM     35  O   UNL     1     -11.399   0.526  19.099  0.00  0.00    +0.000 OA
ATOM     36  H   UNL     1     -12.032   0.232  18.411  0.00  0.00    +0.000 HD
ENDBRANCH   7  35
BRANCH  13  37
ATOM     37  O   UNL     1      -5.450  -6.088  19.850  0.00  0.00    +0.000 OA
ATOM     38  H   UNL     1      -4.714  -5.462  19.746  0.00  0.00    +0.000 HD
ENDBRANCH  13  37
BRANCH  14  39
ATOM     39  O   UNL     1      -5.575  -3.822  21.351  0.00  0.00    +0.000 OA
ATOM     40  H   UNL     1      -5.848  -3.765  22.288  0.00  0.00    +0.000 HD
ENDBRANCH  14  39
TORSDOF 6
ENDMDL
MODEL 4
REMARK VINA RESULT:    -7.894      2.790      6.949
REMARK INTER + INTRA:         -10.197
REMARK INTER:                  -9.527
REMARK INTRA:                  -0.670
REMARK UNBOUND:                -0.457
REMARK  Name = 
REMARK  6 active torsions:
REMARK  status: ('A' for Active; 'I' for Inactive)
REMARK    1  A    between atoms: C_2  and  C_3
REMARK    2  A    between atoms: C_7  and  N_8
REMARK    3  A    between atoms: C_15  and  O_16
REMARK    4  A    between atoms: C_17  and  O_18
REMARK    5  A    between atoms: C_24  and  O_25
REMARK    6  A    between atoms: C_26  and  O_27
REMARK                            x       y       z     vdW  Elec       q    Type
REMARK                         _______ _______ _______ _____ _____    ______ ____
ROOT
ATOM      1  O   UNL     1      -9.519  -1.537  19.363  0.00  0.00    +0.000 OA
ATOM      2  C   UNL     1      -9.673  -1.382  20.571  0.00  0.00    +0.000 C 
ATOM      3  N   UNL     1      -8.832  -2.055  21.454  0.00  0.00    +0.000 N 
ATOM      4  C   UNL     1      -8.511  -1.646  22.742  0.00  0.00    +0.000 A 
ATOM      5  C   UNL     1      -8.712  -0.463  23.459  0.00  0.00    +0.000 A 
ATOM      6  C   UNL     1      -8.890  -0.646  24.820  0.00  0.00    +0.000 A 
ATOM      7  C   UNL     1      -8.811  -1.913  25.392  0.00  0.00    +0.000 A 
ATOM      8  C   UNL     1      -8.222  -2.977  24.707  0.00  0.00    +0.000 A 
ATOM      9  C   UNL     1      -7.964  -2.778  23.340  0.00  0.00    +0.000 A 
ATOM     10  C   UNL     1      -7.252  -3.368  22.267  0.00  0.00    +0.000 A 
ATOM     11  C   UNL     1      -6.033  -4.037  22.030  0.00  0.00    +0.000 A 
ATOM     12  C   UNL     1      -5.831  -4.649  20.780  0.00  0.00    +0.000 A 
ATOM     13  C   UNL     1      -6.910  -4.807  19.919  0.00  0.00    +0.000 A 
ATOM     14  C   UNL     1      -8.108  -4.133  20.144  0.00  0.00    +0.000 A 
ATOM     15  C   UNL     1      -8.122  -3.214  21.190  0.00  0.00    +0.000 A 
ATOM     16  H   UNL     1      -8.876   0.490  22.972  0.00  0.00    +0.000 HD
ATOM     17  H   UNL     1      -8.110  -3.951  25.173  0.00  0.00    +0.000 HD
ATOM     18  H   UNL     1      -5.220  -3.971  22.748  0.00  0.00    +0.000 HD
ATOM     19  H   UNL     1      -4.851  -5.037  20.526  0.00  0.00    +0.000 HD
ENDROOT
BRANCH   2  20
ATOM     20  C   UNL     1     -10.746  -0.433  20.960  0.00  0.00    +0.000 A 
ATOM     21  C   UNL     1     -11.884  -0.984  21.559  0.00  0.00    +0.000 A 
ATOM     22  C   UNL     1     -12.832  -0.161  22.149  0.00  0.00    +0.000 A 
ATOM     23  C   UNL     1     -12.643   1.217  22.148  0.00  0.00    +0.000 A 
ATOM     24  C   UNL     1     -11.518   1.772  21.510  0.00  0.00    +0.000 A 
ATOM     25  C   UNL     1     -10.565   0.951  20.891  0.00  0.00    +0.000 A 
ATOM     26  H   UNL     1     -11.994  -2.068  21.610  0.00  0.00    +0.000 HD
ATOM     27  H   UNL     1     -13.685  -0.602  22.655  0.00  0.00    +0.000 HD
ATOM     28  H   UNL     1     -13.361   1.849  22.669  0.00  0.00    +0.000 HD
ATOM     29  H   UNL     1      -9.684   1.385  20.429  0.00  0.00    +0.000 HD
BRANCH  24  30
ATOM     30  N   UNL     1     -11.298   3.203  21.545  0.00  0.00    +0.000 N 
ATOM     31  O   UNL     1     -10.154   3.613  21.760  0.00  0.00    +0.000 OA
ATOM     32  O   UNL     1     -12.259   3.955  21.351  0.00  0.00    +0.000 OA
ENDBRANCH  24  30
ENDBRANCH   2  20
BRANCH   6  33
ATOM     33  O   UNL     1      -9.238   0.407  25.618  0.00  0.00    +0.000 OA
ATOM     34  H   UNL     1      -9.166   1.210  25.070  0.00  0.00    +0.000 HD
ENDBRANCH   6  33
BRANCH   7  35
ATOM     35  O   UNL     1      -9.336  -2.112  26.637  0.00  0.00    +0.000 OA
ATOM     36  H   UNL     1      -9.326  -1.225  27.052  0.00  0.00    +0.000 HD
ENDBRANCH   7  35
BRANCH  13  37
ATOM     37  O   UNL     1      -6.839  -5.599  18.806  0.00  0.00    +0.000 OA
ATOM     38  H   UNL     1      -6.208  -6.316  18.985  0.00  0.00    +0.000 HD
ENDBRANCH  13  37
BRANCH  14  39
ATOM     39  O   UNL     1      -9.210  -4.393  19.378  0.00  0.00    +0.000 OA
ATOM     40  H   UNL     1      -9.048  -3.917  18.541  0.00  0.00    +0.000 HD
ENDBRANCH  14  39
TORSDOF 6
ENDMDL
MODEL 5
REMARK VINA RESULT:    -7.835      2.743      5.242
REMARK INTER + INTRA:         -10.124
REMARK INTER:                  -9.420
REMARK INTRA:                  -0.704
REMARK UNBOUND:                -0.457
REMARK  Name = 
REMARK  6 active torsions:
REMARK  status: ('A' for Active; 'I' for Inactive)
REMARK    1  A    between atoms: C_2  and  C_3
REMARK    2  A    between atoms: C_7  and  N_8
REMARK    3  A    between atoms: C_15  and  O_16
REMARK    4  A    between atoms: C_17  and  O_18
REMARK    5  A    between atoms: C_24  and  O_25
REMARK    6  A    between atoms: C_26  and  O_27
REMARK                            x       y       z     vdW  Elec       q    Type
REMARK                         _______ _______ _______ _____ _____    ______ ____
ROOT
ATOM      1  O   UNL     1     -10.981  -1.503  20.459  0.00  0.00    +0.000 OA
ATOM      2  C   UNL     1     -10.131  -2.194  19.905  0.00  0.00    +0.000 C 
ATOM      3  N   UNL     1      -9.152  -2.815  20.679  0.00  0.00    +0.000 N 
ATOM      4  C   UNL     1      -8.467  -3.976  20.343  0.00  0.00    +0.000 A 
ATOM      5  C   UNL     1      -8.630  -4.940  19.344  0.00  0.00    +0.000 A 
ATOM      6  C   UNL     1      -7.447  -5.513  18.909  0.00  0.00    +0.000 A 
ATOM      7  C   UNL     1      -6.227  -5.169  19.484  0.00  0.00    +0.000 A 
ATOM      8  C   UNL     1      -6.170  -4.519  20.718  0.00  0.00    +0.000 A 
ATOM      9  C   UNL     1      -7.379  -4.000  21.211  0.00  0.00    +0.000 A 
ATOM     10  C   UNL     1      -7.933  -3.469  22.401  0.00  0.00    +0.000 A 
ATOM     11  C   UNL     1      -7.871  -3.673  23.795  0.00  0.00    +0.000 A 
ATOM     12  C   UNL     1      -8.475  -2.728  24.643  0.00  0.00    +0.000 A 
ATOM     13  C   UNL     1      -8.882  -1.507  24.119  0.00  0.00    +0.000 A 
ATOM     14  C   UNL     1      -8.959  -1.311  22.742  0.00  0.00    +0.000 A 
ATOM     15  C   UNL     1      -8.731  -2.425  21.938  0.00  0.00    +0.000 A 
ATOM     16  H   UNL     1      -9.577  -5.105  18.845  0.00  0.00    +0.000 HD
ATOM     17  H   UNL     1      -5.219  -4.300  21.193  0.00  0.00    +0.000 HD
ATOM     18  H   UNL     1      -7.479  -4.603  24.198  0.00  0.00    +0.000 HD
ATOM     19  H   UNL     1      -8.567  -2.940  25.703  0.00  0.00    +0.000 HD
ENDROOT
BRANCH   2  20
ATOM     20  C   UNL     1     -10.273  -2.322  18.433  0.00  0.00    +0.000 A 
ATOM     21  C   UNL     1     -11.326  -3.117  17.970  0.00  0.00    +0.000 A 
ATOM     22  C   UNL     1     -11.666  -3.115  16.626  0.00  0.00    +0.000 A 
ATOM     23  C   UNL     1     -10.956  -2.313  15.738  0.00  0.00    +0.000 A 
ATOM     24  C   UNL     1      -9.871  -1.544  16.197  0.00  0.00    +0.000 A 
ATOM     25  C   UNL     1      -9.505  -1.555  17.551  0.00  0.00    +0.000 A 
ATOM     26  H   UNL     1     -11.917  -3.694  18.682  0.00  0.00    +0.000 HD
ATOM     27  H   UNL     1     -12.517  -3.696  16.286  0.00  0.00    +0.000 HD
ATOM     28  H   UNL     1     -11.272  -2.271  14.696  0.00  0.00    +0.000 HD
ATOM     29  H   UNL     1      -8.687  -0.935  17.904  0.00  0.00    +0.000 HD
BRANCH  24  30
ATOM     30  N   UNL     1      -9.159  -0.676  15.283  0.00  0.00    +0.000 N 
ATOM     31  O   UNL     1      -9.695  -0.396  14.206  0.00  0.00    +0.000 OA
ATOM     32  O   UNL     1      -8.050  -0.245  15.617  0.00  0.00    +0.000 OA
ENDBRANCH  24  30
ENDBRANCH   2  20
BRANCH   6  33
ATOM     33  O   UNL     1      -7.444  -6.363  17.839  0.00  0.00    +0.000 OA
ATOM     34  H   UNL     1      -7.307  -7.261  18.194  0.00  0.00    +0.000 HD
ENDBRANCH   6  33
BRANCH   7  35
ATOM     35  O   UNL     1      -5.072  -5.460  18.814  0.00  0.00    +0.000 OA
ATOM     36  H   UNL     1      -4.410  -5.607  19.521  0.00  0.00    +0.000 HD
ENDBRANCH   7  35
BRANCH  13  37
ATOM     37  O   UNL     1      -9.249  -0.461  24.920  0.00  0.00    +0.000 OA
ATOM     38  H   UNL     1      -8.555  -0.333  25.589  0.00  0.00    +0.000 HD
ENDBRANCH  13  37
BRANCH  14  39
ATOM     39  O   UNL     1      -9.226  -0.074  22.226  0.00  0.00    +0.000 OA
ATOM     40  H   UNL     1      -9.316  -0.221  21.264  0.00  0.00    +0.000 HD
ENDBRANCH  14  39
TORSDOF 6
ENDMDL
MODEL 6
REMARK VINA RESULT:    -7.697      2.163      4.417
REMARK INTER + INTRA:          -9.955
REMARK INTER:                  -9.298
REMARK INTRA:                  -0.657
REMARK UNBOUND:                -0.457
REMARK  Name = 
REMARK  6 active torsions:
REMARK  status: ('A' for Active; 'I' for Inactive)
REMARK    1  A    between atoms: C_2  and  C_3
REMARK    2  A    between atoms: C_7  and  N_8
REMARK    3  A    between atoms: C_15  and  O_16
REMARK    4  A    between atoms: C_17  and  O_18
REMARK    5  A    between atoms: C_24  and  O_25
REMARK    6  A    between atoms: C_26  and  O_27
REMARK                            x       y       z     vdW  Elec       q    Type
REMARK                         _______ _______ _______ _____ _____    ______ ____
ROOT
ATOM      1  O   UNL     1     -10.929  -1.271  22.462  0.00  0.00    +0.000 OA
ATOM      2  C   UNL     1     -10.057  -1.772  21.757  0.00  0.00    +0.000 C 
ATOM      3  N   UNL     1      -9.048  -2.522  22.356  0.00  0.00    +0.000 N 
ATOM      4  C   UNL     1      -8.321  -3.538  21.749  0.00  0.00    +0.000 A 
ATOM      5  C   UNL     1      -8.456  -4.237  20.546  0.00  0.00    +0.000 A 
ATOM      6  C   UNL     1      -7.256  -4.638  19.984  0.00  0.00    +0.000 A 
ATOM      7  C   UNL     1      -6.044  -4.395  20.625  0.00  0.00    +0.000 A 
ATOM      8  C   UNL     1      -6.001  -4.063  21.980  0.00  0.00    +0.000 A 
ATOM      9  C   UNL     1      -7.224  -3.728  22.584  0.00  0.00    +0.000 A 
ATOM     10  C   UNL     1      -7.787  -3.525  23.868  0.00  0.00    +0.000 A 
ATOM     11  C   UNL     1      -7.704  -4.059  25.171  0.00  0.00    +0.000 A 
ATOM     12  C   UNL     1      -8.336  -3.373  26.223  0.00  0.00    +0.000 A 
ATOM     13  C   UNL     1      -8.795  -2.078  26.011  0.00  0.00    +0.000 A 
ATOM     14  C   UNL     1      -8.893  -1.557  24.723  0.00  0.00    +0.000 A 
ATOM     15  C   UNL     1      -8.630  -2.433  23.673  0.00  0.00    +0.000 A 
ATOM     16  H   UNL     1      -9.401  -4.313  20.021  0.00  0.00    +0.000 HD
ATOM     17  H   UNL     1      -5.055  -3.927  22.494  0.00  0.00    +0.000 HD
ATOM     18  H   UNL     1      -7.271  -5.042  25.336  0.00  0.00    +0.000 HD
ATOM     19  H   UNL     1      -8.409  -3.840  27.200  0.00  0.00    +0.000 HD
ENDROOT
BRANCH   2  20
ATOM     20  C   UNL     1     -10.209  -1.544  20.298  0.00  0.00    +0.000 A 
ATOM     21  C   UNL     1      -9.285  -0.682  19.698  0.00  0.00    +0.000 A 
ATOM     22  C   UNL     1      -9.214  -0.584  18.316  0.00  0.00    +0.000 A 
ATOM     23  C   UNL     1     -10.065  -1.353  17.527  0.00  0.00    +0.000 A 
ATOM     24  C   UNL     1     -11.020  -2.190  18.132  0.00  0.00    +0.000 A 
ATOM     25  C   UNL     1     -11.115  -2.279  19.529  0.00  0.00    +0.000 A 
ATOM     26  H   UNL     1      -8.581  -0.130  20.321  0.00  0.00    +0.000 HD
ATOM     27  H   UNL     1      -8.460   0.050  17.860  0.00  0.00    +0.000 HD
ATOM     28  H   UNL     1      -9.958  -1.316  16.444  0.00  0.00    +0.000 HD
ATOM     29  H   UNL     1     -11.833  -2.952  19.988  0.00  0.00    +0.000 HD
BRANCH  24  30
ATOM     30  N   UNL     1     -11.876  -3.022  17.314  0.00  0.00    +0.000 N 
ATOM     31  O   UNL     1     -11.805  -4.248  17.451  0.00  0.00    +0.000 OA
ATOM     32  O   UNL     1     -12.648  -2.477  16.518  0.00  0.00    +0.000 OA
ENDBRANCH  24  30
ENDBRANCH   2  20
BRANCH   6  33
ATOM     33  O   UNL     1      -7.231  -5.203  18.740  0.00  0.00    +0.000 OA
ATOM     34  H   UNL     1      -7.734  -6.036  18.799  0.00  0.00    +0.000 HD
ENDBRANCH   6  33
BRANCH   7  35
ATOM     35  O   UNL     1      -4.886  -4.468  19.905  0.00  0.00    +0.000 OA
ATOM     36  H   UNL     1      -5.063  -5.152  19.225  0.00  0.00    +0.000 HD
ENDBRANCH   7  35
BRANCH  13  37
ATOM     37  O   UNL     1      -9.195  -1.274  27.043  0.00  0.00    +0.000 OA
ATOM     38  H   UNL     1      -9.604  -1.835  27.723  0.00  0.00    +0.000 HD
ENDBRANCH  13  37
BRANCH  14  39
ATOM     39  O   UNL     1      -9.213  -0.244  24.523  0.00  0.00    +0.000 OA
ATOM     40  H   UNL     1      -9.936  -0.262  23.866  0.00  0.00    +0.000 HD
ENDBRANCH  14  39
TORSDOF 6
ENDMDL
MODEL 7
REMARK VINA RESULT:    -7.668      4.787      7.967
REMARK INTER + INTRA:          -9.918
REMARK INTER:                  -9.242
REMARK INTRA:                  -0.676
REMARK UNBOUND:                -0.457
REMARK  Name = 
REMARK  6 active torsions:
REMARK  status: ('A' for Active; 'I' for Inactive)
REMARK    1  A    between atoms: C_2  and  C_3
REMARK    2  A    between atoms: C_7  and  N_8
REMARK    3  A    between atoms: C_15  and  O_16
REMARK    4  A    between atoms: C_17  and  O_18
REMARK    5  A    between atoms: C_24  and  O_25
REMARK    6  A    between atoms: C_26  and  O_27
REMARK                            x       y       z     vdW  Elec       q    Type
REMARK                         _______ _______ _______ _____ _____    ______ ____
ROOT
ATOM      1  O   UNL     1      -9.793  -5.500  14.176  0.00  0.00    +0.000 OA
ATOM      2  C   UNL     1     -10.019  -5.119  15.321  0.00  0.00    +0.000 C 
ATOM      3  N   UNL     1     -10.348  -3.783  15.539  0.00  0.00    +0.000 N 
ATOM      4  C   UNL     1     -11.101  -3.294  16.600  0.00  0.00    +0.000 A 
ATOM      5  C   UNL     1     -11.881  -3.897  17.590  0.00  0.00    +0.000 A 
ATOM      6  C   UNL     1     -11.894  -3.216  18.796  0.00  0.00    +0.000 A 
ATOM      7  C   UNL     1     -11.219  -2.008  18.948  0.00  0.00    +0.000 A 
ATOM      8  C   UNL     1     -10.804  -1.271  17.838  0.00  0.00    +0.000 A 
ATOM      9  C   UNL     1     -10.858  -1.923  16.594  0.00  0.00    +0.000 A 
ATOM     10  C   UNL     1     -10.773  -1.640  15.209  0.00  0.00    +0.000 A 
ATOM     11  C   UNL     1     -11.162  -0.640  14.294  0.00  0.00    +0.000 A 
ATOM     12  C   UNL     1     -10.660  -0.693  12.982  0.00  0.00    +0.000 A 
ATOM     13  C   UNL     1      -9.610  -1.555  12.691  0.00  0.00    +0.000 A 
ATOM     14  C   UNL     1      -9.236  -2.554  13.587  0.00  0.00    +0.000 A 
ATOM     15  C   UNL     1     -10.040  -2.716  14.713  0.00  0.00    +0.000 A 
ATOM     16  H   UNL     1     -12.302  -4.888  17.475  0.00  0.00    +0.000 HD
ATOM     17  H   UNL     1     -10.327  -0.303  17.953  0.00  0.00    +0.000 HD
ATOM     18  H   UNL     1     -11.931   0.080  14.561  0.00  0.00    +0.000 HD
ATOM     19  H   UNL     1     -11.060  -0.023  12.228  0.00  0.00    +0.000 HD
ENDROOT
BRANCH   2  20
ATOM     20  C   UNL     1      -9.950  -6.169  16.368  0.00  0.00    +0.000 A 
ATOM     21  C   UNL     1     -10.674  -7.342  16.130  0.00  0.00    +0.000 A 
ATOM     22  C   UNL     1     -10.493  -8.453  16.940  0.00  0.00    +0.000 A 
ATOM     23  C   UNL     1      -9.582  -8.397  17.991  0.00  0.00    +0.000 A 
ATOM     24  C   UNL     1      -8.883  -7.205  18.253  0.00  0.00    +0.000 A 
ATOM     25  C   UNL     1      -9.075  -6.069  17.454  0.00  0.00    +0.000 A 
ATOM     26  H   UNL     1     -11.340  -7.397  15.268  0.00  0.00    +0.000 HD
ATOM     27  H   UNL     1     -11.022  -9.374  16.716  0.00  0.00    +0.000 HD
ATOM     28  H   UNL     1      -9.401  -9.295  18.581  0.00  0.00    +0.000 HD
ATOM     29  H   UNL     1      -8.509  -5.162  17.643  0.00  0.00    +0.000 HD
BRANCH  24  30
ATOM     30  N   UNL     1      -7.904  -7.159  19.319  0.00  0.00    +0.000 N 
ATOM     31  O   UNL     1      -7.035  -6.281  19.276  0.00  0.00    +0.000 OA
ATOM     32  O   UNL     1      -7.979  -7.989  20.229  0.00  0.00    +0.000 OA
ENDBRANCH  24  30
ENDBRANCH   2  20
BRANCH   6  33
ATOM     33  O   UNL     1     -12.496  -3.766  19.893  0.00  0.00    +0.000 OA
ATOM     34  H   UNL     1     -13.306  -4.207  19.576  0.00  0.00    +0.000 HD
ENDBRANCH   6  33
BRANCH   7  35
ATOM     35  O   UNL     1     -10.947  -1.553  20.206  0.00  0.00    +0.000 OA
ATOM     36  H   UNL     1     -10.185  -2.093  20.503  0.00  0.00    +0.000 HD
ENDBRANCH   7  35
BRANCH  13  37
ATOM     37  O   UNL     1      -8.920  -1.485  11.512  0.00  0.00    +0.000 OA
ATOM     38  H   UNL     1      -9.546  -1.240  10.809  0.00  0.00    +0.000 HD
ENDBRANCH  13  37
BRANCH  14  39
ATOM     39  O   UNL     1      -8.121  -3.312  13.364  0.00  0.00    +0.000 OA
ATOM     40  H   UNL     1      -8.251  -3.688  12.471  0.00  0.00    +0.000 HD
ENDBRANCH  14  39
TORSDOF 6
ENDMDL
MODEL 8
REMARK VINA RESULT:    -7.554      2.527      6.430
REMARK INTER + INTRA:          -9.777
REMARK INTER:                  -9.604
REMARK INTRA:                  -0.173
REMARK UNBOUND:                -0.457
REMARK  Name = 
REMARK  6 active torsions:
REMARK  status: ('A' for Active; 'I' for Inactive)
REMARK    1  A    between atoms: C_2  and  C_3
REMARK    2  A    between atoms: C_7  and  N_8
REMARK    3  A    between atoms: C_15  and  O_16
REMARK    4  A    between atoms: C_17  and  O_18
REMARK    5  A    between atoms: C_24  and  O_25
REMARK    6  A    between atoms: C_26  and  O_27
REMARK                            x       y       z     vdW  Elec       q    Type
REMARK                         _______ _______ _______ _____ _____    ______ ____
ROOT
ATOM      1  O   UNL     1      -8.451  -6.467  19.867  0.00  0.00    +0.000 OA
ATOM      2  C   UNL     1      -8.407  -5.240  19.844  0.00  0.00    +0.000 C 
ATOM      3  N   UNL     1      -9.149  -4.553  18.886  0.00  0.00    +0.000 N 
ATOM      4  C   UNL     1      -9.625  -3.253  19.006  0.00  0.00    +0.000 A 
ATOM      5  C   UNL     1      -9.709  -2.349  20.069  0.00  0.00    +0.000 A 
ATOM      6  C   UNL     1      -9.584  -1.021  19.697  0.00  0.00    +0.000 A 
ATOM      7  C   UNL     1      -9.443  -0.658  18.360  0.00  0.00    +0.000 A 
ATOM      8  C   UNL     1      -9.763  -1.550  17.335  0.00  0.00    +0.000 A 
ATOM      9  C   UNL     1      -9.971  -2.889  17.708  0.00  0.00    +0.000 A 
ATOM     10  C   UNL     1     -10.482  -4.100  17.183  0.00  0.00    +0.000 A 
ATOM     11  C   UNL     1     -11.525  -4.550  16.347  0.00  0.00    +0.000 A 
ATOM     12  C   UNL     1     -11.523  -5.892  15.927  0.00  0.00    +0.000 A 
ATOM     13  C   UNL     1     -10.382  -6.662  16.120  0.00  0.00    +0.000 A 
ATOM     14  C   UNL     1      -9.359  -6.226  16.959  0.00  0.00    +0.000 A 
ATOM     15  C   UNL     1      -9.596  -5.055  17.676  0.00  0.00    +0.000 A 
ATOM     16  H   UNL     1      -9.709  -2.668  21.104  0.00  0.00    +0.000 HD
ATOM     17  H   UNL     1      -9.707  -1.250  16.293  0.00  0.00    +0.000 HD
ATOM     18  H   UNL     1     -12.378  -3.910  16.139  0.00  0.00    +0.000 HD
ATOM     19  H   UNL     1     -12.388  -6.293  15.410  0.00  0.00    +0.000 HD
ENDROOT
BRANCH   2  20
ATOM     20  C   UNL     1      -7.571  -4.613  20.897  0.00  0.00    +0.000 A 
ATOM     21  C   UNL     1      -6.205  -4.485  20.623  0.00  0.00    +0.000 A 
ATOM     22  C   UNL     1      -5.394  -3.720  21.447  0.00  0.00    +0.000 A 
ATOM     23  C   UNL     1      -5.947  -3.073  22.549  0.00  0.00    +0.000 A 
ATOM     24  C   UNL     1      -7.313  -3.234  22.846  0.00  0.00    +0.000 A 
ATOM     25  C   UNL     1      -8.137  -4.024  22.032  0.00  0.00    +0.000 A 
ATOM     26  H   UNL     1      -5.792  -4.944  19.724  0.00  0.00    +0.000 HD
ATOM     27  H   UNL     1      -4.346  -3.587  21.196  0.00  0.00    +0.000 HD
ATOM     28  H   UNL     1      -5.314  -2.424  23.152  0.00  0.00    +0.000 HD
ATOM     29  H   UNL     1      -9.196  -4.118  22.250  0.00  0.00    +0.000 HD
BRANCH  24  30
ATOM     30  N   UNL     1      -7.898  -2.528  23.966  0.00  0.00    +0.000 N 
ATOM     31  O   UNL     1      -8.028  -1.303  23.881  0.00  0.00    +0.000 OA
ATOM     32  O   UNL     1      -8.251  -3.177  24.957  0.00  0.00    +0.000 OA
ENDBRANCH  24  30
ENDBRANCH   2  20
BRANCH   6  33
ATOM     33  O   UNL     1      -9.504  -0.043  20.648  0.00  0.00    +0.000 OA
ATOM     34  H   UNL     1     -10.380   0.007  21.074  0.00  0.00    +0.000 HD
ENDBRANCH   6  33
BRANCH   7  35
ATOM     35  O   UNL     1      -8.967   0.585  18.057  0.00  0.00    +0.000 OA
ATOM     36  H   UNL     1      -9.667   1.197  18.366  0.00  0.00    +0.000 HD
ENDBRANCH   7  35
BRANCH  13  37
ATOM     37  O   UNL     1     -10.225  -7.884  15.527  0.00  0.00    +0.000 OA
ATOM     38  H   UNL     1      -9.812  -8.484  16.172  0.00  0.00    +0.000 HD
ENDBRANCH  13  37
BRANCH  14  39
ATOM     39  O   UNL     1      -8.182  -6.915  17.042  0.00  0.00    +0.000 OA
ATOM     40  H   UNL     1      -7.926  -7.082  16.114  0.00  0.00    +0.000 HD
ENDBRANCH  14  39
TORSDOF 6
ENDMDL
MODEL 9
REMARK VINA RESULT:    -7.370      2.877      6.937
REMARK INTER + INTRA:          -9.551
REMARK INTER:                  -9.165
REMARK INTRA:                  -0.386
REMARK UNBOUND:                -0.457
REMARK  Name = 
REMARK  6 active torsions:
REMARK  status: ('A' for Active; 'I' for Inactive)
REMARK    1  A    between atoms: C_2  and  C_3
REMARK    2  A    between atoms: C_7  and  N_8
REMARK    3  A    between atoms: C_15  and  O_16
REMARK    4  A    between atoms: C_17  and  O_18
REMARK    5  A    between atoms: C_24  and  O_25
REMARK    6  A    between atoms: C_26  and  O_27
REMARK                            x       y       z     vdW  Elec       q    Type
REMARK                         _______ _______ _______ _____ _____    ______ ____
ROOT
ATOM      1  O   UNL     1      -9.229  -0.284  20.066  0.00  0.00    +0.000 OA
ATOM      2  C   UNL     1      -9.406  -1.499  20.080  0.00  0.00    +0.000 C 
ATOM      3  N   UNL     1      -9.870  -2.131  18.928  0.00  0.00    +0.000 N 
ATOM      4  C   UNL     1      -9.651  -3.459  18.585  0.00  0.00    +0.000 A 
ATOM      5  C   UNL     1      -8.821  -4.463  19.091  0.00  0.00    +0.000 A 
ATOM      6  C   UNL     1      -9.343  -5.742  18.980  0.00  0.00    +0.000 A 
ATOM      7  C   UNL     1     -10.570  -5.967  18.361  0.00  0.00    +0.000 A 
ATOM      8  C   UNL     1     -11.149  -5.000  17.538  0.00  0.00    +0.000 A 
ATOM      9  C   UNL     1     -10.580  -3.716  17.581  0.00  0.00    +0.000 A 
ATOM     10  C   UNL     1     -10.604  -2.488  16.875  0.00  0.00    +0.000 A 
ATOM     11  C   UNL     1     -10.679  -2.016  15.548  0.00  0.00    +0.000 A 
ATOM     12  C   UNL     1     -10.883  -0.642  15.330  0.00  0.00    +0.000 A 
ATOM     13  C   UNL     1     -11.262   0.165  16.396  0.00  0.00    +0.000 A 
ATOM     14  C   UNL     1     -11.173  -0.294  17.708  0.00  0.00    +0.000 A 
ATOM     15  C   UNL     1     -10.576  -1.539  17.895  0.00  0.00    +0.000 A 
ATOM     16  H   UNL     1      -7.927  -4.246  19.662  0.00  0.00    +0.000 HD
ATOM     17  H   UNL     1     -12.077  -5.195  17.010  0.00  0.00    +0.000 HD
ATOM     18  H   UNL     1     -10.455  -2.678  14.716  0.00  0.00    +0.000 HD
ATOM     19  H   UNL     1     -10.796  -0.240  14.327  0.00  0.00    +0.000 HD
ENDROOT
BRANCH   2  20
ATOM     20  C   UNL     1      -9.057  -2.180  21.352  0.00  0.00    +0.000 A 
ATOM     21  C   UNL     1      -7.739  -2.630  21.482  0.00  0.00    +0.000 A 
ATOM     22  C   UNL     1      -7.268  -3.074  22.709  0.00  0.00    +0.000 A 
ATOM     23  C   UNL     1      -8.115  -3.066  23.814  0.00  0.00    +0.000 A 
ATOM     24  C   UNL     1      -9.451  -2.650  23.673  0.00  0.00    +0.000 A 
ATOM     25  C   UNL     1      -9.943  -2.220  22.432  0.00  0.00    +0.000 A 
ATOM     26  H   UNL     1      -7.065  -2.575  20.627  0.00  0.00    +0.000 HD
ATOM     27  H   UNL     1      -6.230  -3.373  22.810  0.00  0.00    +0.000 HD
ATOM     28  H   UNL     1      -7.717  -3.357  24.785  0.00  0.00    +0.000 HD
ATOM     29  H   UNL     1     -10.966  -1.871  22.339  0.00  0.00    +0.000 HD
BRANCH  24  30
ATOM     30  N   UNL     1     -10.320  -2.601  24.830  0.00  0.00    +0.000 N 
ATOM     31  O   UNL     1      -9.846  -2.206  25.900  0.00  0.00    +0.000 OA
ATOM     32  O   UNL     1     -11.499  -2.946  24.701  0.00  0.00    +0.000 OA
ENDBRANCH  24  30
ENDBRANCH   2  20
BRANCH   6  33
ATOM     33  O   UNL     1      -8.705  -6.801  19.561  0.00  0.00    +0.000 OA
ATOM     34  H   UNL     1      -9.054  -7.606  19.137  0.00  0.00    +0.000 HD
ENDBRANCH   6  33
BRANCH   7  35
ATOM     35  O   UNL     1     -11.217  -7.149  18.581  0.00  0.00    +0.000 OA
ATOM     36  H   UNL     1     -10.811  -7.501  19.401  0.00  0.00    +0.000 HD
ENDBRANCH   7  35
BRANCH  13  37
ATOM     37  O   UNL     1     -11.708   1.445  16.212  0.00  0.00    +0.000 OA
ATOM     38  H   UNL     1     -11.459   1.968  16.993  0.00  0.00    +0.000 HD
ENDBRANCH  13  37
BRANCH  14  39
ATOM     39  O   UNL     1     -11.672   0.445  18.743  0.00  0.00    +0.000 OA
ATOM     40  H   UNL     1     -12.571   0.092  18.889  0.00  0.00    +0.000 HD
ENDBRANCH  14  39
TORSDOF 6
ENDMDL
