
 OpenBabel01112422163D

 62 69  0  0  1  0  0  0  0  0999 V2000
    4.3109   -1.4262    1.0461 C   0  0  0  0  0  0  0  0  0  0  0  0
    2.9076   -1.6323    0.7165 N   0  0  0  0  0  0  0  0  0  0  0  0
    2.4144   -0.6865   -0.3039 C   0  0  1  0  0  0  0  0  0  0  0  0
    0.9639   -1.0341   -0.5969 C   0  0  0  0  0  0  0  0  0  0  0  0
    0.3322   -0.0888   -1.6059 C   0  0  2  0  0  0  0  0  0  0  0  0
    1.1644    0.9653   -2.0592 O   0  0  0  0  0  0  0  0  0  0  0  0
    1.8565    1.7348   -1.0572 C   0  0  2  0  0  0  0  0  0  0  0  0
    2.8977    2.4732   -1.9439 C   0  0  0  0  0  0  0  0  0  0  0  0
    2.6277    0.8325   -0.0306 C   0  0  1  0  0  0  0  0  0  0  0  0
    2.6397    1.2493    1.3444 O   0  0  0  0  0  0  0  0  0  0  0  0
    1.4543    1.1631    2.1126 C   0  0  0  0  0  0  0  0  0  0  0  0
    0.9358    2.6980   -0.4784 N   0  0  0  0  0  0  0  0  0  0  0  0
    1.1927    4.0077   -0.0005 C   0  0  0  0  0  0  0  0  0  0  0  0
    2.4130    4.6511    0.2659 C   0  0  0  0  0  0  0  0  0  0  0  0
    2.4268    6.0349    0.4448 C   0  0  0  0  0  0  0  0  0  0  0  0
    1.2523    6.7718    0.4008 C   0  0  0  0  0  0  0  0  0  0  0  0
    0.0154    6.1239    0.3631 C   0  0  0  0  0  0  0  0  0  0  0  0
   -0.0360    4.7206    0.2521 C   0  0  0  0  0  0  0  0  0  0  0  0
   -1.0390    3.7472    0.3402 C   0  0  0  0  0  0  0  0  0  0  0  0
   -2.3196    3.8792    0.9137 C   0  0  0  0  0  0  0  0  0  0  0  0
   -3.0862    2.6989    0.8365 C   0  0  0  0  0  0  0  0  0  0  0  0
   -2.5184    1.7066    0.0276 C   0  0  0  0  0  0  0  0  0  0  0  0
   -3.2048    0.7920   -0.7870 C   0  0  0  0  0  0  0  0  0  0  0  0
   -4.5234    0.6753   -1.2688 C   0  0  0  0  0  0  0  0  0  0  0  0
   -4.8712   -0.4223   -2.0572 C   0  0  0  0  0  0  0  0  0  0  0  0
   -3.9603   -1.4509   -2.2778 C   0  0  0  0  0  0  0  0  0  0  0  0
   -2.6171   -1.3194   -1.9118 C   0  0  0  0  0  0  0  0  0  0  0  0
   -2.2150   -0.1196   -1.3048 C   0  0  0  0  0  0  0  0  0  0  0  0
   -0.9256    0.4287   -1.1401 N   0  0  0  0  0  0  0  0  0  0  0  0
   -1.2155    1.5390   -0.4305 C   0  0  0  0  0  0  0  0  0  0  0  0
   -0.3919    2.6258   -0.2214 C   0  0  0  0  0  0  0  0  0  0  0  0
   -4.0538    2.6687    1.8831 C   0  0  0  0  0  0  0  0  0  0  0  0
   -4.7490    1.7811    2.3571 O   0  0  0  0  0  0  0  0  0  0  0  0
   -3.9286    3.9300    2.4614 N   0  0  0  0  0  0  0  0  0  0  0  0
   -2.9075    4.7911    1.9072 C   0  0  1  0  0  0  0  0  0  0  0  0
   -2.0504    5.1293    2.9594 O   0  0  0  0  0  0  0  0  0  0  0  0
    4.9342   -1.3727    0.1477 H   0  0  0  0  0  0  0  0  0  0  0  0
    4.4545   -0.5209    1.6413 H   0  0  0  0  0  0  0  0  0  0  0  0
    4.6651   -2.2659    1.6513 H   0  0  0  0  0  0  0  0  0  0  0  0
    2.7846   -2.5885    0.3808 H   0  0  0  0  0  0  0  0  0  0  0  0
    2.9603   -0.9063   -1.2344 H   0  0  0  0  0  0  0  0  0  0  0  0
    0.9090   -2.0527   -1.0084 H   0  0  0  0  0  0  0  0  0  0  0  0
    0.3683   -1.0849    0.3217 H   0  0  0  0  0  0  0  0  0  0  0  0
    0.0977   -0.6615   -2.5121 H   0  0  0  0  0  0  0  0  0  0  0  0
    3.3573    1.7878   -2.6656 H   0  0  0  0  0  0  0  0  0  0  0  0
    3.7114    2.9169   -1.3649 H   0  0  0  0  0  0  0  0  0  0  0  0
    2.4266    3.2708   -2.5318 H   0  0  0  0  0  0  0  0  0  0  0  0
    3.6919    0.9623   -0.2733 H   0  0  0  0  0  0  0  0  0  0  0  0
    0.9286    2.1188    2.1070 H   0  0  0  0  0  0  0  0  0  0  0  0
    0.7851    0.3628    1.8018 H   0  0  0  0  0  0  0  0  0  0  0  0
    1.7379    0.9912    3.1539 H   0  0  0  0  0  0  0  0  0  0  0  0
    3.3408    4.0949    0.3376 H   0  0  0  0  0  0  0  0  0  0  0  0
    3.3762    6.5414    0.5987 H   0  0  0  0  0  0  0  0  0  0  0  0
    1.2954    7.8569    0.4390 H   0  0  0  0  0  0  0  0  0  0  0  0
   -0.8979    6.7118    0.3840 H   0  0  0  0  0  0  0  0  0  0  0  0
   -5.2361    1.4770   -1.1000 H   0  0  0  0  0  0  0  0  0  0  0  0
   -5.8677   -0.4769   -2.4863 H   0  0  0  0  0  0  0  0  0  0  0  0
   -4.2883   -2.3515   -2.7916 H   0  0  0  0  0  0  0  0  0  0  0  0
   -1.9087   -2.1089   -2.1434 H   0  0  0  0  0  0  0  0  0  0  0  0
   -4.4551    4.1576    3.2901 H   0  0  0  0  0  0  0  0  0  0  0  0
   -3.3806    5.6675    1.4621 H   0  0  0  0  0  0  0  0  0  0  0  0
   -1.7814    4.2897    3.3666 H   0  0  0  0  0  0  0  0  0  0  0  0
  1  2  1  0  0  0  0
  1 37  1  0  0  0  0
  1 38  1  0  0  0  0
  1 39  1  0  0  0  0
  2  3  1  0  0  0  0
  2 40  1  0  0  0  0
  3  4  1  0  0  0  0
  3  9  1  0  0  0  0
  3 41  1  6  0  0  0
  4  5  1  0  0  0  0
  4 42  1  0  0  0  0
  4 43  1  0  0  0  0
  5  6  1  0  0  0  0
  5 29  1  0  0  0  0
  5 44  1  6  0  0  0
  6  7  1  0  0  0  0
  7  8  1  6  0  0  0
  7  9  1  0  0  0  0
  7 12  1  0  0  0  0
  8 45  1  0  0  0  0
  8 46  1  0  0  0  0
  8 47  1  0  0  0  0
  9 10  1  0  0  0  0
  9 48  1  6  0  0  0
 10 11  1  0  0  0  0
 11 49  1  0  0  0  0
 11 50  1  0  0  0  0
 11 51  1  0  0  0  0
 12 13  1  0  0  0  0
 12 31  1  0  0  0  0
 13 14  1  0  0  0  0
 13 18  2  0  0  0  0
 14 15  2  0  0  0  0
 14 52  1  0  0  0  0
 15 16  1  0  0  0  0
 15 53  1  0  0  0  0
 16 17  2  0  0  0  0
 16 54  1  0  0  0  0
 17 18  1  0  0  0  0
 17 55  1  0  0  0  0
 18 19  1  0  0  0  0
 19 20  1  0  0  0  0
 19 31  2  0  0  0  0
 20 21  2  0  0  0  0
 20 35  1  0  0  0  0
 21 22  1  0  0  0  0
 21 32  1  0  0  0  0
 22 23  1  0  0  0  0
 22 30  2  0  0  0  0
 23 24  1  0  0  0  0
 23 28  2  0  0  0  0
 24 25  2  0  0  0  0
 24 56  1  0  0  0  0
 25 26  1  0  0  0  0
 25 57  1  0  0  0  0
 26 27  2  0  0  0  0
 26 58  1  0  0  0  0
 27 28  1  0  0  0  0
 27 59  1  0  0  0  0
 28 29  1  0  0  0  0
 29 30  1  0  0  0  0
 30 31  1  0  0  0  0
 32 33  2  0  0  0  0
 32 34  1  0  0  0  0
 34 35  1  0  0  0  0
 34 60  1  0  0  0  0
 35 36  1  0  0  0  0
 35 61  1  6  0  0  0
 36 62  1  0  0  0  0
M  END
$$$$
