MODEL 1
REMARK VINA RESULT:   -11.566      0.000      0.000
REMARK INTER + INTRA:         -19.990
REMARK INTER:                 -18.666
REMARK INTRA:                  -1.324
REMARK UNBOUND:                -1.324
REMARK  Name = 
REMARK  13 active torsions:
REMARK  status: ('A' for Active; 'I' for Inactive)
REMARK    1  A    between atoms: C_2  and  C_37
REMARK    2  A    between atoms: N_3  and  C_4
REMARK    3  A    between atoms: C_13  and  O_14
REMARK    4  A    between atoms: O_14  and  C_15
REMARK    5  A    between atoms: C_15  and  C_17
REMARK    6  A    between atoms: C_19  and  O_20
REMARK    7  A    between atoms: C_21  and  C_22
REMARK    8  A    between atoms: C_22  and  C_24
REMARK    9  A    between atoms: C_25  and  O_26
REMARK   10  A    between atoms: C_30  and  C_31
REMARK   11  A    between atoms: C_31  and  O_33
REMARK   12  A    between atoms: C_34  and  O_35
REMARK   13  A    between atoms: C_40  and  O_41
REMARK                            x       y       z     vdW  Elec       q    Type
REMARK                         _______ _______ _______ _____ _____    ______ ____
ROOT
ATOM      1  C   UNL     1      -7.904  -2.673  20.648  0.00  0.00    +0.000 C 
ATOM      2  C   UNL     1      -7.513  -1.978  22.016  0.00  0.00    +0.000 C 
ATOM      3  C   UNL     1      -6.998  -3.117  22.955  0.00  0.00    +0.000 C 
ATOM      4  C   UNL     1      -8.202  -4.023  22.652  0.00  0.00    +0.000 C 
ATOM      5  C   UNL     1      -9.243  -2.987  23.292  0.00  0.00    +0.000 C 
ATOM      6  C   UNL     1     -10.176  -2.565  24.449  0.00  0.00    +0.000 C 
ATOM      7  C   UNL     1      -9.488  -1.291  25.040  0.00  0.00    +0.000 C 
ATOM      8  C   UNL     1      -8.653  -0.666  23.922  0.00  0.00    +0.000 C 
ATOM      9  C   UNL     1      -8.799  -1.609  22.735  0.00  0.00    +0.000 C 
ATOM     10  C   UNL     1      -7.871  -4.138  21.098  0.00  0.00    +0.000 C 
ATOM     11  H   UNL     1      -7.124  -2.451  19.914  0.00  0.00    +0.000 HD
ATOM     12  H   UNL     1      -6.771  -1.185  21.907  0.00  0.00    +0.000 HD
ATOM     13  H   UNL     1      -6.870  -2.837  24.008  0.00  0.00    +0.000 HD
ATOM     14  H   UNL     1      -6.062  -3.571  22.729  0.00  0.00    +0.000 HD
ATOM     15  H   UNL     1      -8.255  -5.014  23.113  0.00  0.00    +0.000 HD
ATOM     16  H   UNL     1      -8.655  -3.241  24.196  0.00  0.00    +0.000 HD
ATOM     17  H   UNL     1     -10.272  -3.326  25.238  0.00  0.00    +0.000 HD
ATOM     18  H   UNL     1     -11.186  -2.324  24.109  0.00  0.00    +0.000 HD
ATOM     19  H   UNL     1      -8.805  -1.570  25.857  0.00  0.00    +0.000 HD
ATOM     20  H   UNL     1     -10.205  -0.579  25.458  0.00  0.00    +0.000 HD
ATOM     21  H   UNL     1      -7.608  -0.527  24.227  0.00  0.00    +0.000 HD
ATOM     22  H   UNL     1      -9.028   0.332  23.662  0.00  0.00    +0.000 HD
ATOM     23  H   UNL     1      -9.543  -1.175  22.061  0.00  0.00    +0.000 HD
ATOM     24  H   UNL     1      -8.508  -4.808  20.509  0.00  0.00    +0.000 HD
ENDROOT
BRANCH   1  27
ATOM     25  O   UNL     1      -8.686  -0.200  19.481  0.00  0.00    +0.000 OA
ATOM     26  C   UNL     1      -9.430  -1.182  19.324  0.00  0.00    +0.000 C 
ATOM     27  N   UNL     1      -9.194  -2.374  19.976  0.00  0.00    +0.000 N 
ATOM     28  H   UNL     1      -9.707  -3.171  19.632  0.00  0.00    +0.000 HD
BRANCH  26  29
ATOM     29  C   UNL     1     -10.603  -1.087  18.386  0.00  0.00    +0.000 A 
ATOM     30  C   UNL     1     -11.106  -2.288  17.843  0.00  0.00    +0.000 A 
ATOM     31  C   UNL     1     -12.176  -2.295  16.941  0.00  0.00    +0.000 A 
ATOM     32  C   UNL     1     -12.761  -1.092  16.567  0.00  0.00    +0.000 A 
ATOM     33  C   UNL     1     -12.306   0.107  17.106  0.00  0.00    +0.000 A 
ATOM     34  C   UNL     1     -11.227   0.114  18.010  0.00  0.00    +0.000 A 
ATOM     35  H   UNL     1     -10.658  -3.240  18.129  0.00  0.00    +0.000 HD
ATOM     36  H   UNL     1     -12.535  -3.240  16.544  0.00  0.00    +0.000 HD
ATOM     37  H   UNL     1     -12.780   1.040  16.808  0.00  0.00    +0.000 HD
ATOM     38  H   UNL     1     -10.899   1.074  18.386  0.00  0.00    +0.000 HD
BRANCH  32  39
ATOM     39  O   UNL     1     -13.782  -1.043  15.667  0.00  0.00    +0.000 OA
ATOM     40  H   UNL     1     -14.359  -1.814  15.803  0.00  0.00    +0.000 HD
ENDBRANCH  32  39
ENDBRANCH  26  29
ENDBRANCH   1  27
BRANCH  10  41
ATOM     41  O   UNL     1      -6.421  -4.433  20.812  0.00  0.00    +0.000 OA
BRANCH  41  42
ATOM     42  C   UNL     1      -6.037  -5.551  20.171  0.00  0.00    +0.000 C 
ATOM     43  O   UNL     1      -4.873  -5.895  20.023  0.00  0.00    +0.000 OA
BRANCH  42  44
ATOM     44  C   UNL     1      -7.210  -6.187  19.421  0.00  0.00    +0.000 A 
ATOM     45  C   UNL     1      -7.433  -6.083  18.039  0.00  0.00    +0.000 A 
ATOM     46  C   UNL     1      -8.277  -7.009  17.384  0.00  0.00    +0.000 A 
ATOM     47  C   UNL     1      -8.957  -8.013  18.103  0.00  0.00    +0.000 A 
ATOM     48  C   UNL     1      -8.762  -8.064  19.492  0.00  0.00    +0.000 A 
ATOM     49  C   UNL     1      -7.927  -7.155  20.148  0.00  0.00    +0.000 A 
ATOM     50  H   UNL     1      -6.866  -5.363  17.445  0.00  0.00    +0.000 HD
ATOM     51  H   UNL     1      -7.762  -7.254  21.213  0.00  0.00    +0.000 HD
BRANCH  46  52
ATOM     52  O   UNL     1      -8.410  -6.955  16.021  0.00  0.00    +0.000 OA
ATOM     53  H   UNL     1      -7.549  -6.835  15.589  0.00  0.00    +0.000 HD
ENDBRANCH  46  52
BRANCH  47  54
ATOM     54  C   UNL     1      -9.785  -9.047  17.381  0.00  0.00    +0.000 C 
ATOM     55  O   UNL     1     -10.942  -8.779  17.088  0.00  0.00    +0.000 OA
BRANCH  54  56
ATOM     56  C   UNL     1      -9.207 -10.323  16.829  0.00  0.00    +0.000 A 
ATOM     57  C   UNL     1      -8.827 -11.302  17.784  0.00  0.00    +0.000 A 
ATOM     58  C   UNL     1      -8.327 -12.549  17.403  0.00  0.00    +0.000 A 
ATOM     59  C   UNL     1      -8.178 -12.861  16.060  0.00  0.00    +0.000 A 
ATOM     60  C   UNL     1      -8.528 -11.916  15.097  0.00  0.00    +0.000 A 
ATOM     61  C   UNL     1      -9.048 -10.652  15.466  0.00  0.00    +0.000 A 
ATOM     62  H   UNL     1      -8.037 -13.270  18.166  0.00  0.00    +0.000 HD
ATOM     63  H   UNL     1      -7.768 -13.825  15.766  0.00  0.00    +0.000 HD
ATOM     64  H   UNL     1      -8.353 -12.164  14.050  0.00  0.00    +0.000 HD
BRANCH  57  65
ATOM     65  O   UNL     1      -8.936 -11.117  19.135  0.00  0.00    +0.000 OA
ATOM     66  H   UNL     1      -9.018 -10.148  19.306  0.00  0.00    +0.000 HD
ENDBRANCH  57  65
BRANCH  61  67
ATOM     67  C   UNL     1      -9.322  -9.696  14.372  0.00  0.00    +0.000 C 
ATOM     68  O   UNL     1      -8.660  -8.693  14.186  0.00  0.00    +0.000 OA
BRANCH  67  69
ATOM     69  O   UNL     1     -10.369 -10.043  13.591  0.00  0.00    +0.000 OA
ATOM     70  H   UNL     1     -10.766  -9.332  13.055  0.00  0.00    +0.000 HD
ENDBRANCH  67  69
ENDBRANCH  61  67
ENDBRANCH  54  56
ENDBRANCH  47  54
BRANCH  48  71
ATOM     71  O   UNL     1      -9.316  -9.020  20.305  0.00  0.00    +0.000 OA
ATOM     72  H   UNL     1     -10.198  -8.731  20.599  0.00  0.00    +0.000 HD
ENDBRANCH  48  71
ENDBRANCH  42  44
ENDBRANCH  41  42
ENDBRANCH  10  41
TORSDOF 13
ENDMDL
MODEL 2
REMARK VINA RESULT:   -11.345      2.273      5.277
REMARK INTER + INTRA:         -19.633
REMARK INTER:                 -18.073
REMARK INTRA:                  -1.560
REMARK UNBOUND:                -1.324
REMARK  Name = 
REMARK  13 active torsions:
REMARK  status: ('A' for Active; 'I' for Inactive)
REMARK    1  A    between atoms: C_2  and  C_37
REMARK    2  A    between atoms: N_3  and  C_4
REMARK    3  A    between atoms: C_13  and  O_14
REMARK    4  A    between atoms: O_14  and  C_15
REMARK    5  A    between atoms: C_15  and  C_17
REMARK    6  A    between atoms: C_19  and  O_20
REMARK    7  A    between atoms: C_21  and  C_22
REMARK    8  A    between atoms: C_22  and  C_24
REMARK    9  A    between atoms: C_25  and  O_26
REMARK   10  A    between atoms: C_30  and  C_31
REMARK   11  A    between atoms: C_31  and  O_33
REMARK   12  A    between atoms: C_34  and  O_35
REMARK   13  A    between atoms: C_40  and  O_41
REMARK                            x       y       z     vdW  Elec       q    Type
REMARK                         _______ _______ _______ _____ _____    ______ ____
ROOT
ATOM      1  C   UNL     1     -10.392  -3.166  18.114  0.00  0.00    +0.000 C 
ATOM      2  C   UNL     1     -11.384  -2.079  18.694  0.00  0.00    +0.000 C 
ATOM      3  C   UNL     1     -11.864  -1.226  17.474  0.00  0.00    +0.000 C 
ATOM      4  C   UNL     1     -10.435  -1.031  16.945  0.00  0.00    +0.000 C 
ATOM      5  C   UNL     1      -9.978  -0.218  18.248  0.00  0.00    +0.000 C 
ATOM      6  C   UNL     1      -9.631   1.118  18.941  0.00  0.00    +0.000 C 
ATOM      7  C   UNL     1     -10.786   1.315  19.976  0.00  0.00    +0.000 C 
ATOM      8  C   UNL     1     -11.334  -0.072  20.315  0.00  0.00    +0.000 C 
ATOM      9  C   UNL     1     -10.558  -1.038  19.430  0.00  0.00    +0.000 C 
ATOM     10  C   UNL     1     -10.186  -2.587  16.709  0.00  0.00    +0.000 C 
ATOM     11  H   UNL     1     -10.912  -4.128  18.089  0.00  0.00    +0.000 HD
ATOM     12  H   UNL     1     -12.229  -2.504  19.240  0.00  0.00    +0.000 HD
ATOM     13  H   UNL     1     -12.405  -0.305  17.726  0.00  0.00    +0.000 HD
ATOM     14  H   UNL     1     -12.516  -1.682  16.767  0.00  0.00    +0.000 HD
ATOM     15  H   UNL     1     -10.279  -0.468  16.019  0.00  0.00    +0.000 HD
ATOM     16  H   UNL     1     -10.745   0.478  17.854  0.00  0.00    +0.000 HD
ATOM     17  H   UNL     1      -9.606   1.978  18.255  0.00  0.00    +0.000 HD
ATOM     18  H   UNL     1      -8.666   1.088  19.455  0.00  0.00    +0.000 HD
ATOM     19  H   UNL     1     -11.603   1.902  19.530  0.00  0.00    +0.000 HD
ATOM     20  H   UNL     1     -10.464   1.854  20.872  0.00  0.00    +0.000 HD
ATOM     21  H   UNL     1     -12.418  -0.129  20.155  0.00  0.00    +0.000 HD
ATOM     22  H   UNL     1     -11.171  -0.312  21.373  0.00  0.00    +0.000 HD
ATOM     23  H   UNL     1      -9.774  -1.489  20.045  0.00  0.00    +0.000 HD
ATOM     24  H   UNL     1      -9.236  -2.866  16.238  0.00  0.00    +0.000 HD
ENDROOT
BRANCH   1  27
ATOM     25  O   UNL     1      -9.599  -5.540  19.464  0.00  0.00    +0.000 OA
ATOM     26  C   UNL     1      -8.741  -4.662  19.274  0.00  0.00    +0.000 C 
ATOM     27  N   UNL     1      -9.079  -3.429  18.756  0.00  0.00    +0.000 N 
ATOM     28  H   UNL     1      -8.309  -2.863  18.433  0.00  0.00    +0.000 HD
BRANCH  26  29
ATOM     29  C   UNL     1      -7.298  -4.948  19.587  0.00  0.00    +0.000 A 
ATOM     30  C   UNL     1      -6.703  -4.230  20.647  0.00  0.00    +0.000 A 
ATOM     31  C   UNL     1      -5.359  -4.410  20.992  0.00  0.00    +0.000 A 
ATOM     32  C   UNL     1      -4.586  -5.316  20.277  0.00  0.00    +0.000 A 
ATOM     33  C   UNL     1      -5.149  -6.058  19.245  0.00  0.00    +0.000 A 
ATOM     34  C   UNL     1      -6.501  -5.874  18.894  0.00  0.00    +0.000 A 
ATOM     35  H   UNL     1      -7.298  -3.518  21.219  0.00  0.00    +0.000 HD
ATOM     36  H   UNL     1      -4.937  -3.839  21.814  0.00  0.00    +0.000 HD
ATOM     37  H   UNL     1      -4.532  -6.769  18.699  0.00  0.00    +0.000 HD
ATOM     38  H   UNL     1      -6.886  -6.462  18.072  0.00  0.00    +0.000 HD
BRANCH  32  39
ATOM     39  O   UNL     1      -3.265  -5.502  20.552  0.00  0.00    +0.000 OA
ATOM     40  H   UNL     1      -3.012  -4.918  21.287  0.00  0.00    +0.000 HD
ENDBRANCH  32  39
ENDBRANCH  26  29
ENDBRANCH   1  27
BRANCH  10  41
ATOM     41  O   UNL     1     -11.325  -3.279  16.007  0.00  0.00    +0.000 OA
BRANCH  41  42
ATOM     42  C   UNL     1     -11.121  -4.104  14.965  0.00  0.00    +0.000 C 
ATOM     43  O   UNL     1     -11.498  -3.880  13.823  0.00  0.00    +0.000 OA
BRANCH  42  44
ATOM     44  C   UNL     1     -10.605  -5.467  15.433  0.00  0.00    +0.000 A 
ATOM     45  C   UNL     1      -9.260  -5.866  15.419  0.00  0.00    +0.000 A 
ATOM     46  C   UNL     1      -8.830  -6.946  16.224  0.00  0.00    +0.000 A 
ATOM     47  C   UNL     1      -9.743  -7.680  17.008  0.00  0.00    +0.000 A 
ATOM     48  C   UNL     1     -11.093  -7.298  16.964  0.00  0.00    +0.000 A 
ATOM     49  C   UNL     1     -11.526  -6.230  16.174  0.00  0.00    +0.000 A 
ATOM     50  H   UNL     1      -8.518  -5.273  14.879  0.00  0.00    +0.000 HD
ATOM     51  H   UNL     1     -12.566  -5.932  16.202  0.00  0.00    +0.000 HD
BRANCH  46  52
ATOM     52  O   UNL     1      -7.498  -7.263  16.275  0.00  0.00    +0.000 OA
ATOM     53  H   UNL     1      -7.256  -7.627  17.142  0.00  0.00    +0.000 HD
ENDBRANCH  46  52
BRANCH  47  54
ATOM     54  C   UNL     1      -9.259  -8.774  17.929  0.00  0.00    +0.000 C 
ATOM     55  O   UNL     1      -9.243  -8.568  19.134  0.00  0.00    +0.000 OA
BRANCH  54  56
ATOM     56  C   UNL     1      -8.976 -10.176  17.460  0.00  0.00    +0.000 A 
ATOM     57  C   UNL     1      -8.567 -11.099  18.458  0.00  0.00    +0.000 A 
ATOM     58  C   UNL     1      -8.325 -12.442  18.164  0.00  0.00    +0.000 A 
ATOM     59  C   UNL     1      -8.470 -12.912  16.868  0.00  0.00    +0.000 A 
ATOM     60  C   UNL     1      -8.855 -12.028  15.861  0.00  0.00    +0.000 A 
ATOM     61  C   UNL     1      -9.117 -10.666  16.143  0.00  0.00    +0.000 A 
ATOM     62  H   UNL     1      -8.004 -13.118  18.956  0.00  0.00    +0.000 HD
ATOM     63  H   UNL     1      -8.259 -13.954  16.637  0.00  0.00    +0.000 HD
ATOM     64  H   UNL     1      -8.911 -12.408  14.841  0.00  0.00    +0.000 HD
BRANCH  57  65
ATOM     65  O   UNL     1      -8.400 -10.760  19.773  0.00  0.00    +0.000 OA
ATOM     66  H   UNL     1      -8.267 -11.591  20.289  0.00  0.00    +0.000 HD
ENDBRANCH  57  65
BRANCH  61  67
ATOM     67  C   UNL     1      -9.451  -9.796  14.994  0.00  0.00    +0.000 C 
ATOM     68  O   UNL     1      -8.607  -9.271  14.292  0.00  0.00    +0.000 OA
BRANCH  67  69
ATOM     69  O   UNL     1     -10.778  -9.647  14.789  0.00  0.00    +0.000 OA
ATOM     70  H   UNL     1     -11.204  -8.892  15.237  0.00  0.00    +0.000 HD
ENDBRANCH  67  69
ENDBRANCH  61  67
ENDBRANCH  54  56
ENDBRANCH  47  54
BRANCH  48  71
ATOM     71  O   UNL     1     -12.078  -7.888  17.716  0.00  0.00    +0.000 OA
ATOM     72  H   UNL     1     -12.950  -7.570  17.423  0.00  0.00    +0.000 HD
ENDBRANCH  48  71
ENDBRANCH  42  44
ENDBRANCH  41  42
ENDBRANCH  10  41
TORSDOF 13
ENDMDL
MODEL 3
REMARK VINA RESULT:   -11.278      2.623      8.918
REMARK INTER + INTRA:         -19.525
REMARK INTER:                 -16.432
REMARK INTRA:                  -3.092
REMARK UNBOUND:                -1.324
REMARK  Name = 
REMARK  13 active torsions:
REMARK  status: ('A' for Active; 'I' for Inactive)
REMARK    1  A    between atoms: C_2  and  C_37
REMARK    2  A    between atoms: N_3  and  C_4
REMARK    3  A    between atoms: C_13  and  O_14
REMARK    4  A    between atoms: O_14  and  C_15
REMARK    5  A    between atoms: C_15  and  C_17
REMARK    6  A    between atoms: C_19  and  O_20
REMARK    7  A    between atoms: C_21  and  C_22
REMARK    8  A    between atoms: C_22  and  C_24
REMARK    9  A    between atoms: C_25  and  O_26
REMARK   10  A    between atoms: C_30  and  C_31
REMARK   11  A    between atoms: C_31  and  O_33
REMARK   12  A    between atoms: C_34  and  O_35
REMARK   13  A    between atoms: C_40  and  O_41
REMARK                            x       y       z     vdW  Elec       q    Type
REMARK                         _______ _______ _______ _____ _____    ______ ____
ROOT
ATOM      1  C   UNL     1     -10.085  -6.154  18.010  0.00  0.00    +0.000 C 
ATOM      2  C   UNL     1     -10.136  -7.735  17.941  0.00  0.00    +0.000 C 
ATOM      3  C   UNL     1      -8.668  -8.230  18.148  0.00  0.00    +0.000 C 
ATOM      4  C   UNL     1      -8.103  -7.246  17.113  0.00  0.00    +0.000 C 
ATOM      5  C   UNL     1      -8.920  -7.918  15.910  0.00  0.00    +0.000 C 
ATOM      6  C   UNL     1      -8.962  -8.818  14.655  0.00  0.00    +0.000 C 
ATOM      7  C   UNL     1      -9.810 -10.052  15.106  0.00  0.00    +0.000 C 
ATOM      8  C   UNL     1     -10.720  -9.587  16.242  0.00  0.00    +0.000 C 
ATOM      9  C   UNL     1     -10.343  -8.132  16.490  0.00  0.00    +0.000 C 
ATOM     10  C   UNL     1      -8.568  -5.952  17.919  0.00  0.00    +0.000 C 
ATOM     11  H   UNL     1     -10.484  -5.839  18.979  0.00  0.00    +0.000 HD
ATOM     12  H   UNL     1     -10.814  -8.183  18.670  0.00  0.00    +0.000 HD
ATOM     13  H   UNL     1      -8.495  -9.293  17.934  0.00  0.00    +0.000 HD
ATOM     14  H   UNL     1      -8.231  -8.123  19.113  0.00  0.00    +0.000 HD
ATOM     15  H   UNL     1      -7.024  -7.222  16.929  0.00  0.00    +0.000 HD
ATOM     16  H   UNL     1      -8.264  -8.768  16.186  0.00  0.00    +0.000 HD
ATOM     17  H   UNL     1      -7.969  -9.160  14.324  0.00  0.00    +0.000 HD
ATOM     18  H   UNL     1      -9.434  -8.328  13.800  0.00  0.00    +0.000 HD
ATOM     19  H   UNL     1      -9.154 -10.843  15.500  0.00  0.00    +0.000 HD
ATOM     20  H   UNL     1     -10.380 -10.496  14.285  0.00  0.00    +0.000 HD
ATOM     21  H   UNL     1     -10.603 -10.212  17.137  0.00  0.00    +0.000 HD
ATOM     22  H   UNL     1     -11.777  -9.661  15.956  0.00  0.00    +0.000 HD
ATOM     23  H   UNL     1     -11.091  -7.510  15.991  0.00  0.00    +0.000 HD
ATOM     24  H   UNL     1      -8.264  -4.982  17.507  0.00  0.00    +0.000 HD
ENDROOT
BRANCH   1  27
ATOM     25  O   UNL     1     -11.678  -3.849  18.495  0.00  0.00    +0.000 OA
ATOM     26  C   UNL     1     -11.418  -4.141  17.317  0.00  0.00    +0.000 C 
ATOM     27  N   UNL     1     -10.775  -5.318  16.994  0.00  0.00    +0.000 N 
ATOM     28  H   UNL     1     -10.412  -5.377  16.056  0.00  0.00    +0.000 HD
BRANCH  26  29
ATOM     29  C   UNL     1     -11.785  -3.188  16.213  0.00  0.00    +0.000 A 
ATOM     30  C   UNL     1     -12.525  -2.037  16.560  0.00  0.00    +0.000 A 
ATOM     31  C   UNL     1     -12.934  -1.109  15.595  0.00  0.00    +0.000 A 
ATOM     32  C   UNL     1     -12.606  -1.320  14.262  0.00  0.00    +0.000 A 
ATOM     33  C   UNL     1     -11.855  -2.430  13.892  0.00  0.00    +0.000 A 
ATOM     34  C   UNL     1     -11.447  -3.366  14.861  0.00  0.00    +0.000 A 
ATOM     35  H   UNL     1     -12.787  -1.857  17.602  0.00  0.00    +0.000 HD
ATOM     36  H   UNL     1     -13.502  -0.235  15.901  0.00  0.00    +0.000 HD
ATOM     37  H   UNL     1     -11.599  -2.577  12.844  0.00  0.00    +0.000 HD
ATOM     38  H   UNL     1     -10.880  -4.222  14.519  0.00  0.00    +0.000 HD
BRANCH  32  39
ATOM     39  O   UNL     1     -13.009  -0.464  13.283  0.00  0.00    +0.000 OA
ATOM     40  H   UNL     1     -13.862  -0.073  13.539  0.00  0.00    +0.000 HD
ENDBRANCH  32  39
ENDBRANCH  26  29
ENDBRANCH   1  27
BRANCH  10  41
ATOM     41  O   UNL     1      -8.241  -6.008  19.387  0.00  0.00    +0.000 OA
BRANCH  41  42
ATOM     42  C   UNL     1      -7.261  -5.260  19.926  0.00  0.00    +0.000 C 
ATOM     43  O   UNL     1      -6.092  -5.610  20.008  0.00  0.00    +0.000 OA
BRANCH  42  44
ATOM     44  C   UNL     1      -7.835  -4.046  20.660  0.00  0.00    +0.000 A 
ATOM     45  C   UNL     1      -8.797  -3.169  20.135  0.00  0.00    +0.000 A 
ATOM     46  C   UNL     1      -9.553  -2.343  20.999  0.00  0.00    +0.000 A 
ATOM     47  C   UNL     1      -9.322  -2.336  22.389  0.00  0.00    +0.000 A 
ATOM     48  C   UNL     1      -8.317  -3.180  22.886  0.00  0.00    +0.000 A 
ATOM     49  C   UNL     1      -7.567  -4.002  22.041  0.00  0.00    +0.000 A 
ATOM     50  H   UNL     1      -9.049  -3.204  19.072  0.00  0.00    +0.000 HD
ATOM     51  H   UNL     1      -6.834  -4.677  22.463  0.00  0.00    +0.000 HD
BRANCH  46  52
ATOM     52  O   UNL     1     -10.554  -1.563  20.482  0.00  0.00    +0.000 OA
ATOM     53  H   UNL     1     -11.268  -2.107  20.111  0.00  0.00    +0.000 HD
ENDBRANCH  46  52
BRANCH  47  54
ATOM     54  C   UNL     1     -10.193  -1.516  23.308  0.00  0.00    +0.000 C 
ATOM     55  O   UNL     1     -11.181  -2.036  23.807  0.00  0.00    +0.000 OA
BRANCH  54  56
ATOM     56  C   UNL     1      -9.807  -0.146  23.800  0.00  0.00    +0.000 A 
ATOM     57  C   UNL     1      -9.174  -0.092  25.069  0.00  0.00    +0.000 A 
ATOM     58  C   UNL     1      -8.719   1.110  25.615  0.00  0.00    +0.000 A 
ATOM     59  C   UNL     1      -8.888   2.300  24.924  0.00  0.00    +0.000 A 
ATOM     60  C   UNL     1      -9.520   2.283  23.681  0.00  0.00    +0.000 A 
ATOM     61  C   UNL     1      -9.976   1.072  23.107  0.00  0.00    +0.000 A 
ATOM     62  H   UNL     1      -8.246   1.112  26.596  0.00  0.00    +0.000 HD
ATOM     63  H   UNL     1      -8.553   3.238  25.361  0.00  0.00    +0.000 HD
ATOM     64  H   UNL     1      -9.688   3.237  23.181  0.00  0.00    +0.000 HD
BRANCH  57  65
ATOM     65  O   UNL     1      -8.941  -1.197  25.841  0.00  0.00    +0.000 OA
ATOM     66  H   UNL     1      -8.092  -1.059  26.325  0.00  0.00    +0.000 HD
ENDBRANCH  57  65
BRANCH  61  67
ATOM     67  C   UNL     1     -10.695   1.171  21.819  0.00  0.00    +0.000 C 
ATOM     68  O   UNL     1     -11.904   1.075  21.725  0.00  0.00    +0.000 OA
BRANCH  67  69
ATOM     69  O   UNL     1      -9.888   1.389  20.757  0.00  0.00    +0.000 OA
ATOM     70  H   UNL     1      -9.520   0.598  20.322  0.00  0.00    +0.000 HD
ENDBRANCH  67  69
ENDBRANCH  61  67
ENDBRANCH  54  56
ENDBRANCH  47  54
BRANCH  48  71
ATOM     71  O   UNL     1      -8.023  -3.314  24.220  0.00  0.00    +0.000 OA
ATOM     72  H   UNL     1      -8.101  -4.249  24.481  0.00  0.00    +0.000 HD
ENDBRANCH  48  71
ENDBRANCH  42  44
ENDBRANCH  41  42
ENDBRANCH  10  41
TORSDOF 13
ENDMDL
MODEL 4
REMARK VINA RESULT:   -10.878      2.763      9.067
REMARK INTER + INTRA:         -18.879
REMARK INTER:                 -15.725
REMARK INTRA:                  -3.154
REMARK UNBOUND:                -1.324
REMARK  Name = 
REMARK  13 active torsions:
REMARK  status: ('A' for Active; 'I' for Inactive)
REMARK    1  A    between atoms: C_2  and  C_37
REMARK    2  A    between atoms: N_3  and  C_4
REMARK    3  A    between atoms: C_13  and  O_14
REMARK    4  A    between atoms: O_14  and  C_15
REMARK    5  A    between atoms: C_15  and  C_17
REMARK    6  A    between atoms: C_19  and  O_20
REMARK    7  A    between atoms: C_21  and  C_22
REMARK    8  A    between atoms: C_22  and  C_24
REMARK    9  A    between atoms: C_25  and  O_26
REMARK   10  A    between atoms: C_30  and  C_31
REMARK   11  A    between atoms: C_31  and  O_33
REMARK   12  A    between atoms: C_34  and  O_35
REMARK   13  A    between atoms: C_40  and  O_41
REMARK                            x       y       z     vdW  Elec       q    Type
REMARK                         _______ _______ _______ _____ _____    ______ ____
ROOT
ATOM      1  C   UNL     1     -10.097  -6.049  17.973  0.00  0.00    +0.000 C 
ATOM      2  C   UNL     1     -10.171  -7.630  17.956  0.00  0.00    +0.000 C 
ATOM      3  C   UNL     1      -8.717  -8.139  18.225  0.00  0.00    +0.000 C 
ATOM      4  C   UNL     1      -8.106  -7.198  17.175  0.00  0.00    +0.000 C 
ATOM      5  C   UNL     1      -8.896  -7.900  15.971  0.00  0.00    +0.000 C 
ATOM      6  C   UNL     1      -8.913  -8.841  14.746  0.00  0.00    +0.000 C 
ATOM      7  C   UNL     1      -9.794 -10.047  15.211  0.00  0.00    +0.000 C 
ATOM      8  C   UNL     1     -10.731  -9.530  16.303  0.00  0.00    +0.000 C 
ATOM      9  C   UNL     1     -10.339  -8.073  16.513  0.00  0.00    +0.000 C 
ATOM     10  C   UNL     1      -8.576  -5.872  17.922  0.00  0.00    +0.000 C 
ATOM     11  H   UNL     1     -10.520  -5.695  18.919  0.00  0.00    +0.000 HD
ATOM     12  H   UNL     1     -10.877  -8.043  18.678  0.00  0.00    +0.000 HD
ATOM     13  H   UNL     1      -8.554  -9.210  18.052  0.00  0.00    +0.000 HD
ATOM     14  H   UNL     1      -8.308  -8.005  19.199  0.00  0.00    +0.000 HD
ATOM     15  H   UNL     1      -7.021  -7.197  17.024  0.00  0.00    +0.000 HD
ATOM     16  H   UNL     1      -8.262  -8.748  16.295  0.00  0.00    +0.000 HD
ATOM     17  H   UNL     1      -7.916  -9.208  14.458  0.00  0.00    +0.000 HD
ATOM     18  H   UNL     1      -9.352  -8.373  13.861  0.00  0.00    +0.000 HD
ATOM     19  H   UNL     1      -9.163 -10.833  15.651  0.00  0.00    +0.000 HD
ATOM     20  H   UNL     1     -10.346 -10.510  14.388  0.00  0.00    +0.000 HD
ATOM     21  H   UNL     1     -10.651 -10.126  17.221  0.00  0.00    +0.000 HD
ATOM     22  H   UNL     1     -11.780  -9.599  15.987  0.00  0.00    +0.000 HD
ATOM     23  H   UNL     1     -11.062  -7.458  15.971  0.00  0.00    +0.000 HD
ATOM     24  H   UNL     1      -8.244  -4.921  17.489  0.00  0.00    +0.000 HD
ENDROOT
BRANCH   1  27
ATOM     25  O   UNL     1     -11.939  -3.912  18.338  0.00  0.00    +0.000 OA
ATOM     26  C   UNL     1     -11.523  -4.135  17.190  0.00  0.00    +0.000 C 
ATOM     27  N   UNL     1     -10.743  -5.238  16.910  0.00  0.00    +0.000 N 
ATOM     28  H   UNL     1     -10.274  -5.228  16.017  0.00  0.00    +0.000 HD
BRANCH  26  29
ATOM     29  C   UNL     1     -11.850  -3.176  16.078  0.00  0.00    +0.000 A 
ATOM     30  C   UNL     1     -12.578  -2.013  16.409  0.00  0.00    +0.000 A 
ATOM     31  C   UNL     1     -12.951  -1.078  15.437  0.00  0.00    +0.000 A 
ATOM     32  C   UNL     1     -12.597  -1.295  14.111  0.00  0.00    +0.000 A 
ATOM     33  C   UNL     1     -11.856  -2.416  13.757  0.00  0.00    +0.000 A 
ATOM     34  C   UNL     1     -11.485  -3.359  14.734  0.00  0.00    +0.000 A 
ATOM     35  H   UNL     1     -12.861  -1.829  17.446  0.00  0.00    +0.000 HD
ATOM     36  H   UNL     1     -13.512  -0.196  15.731  0.00  0.00    +0.000 HD
ATOM     37  H   UNL     1     -11.580  -2.567  12.715  0.00  0.00    +0.000 HD
ATOM     38  H   UNL     1     -10.924  -4.224  14.404  0.00  0.00    +0.000 HD
BRANCH  32  39
ATOM     39  O   UNL     1     -12.965  -0.432  13.123  0.00  0.00    +0.000 OA
ATOM     40  H   UNL     1     -13.927  -0.295  13.167  0.00  0.00    +0.000 HD
ENDBRANCH  32  39
ENDBRANCH  26  29
ENDBRANCH   1  27
BRANCH  10  41
ATOM     41  O   UNL     1      -8.294  -5.883  19.402  0.00  0.00    +0.000 OA
BRANCH  41  42
ATOM     42  C   UNL     1      -7.418  -5.030  19.964  0.00  0.00    +0.000 C 
ATOM     43  O   UNL     1      -6.239  -5.284  20.164  0.00  0.00    +0.000 OA
BRANCH  42  44
ATOM     44  C   UNL     1      -8.137  -3.820  20.565  0.00  0.00    +0.000 A 
ATOM     45  C   UNL     1      -9.086  -3.033  19.894  0.00  0.00    +0.000 A 
ATOM     46  C   UNL     1      -9.977  -2.214  20.626  0.00  0.00    +0.000 A 
ATOM     47  C   UNL     1      -9.897  -2.123  22.031  0.00  0.00    +0.000 A 
ATOM     48  C   UNL     1      -8.905  -2.876  22.676  0.00  0.00    +0.000 A 
ATOM     49  C   UNL     1      -8.022  -3.690  21.962  0.00  0.00    +0.000 A 
ATOM     50  H   UNL     1      -9.220  -3.137  18.815  0.00  0.00    +0.000 HD
ATOM     51  H   UNL     1      -7.301  -4.295  22.496  0.00  0.00    +0.000 HD
BRANCH  46  52
ATOM     52  O   UNL     1     -10.960  -1.526  19.965  0.00  0.00    +0.000 OA
ATOM     53  H   UNL     1     -11.745  -1.409  20.526  0.00  0.00    +0.000 HD
ENDBRANCH  46  52
BRANCH  47  54
ATOM     54  C   UNL     1     -10.909  -1.315  22.806  0.00  0.00    +0.000 C 
ATOM     55  O   UNL     1     -11.728  -1.901  23.500  0.00  0.00    +0.000 OA
BRANCH  54  56
ATOM     56  C   UNL     1     -10.844   0.185  22.926  0.00  0.00    +0.000 A 
ATOM     57  C   UNL     1     -11.833   0.912  22.214  0.00  0.00    +0.000 A 
ATOM     58  C   UNL     1     -11.916   2.304  22.285  0.00  0.00    +0.000 A 
ATOM     59  C   UNL     1     -11.013   3.021  23.055  0.00  0.00    +0.000 A 
ATOM     60  C   UNL     1     -10.020   2.337  23.754  0.00  0.00    +0.000 A 
ATOM     61  C   UNL     1      -9.929   0.926  23.705  0.00  0.00    +0.000 A 
ATOM     62  H   UNL     1     -12.684   2.828  21.716  0.00  0.00    +0.000 HD
ATOM     63  H   UNL     1     -11.066   4.107  23.090  0.00  0.00    +0.000 HD
ATOM     64  H   UNL     1      -9.290   2.925  24.310  0.00  0.00    +0.000 HD
BRANCH  57  65
ATOM     65  O   UNL     1     -12.785   0.320  21.431  0.00  0.00    +0.000 OA
ATOM     66  H   UNL     1     -12.814   0.799  20.569  0.00  0.00    +0.000 HD
ENDBRANCH  57  65
BRANCH  61  67
ATOM     67  C   UNL     1      -8.797   0.302  24.425  0.00  0.00    +0.000 C 
ATOM     68  O   UNL     1      -8.856  -0.027  25.595  0.00  0.00    +0.000 OA
BRANCH  67  69
ATOM     69  O   UNL     1      -7.696   0.123  23.663  0.00  0.00    +0.000 OA
ATOM     70  H   UNL     1      -6.930   0.692  23.866  0.00  0.00    +0.000 HD
ENDBRANCH  67  69
ENDBRANCH  61  67
ENDBRANCH  54  56
ENDBRANCH  47  54
BRANCH  48  71
ATOM     71  O   UNL     1      -8.749  -2.925  24.039  0.00  0.00    +0.000 OA
ATOM     72  H   UNL     1      -8.463  -2.054  24.368  0.00  0.00    +0.000 HD
ENDBRANCH  48  71
ENDBRANCH  42  44
ENDBRANCH  41  42
ENDBRANCH  10  41
TORSDOF 13
ENDMDL
MODEL 5
REMARK VINA RESULT:   -10.863      2.622      5.389
REMARK INTER + INTRA:         -18.855
REMARK INTER:                 -19.027
REMARK INTRA:                   0.172
REMARK UNBOUND:                -1.324
REMARK  Name = 
REMARK  13 active torsions:
REMARK  status: ('A' for Active; 'I' for Inactive)
REMARK    1  A    between atoms: C_2  and  C_37
REMARK    2  A    between atoms: N_3  and  C_4
REMARK    3  A    between atoms: C_13  and  O_14
REMARK    4  A    between atoms: O_14  and  C_15
REMARK    5  A    between atoms: C_15  and  C_17
REMARK    6  A    between atoms: C_19  and  O_20
REMARK    7  A    between atoms: C_21  and  C_22
REMARK    8  A    between atoms: C_22  and  C_24
REMARK    9  A    between atoms: C_25  and  O_26
REMARK   10  A    between atoms: C_30  and  C_31
REMARK   11  A    between atoms: C_31  and  O_33
REMARK   12  A    between atoms: C_34  and  O_35
REMARK   13  A    between atoms: C_40  and  O_41
REMARK                            x       y       z     vdW  Elec       q    Type
REMARK                         _______ _______ _______ _____ _____    ______ ____
ROOT
ATOM      1  C   UNL     1     -11.379  -1.741  21.586  0.00  0.00    +0.000 C 
ATOM      2  C   UNL     1     -12.165  -0.381  21.395  0.00  0.00    +0.000 C 
ATOM      3  C   UNL     1     -11.513   0.334  20.167  0.00  0.00    +0.000 C 
ATOM      4  C   UNL     1     -10.086   0.119  20.695  0.00  0.00    +0.000 C 
ATOM      5  C   UNL     1     -10.346   1.024  21.992  0.00  0.00    +0.000 C 
ATOM      6  C   UNL     1     -10.158   2.351  22.761  0.00  0.00    +0.000 C 
ATOM      7  C   UNL     1     -11.595   2.969  22.799  0.00  0.00    +0.000 C 
ATOM      8  C   UNL     1     -12.589   1.814  22.684  0.00  0.00    +0.000 C 
ATOM      9  C   UNL     1     -11.736   0.564  22.504  0.00  0.00    +0.000 C 
ATOM     10  C   UNL     1     -10.188  -1.470  20.659  0.00  0.00    +0.000 C 
ATOM     11  H   UNL     1     -12.008  -2.557  21.217  0.00  0.00    +0.000 HD
ATOM     12  H   UNL     1     -13.240  -0.512  21.255  0.00  0.00    +0.000 HD
ATOM     13  H   UNL     1     -11.810   1.380  20.018  0.00  0.00    +0.000 HD
ATOM     14  H   UNL     1     -11.670  -0.083  19.200  0.00  0.00    +0.000 HD
ATOM     15  H   UNL     1      -9.237   0.469  20.100  0.00  0.00    +0.000 HD
ATOM     16  H   UNL     1     -10.465   1.793  21.203  0.00  0.00    +0.000 HD
ATOM     17  H   UNL     1      -9.472   3.055  22.266  0.00  0.00    +0.000 HD
ATOM     18  H   UNL     1      -9.786   2.200  23.778  0.00  0.00    +0.000 HD
ATOM     19  H   UNL     1     -11.746   3.634  21.936  0.00  0.00    +0.000 HD
ATOM     20  H   UNL     1     -11.772   3.570  23.695  0.00  0.00    +0.000 HD
ATOM     21  H   UNL     1     -13.294   1.968  21.856  0.00  0.00    +0.000 HD
ATOM     22  H   UNL     1     -13.200   1.729  23.591  0.00  0.00    +0.000 HD
ATOM     23  H   UNL     1     -11.676   0.066  23.475  0.00  0.00    +0.000 HD
ATOM     24  H   UNL     1      -9.278  -2.026  20.915  0.00  0.00    +0.000 HD
ENDROOT
BRANCH   1  27
ATOM     25  O   UNL     1      -8.803  -2.762  22.225  0.00  0.00    +0.000 OA
ATOM     26  C   UNL     1      -9.587  -2.529  23.159  0.00  0.00    +0.000 C 
ATOM     27  N   UNL     1     -10.898  -2.170  22.924  0.00  0.00    +0.000 N 
ATOM     28  H   UNL     1     -11.398  -1.793  23.713  0.00  0.00    +0.000 HD
BRANCH  26  29
ATOM     29  C   UNL     1      -9.101  -2.614  24.580  0.00  0.00    +0.000 A 
ATOM     30  C   UNL     1      -8.295  -3.717  24.933  0.00  0.00    +0.000 A 
ATOM     31  C   UNL     1      -7.820  -3.893  26.238  0.00  0.00    +0.000 A 
ATOM     32  C   UNL     1      -8.147  -2.961  27.214  0.00  0.00    +0.000 A 
ATOM     33  C   UNL     1      -8.917  -1.849  26.892  0.00  0.00    +0.000 A 
ATOM     34  C   UNL     1      -9.399  -1.674  25.581  0.00  0.00    +0.000 A 
ATOM     35  H   UNL     1      -8.028  -4.455  24.176  0.00  0.00    +0.000 HD
ATOM     36  H   UNL     1      -7.202  -4.756  26.470  0.00  0.00    +0.000 HD
ATOM     37  H   UNL     1      -9.159  -1.124  27.668  0.00  0.00    +0.000 HD
ATOM     38  H   UNL     1     -10.008  -0.802  25.387  0.00  0.00    +0.000 HD
BRANCH  32  39
ATOM     39  O   UNL     1      -7.738  -3.105  28.505  0.00  0.00    +0.000 OA
ATOM     40  H   UNL     1      -8.362  -2.638  29.087  0.00  0.00    +0.000 HD
ENDBRANCH  32  39
ENDBRANCH  26  29
ENDBRANCH   1  27
BRANCH  10  41
ATOM     41  O   UNL     1     -10.769  -2.006  19.377  0.00  0.00    +0.000 OA
BRANCH  41  42
ATOM     42  C   UNL     1     -10.018  -2.675  18.482  0.00  0.00    +0.000 C 
ATOM     43  O   UNL     1      -9.584  -2.190  17.448  0.00  0.00    +0.000 OA
BRANCH  42  44
ATOM     44  C   UNL     1     -10.008  -4.175  18.784  0.00  0.00    +0.000 A 
ATOM     45  C   UNL     1     -11.010  -5.080  18.400  0.00  0.00    +0.000 A 
ATOM     46  C   UNL     1     -10.737  -6.467  18.357  0.00  0.00    +0.000 A 
ATOM     47  C   UNL     1      -9.484  -6.977  18.752  0.00  0.00    +0.000 A 
ATOM     48  C   UNL     1      -8.515  -6.059  19.185  0.00  0.00    +0.000 A 
ATOM     49  C   UNL     1      -8.774  -4.686  19.228  0.00  0.00    +0.000 A 
ATOM     50  H   UNL     1     -11.965  -4.711  18.020  0.00  0.00    +0.000 HD
ATOM     51  H   UNL     1      -7.988  -4.002  19.520  0.00  0.00    +0.000 HD
BRANCH  46  52
ATOM     52  O   UNL     1     -11.693  -7.329  17.889  0.00  0.00    +0.000 OA
ATOM     53  H   UNL     1     -12.380  -6.856  17.391  0.00  0.00    +0.000 HD
ENDBRANCH  46  52
BRANCH  47  54
ATOM     54  C   UNL     1      -9.176  -8.448  18.619  0.00  0.00    +0.000 C 
ATOM     55  O   UNL     1      -9.199  -9.150  19.620  0.00  0.00    +0.000 OA
BRANCH  54  56
ATOM     56  C   UNL     1      -9.031  -9.140  17.289  0.00  0.00    +0.000 A 
ATOM     57  C   UNL     1      -9.050 -10.559  17.316  0.00  0.00    +0.000 A 
ATOM     58  C   UNL     1      -8.978 -11.319  16.147  0.00  0.00    +0.000 A 
ATOM     59  C   UNL     1      -8.874 -10.696  14.913  0.00  0.00    +0.000 A 
ATOM     60  C   UNL     1      -8.837  -9.303  14.853  0.00  0.00    +0.000 A 
ATOM     61  C   UNL     1      -8.922  -8.517  16.027  0.00  0.00    +0.000 A 
ATOM     62  H   UNL     1      -8.986 -12.407  16.210  0.00  0.00    +0.000 HD
ATOM     63  H   UNL     1      -8.795 -11.291  14.006  0.00  0.00    +0.000 HD
ATOM     64  H   UNL     1      -8.702  -8.838  13.877  0.00  0.00    +0.000 HD
BRANCH  57  65
ATOM     65  O   UNL     1      -9.161 -11.287  18.469  0.00  0.00    +0.000 OA
ATOM     66  H   UNL     1      -8.352 -11.846  18.557  0.00  0.00    +0.000 HD
ENDBRANCH  57  65
BRANCH  61  67
ATOM     67  C   UNL     1      -8.803  -7.052  15.861  0.00  0.00    +0.000 C 
ATOM     68  O   UNL     1      -9.687  -6.365  15.386  0.00  0.00    +0.000 OA
BRANCH  67  69
ATOM     69  O   UNL     1      -7.628  -6.546  16.295  0.00  0.00    +0.000 OA
ATOM     70  H   UNL     1      -7.652  -6.052  17.136  0.00  0.00    +0.000 HD
ENDBRANCH  67  69
ENDBRANCH  61  67
ENDBRANCH  54  56
ENDBRANCH  47  54
BRANCH  48  71
ATOM     71  O   UNL     1      -7.238  -6.409  19.545  0.00  0.00    +0.000 OA
ATOM     72  H   UNL     1      -6.607  -5.754  19.198  0.00  0.00    +0.000 HD
ENDBRANCH  48  71
ENDBRANCH  42  44
ENDBRANCH  41  42
ENDBRANCH  10  41
TORSDOF 13
ENDMDL
MODEL 6
REMARK VINA RESULT:   -10.825      1.983      5.086
REMARK INTER + INTRA:         -18.795
REMARK INTER:                 -16.306
REMARK INTRA:                  -2.488
REMARK UNBOUND:                -1.324
REMARK  Name = 
REMARK  13 active torsions:
REMARK  status: ('A' for Active; 'I' for Inactive)
REMARK    1  A    between atoms: C_2  and  C_37
REMARK    2  A    between atoms: N_3  and  C_4
REMARK    3  A    between atoms: C_13  and  O_14
REMARK    4  A    between atoms: O_14  and  C_15
REMARK    5  A    between atoms: C_15  and  C_17
REMARK    6  A    between atoms: C_19  and  O_20
REMARK    7  A    between atoms: C_21  and  C_22
REMARK    8  A    between atoms: C_22  and  C_24
REMARK    9  A    between atoms: C_25  and  O_26
REMARK   10  A    between atoms: C_30  and  C_31
REMARK   11  A    between atoms: C_31  and  O_33
REMARK   12  A    between atoms: C_34  and  O_35
REMARK   13  A    between atoms: C_40  and  O_41
REMARK                            x       y       z     vdW  Elec       q    Type
REMARK                         _______ _______ _______ _____ _____    ______ ____
ROOT
ATOM      1  C   UNL     1     -10.004  -2.341  20.867  0.00  0.00    +0.000 C 
ATOM      2  C   UNL     1     -10.846  -2.517  19.538  0.00  0.00    +0.000 C 
ATOM      3  C   UNL     1      -9.891  -3.190  18.500  0.00  0.00    +0.000 C 
ATOM      4  C   UNL     1      -8.750  -2.202  18.786  0.00  0.00    +0.000 C 
ATOM      5  C   UNL     1      -9.599  -0.947  18.265  0.00  0.00    +0.000 C 
ATOM      6  C   UNL     1      -9.902   0.111  17.181  0.00  0.00    +0.000 C 
ATOM      7  C   UNL     1     -11.320  -0.286  16.654  0.00  0.00    +0.000 C 
ATOM      8  C   UNL     1     -12.026  -1.044  17.779  0.00  0.00    +0.000 C 
ATOM      9  C   UNL     1     -11.000  -1.147  18.901  0.00  0.00    +0.000 C 
ATOM     10  C   UNL     1      -8.605  -2.633  20.313  0.00  0.00    +0.000 C 
ATOM     11  H   UNL     1     -10.329  -3.103  21.583  0.00  0.00    +0.000 HD
ATOM     12  H   UNL     1     -11.761  -3.097  19.673  0.00  0.00    +0.000 HD
ATOM     13  H   UNL     1     -10.255  -3.205  17.465  0.00  0.00    +0.000 HD
ATOM     14  H   UNL     1      -9.615  -4.207  18.654  0.00  0.00    +0.000 HD
ATOM     15  H   UNL     1      -7.797  -2.315  18.258  0.00  0.00    +0.000 HD
ATOM     16  H   UNL     1      -9.522  -1.523  17.322  0.00  0.00    +0.000 HD
ATOM     17  H   UNL     1      -9.186   0.101  16.343  0.00  0.00    +0.000 HD
ATOM     18  H   UNL     1      -9.918   1.129  17.578  0.00  0.00    +0.000 HD
ATOM     19  H   UNL     1     -11.231  -0.965  15.793  0.00  0.00    +0.000 HD
ATOM     20  H   UNL     1     -11.902   0.576  16.318  0.00  0.00    +0.000 HD
ATOM     21  H   UNL     1     -12.385  -2.025  17.442  0.00  0.00    +0.000 HD
ATOM     22  H   UNL     1     -12.913  -0.498  18.125  0.00  0.00    +0.000 HD
ATOM     23  H   UNL     1     -11.238  -0.371  19.633  0.00  0.00    +0.000 HD
ATOM     24  H   UNL     1      -7.788  -2.169  20.878  0.00  0.00    +0.000 HD
ENDROOT
BRANCH   1  27
ATOM     25  O   UNL     1     -10.614  -1.965  23.620  0.00  0.00    +0.000 OA
ATOM     26  C   UNL     1     -10.184  -0.992  22.978  0.00  0.00    +0.000 C 
ATOM     27  N   UNL     1     -10.002  -1.057  21.612  0.00  0.00    +0.000 N 
ATOM     28  H   UNL     1      -9.455  -0.313  21.207  0.00  0.00    +0.000 HD
BRANCH  26  29
ATOM     29  C   UNL     1      -9.829   0.279  23.699  0.00  0.00    +0.000 A 
ATOM     30  C   UNL     1      -8.980   0.180  24.823  0.00  0.00    +0.000 A 
ATOM     31  C   UNL     1      -8.618   1.306  25.571  0.00  0.00    +0.000 A 
ATOM     32  C   UNL     1      -9.103   2.555  25.202  0.00  0.00    +0.000 A 
ATOM     33  C   UNL     1      -9.919   2.689  24.085  0.00  0.00    +0.000 A 
ATOM     34  C   UNL     1     -10.287   1.556  23.334  0.00  0.00    +0.000 A 
ATOM     35  H   UNL     1      -8.590  -0.793  25.121  0.00  0.00    +0.000 HD
ATOM     36  H   UNL     1      -7.964   1.190  26.430  0.00  0.00    +0.000 HD
ATOM     37  H   UNL     1     -10.284   3.676  23.805  0.00  0.00    +0.000 HD
ATOM     38  H   UNL     1     -10.938   1.712  22.484  0.00  0.00    +0.000 HD
BRANCH  32  39
ATOM     39  O   UNL     1      -8.807   3.676  25.918  0.00  0.00    +0.000 OA
ATOM     40  H   UNL     1      -9.636   4.088  26.214  0.00  0.00    +0.000 HD
ENDBRANCH  32  39
ENDBRANCH  26  29
ENDBRANCH   1  27
BRANCH  10  41
ATOM     41  O   UNL     1      -8.583  -4.125  20.518  0.00  0.00    +0.000 OA
BRANCH  41  42
ATOM     42  C   UNL     1      -7.485  -4.860  20.265  0.00  0.00    +0.000 C 
ATOM     43  O   UNL     1      -6.340  -4.444  20.362  0.00  0.00    +0.000 OA
BRANCH  42  44
ATOM     44  C   UNL     1      -7.852  -6.181  19.585  0.00  0.00    +0.000 A 
ATOM     45  C   UNL     1      -8.487  -7.262  20.217  0.00  0.00    +0.000 A 
ATOM     46  C   UNL     1      -9.140  -8.251  19.446  0.00  0.00    +0.000 A 
ATOM     47  C   UNL     1      -9.119  -8.211  18.037  0.00  0.00    +0.000 A 
ATOM     48  C   UNL     1      -8.431  -7.152  17.426  0.00  0.00    +0.000 A 
ATOM     49  C   UNL     1      -7.785  -6.167  18.179  0.00  0.00    +0.000 A 
ATOM     50  H   UNL     1      -8.582  -7.282  21.305  0.00  0.00    +0.000 HD
ATOM     51  H   UNL     1      -7.305  -5.338  17.676  0.00  0.00    +0.000 HD
BRANCH  46  52
ATOM     52  O   UNL     1      -9.838  -9.247  20.077  0.00  0.00    +0.000 OA
ATOM     53  H   UNL     1      -9.941  -9.059  21.024  0.00  0.00    +0.000 HD
ENDBRANCH  46  52
BRANCH  47  54
ATOM     54  C   UNL     1      -9.893  -9.224  17.228  0.00  0.00    +0.000 C 
ATOM     55  O   UNL     1     -11.094  -9.059  17.067  0.00  0.00    +0.000 OA
BRANCH  54  56
ATOM     56  C   UNL     1      -9.232 -10.327  16.445  0.00  0.00    +0.000 A 
ATOM     57  C   UNL     1      -9.217 -10.171  15.034  0.00  0.00    +0.000 A 
ATOM     58  C   UNL     1      -8.589 -11.096  14.198  0.00  0.00    +0.000 A 
ATOM     59  C   UNL     1      -7.964 -12.212  14.732  0.00  0.00    +0.000 A 
ATOM     60  C   UNL     1      -7.974 -12.402  16.114  0.00  0.00    +0.000 A 
ATOM     61  C   UNL     1      -8.594 -11.468  16.978  0.00  0.00    +0.000 A 
ATOM     62  H   UNL     1      -8.608 -10.946  13.118  0.00  0.00    +0.000 HD
ATOM     63  H   UNL     1      -7.495 -12.942  14.077  0.00  0.00    +0.000 HD
ATOM     64  H   UNL     1      -7.522 -13.312  16.507  0.00  0.00    +0.000 HD
BRANCH  57  65
ATOM     65  O   UNL     1      -9.789  -9.109  14.389  0.00  0.00    +0.000 OA
ATOM     66  H   UNL     1      -9.289  -8.953  13.553  0.00  0.00    +0.000 HD
ENDBRANCH  57  65
BRANCH  61  67
ATOM     67  C   UNL     1      -8.609 -11.798  18.419  0.00  0.00    +0.000 C 
ATOM     68  O   UNL     1      -8.019 -11.142  19.256  0.00  0.00    +0.000 OA
BRANCH  67  69
ATOM     69  O   UNL     1      -9.348 -12.888  18.723  0.00  0.00    +0.000 OA
ATOM     70  H   UNL     1      -9.078 -13.726  18.302  0.00  0.00    +0.000 HD
ENDBRANCH  67  69
ENDBRANCH  61  67
ENDBRANCH  54  56
ENDBRANCH  47  54
BRANCH  48  71
ATOM     71  O   UNL     1      -8.376  -6.959  16.069  0.00  0.00    +0.000 OA
ATOM     72  H   UNL     1      -7.882  -6.143  15.872  0.00  0.00    +0.000 HD
ENDBRANCH  48  71
ENDBRANCH  42  44
ENDBRANCH  41  42
ENDBRANCH  10  41
TORSDOF 13
ENDMDL
MODEL 7
REMARK VINA RESULT:   -10.718      2.064      5.279
REMARK INTER + INTRA:         -18.621
REMARK INTER:                 -17.646
REMARK INTRA:                  -0.974
REMARK UNBOUND:                -1.324
REMARK  Name = 
REMARK  13 active torsions:
REMARK  status: ('A' for Active; 'I' for Inactive)
REMARK    1  A    between atoms: C_2  and  C_37
REMARK    2  A    between atoms: N_3  and  C_4
REMARK    3  A    between atoms: C_13  and  O_14
REMARK    4  A    between atoms: O_14  and  C_15
REMARK    5  A    between atoms: C_15  and  C_17
REMARK    6  A    between atoms: C_19  and  O_20
REMARK    7  A    between atoms: C_21  and  C_22
REMARK    8  A    between atoms: C_22  and  C_24
REMARK    9  A    between atoms: C_25  and  O_26
REMARK   10  A    between atoms: C_30  and  C_31
REMARK   11  A    between atoms: C_31  and  O_33
REMARK   12  A    between atoms: C_34  and  O_35
REMARK   13  A    between atoms: C_40  and  O_41
REMARK                            x       y       z     vdW  Elec       q    Type
REMARK                         _______ _______ _______ _____ _____    ______ ____
ROOT
ATOM      1  C   UNL     1     -11.195  -1.684  18.643  0.00  0.00    +0.000 C 
ATOM      2  C   UNL     1     -11.437  -0.290  17.932  0.00  0.00    +0.000 C 
ATOM      3  C   UNL     1     -11.077  -0.498  16.425  0.00  0.00    +0.000 C 
ATOM      4  C   UNL     1      -9.743  -1.185  16.754  0.00  0.00    +0.000 C 
ATOM      5  C   UNL     1      -9.149   0.128  17.455  0.00  0.00    +0.000 C 
ATOM      6  C   UNL     1      -8.216   1.358  17.424  0.00  0.00    +0.000 C 
ATOM      7  C   UNL     1      -9.199   2.574  17.381  0.00  0.00    +0.000 C 
ATOM      8  C   UNL     1     -10.513   2.117  18.015  0.00  0.00    +0.000 C 
ATOM      9  C   UNL     1     -10.312   0.643  18.342  0.00  0.00    +0.000 C 
ATOM     10  C   UNL     1     -10.426  -2.400  17.526  0.00  0.00    +0.000 C 
ATOM     11  H   UNL     1     -12.168  -2.147  18.833  0.00  0.00    +0.000 HD
ATOM     12  H   UNL     1     -12.453   0.091  18.051  0.00  0.00    +0.000 HD
ATOM     13  H   UNL     1     -11.002   0.420  15.828  0.00  0.00    +0.000 HD
ATOM     14  H   UNL     1     -11.725  -1.098  15.831  0.00  0.00    +0.000 HD
ATOM     15  H   UNL     1      -9.112  -1.549  15.936  0.00  0.00    +0.000 HD
ATOM     16  H   UNL     1      -9.262   0.506  16.419  0.00  0.00    +0.000 HD
ATOM     17  H   UNL     1      -7.557   1.391  16.543  0.00  0.00    +0.000 HD
ATOM     18  H   UNL     1      -7.575   1.423  18.307  0.00  0.00    +0.000 HD
ATOM     19  H   UNL     1      -9.406   2.860  16.340  0.00  0.00    +0.000 HD
ATOM     20  H   UNL     1      -8.795   3.461  17.878  0.00  0.00    +0.000 HD
ATOM     21  H   UNL     1     -11.366   2.289  17.345  0.00  0.00    +0.000 HD
ATOM     22  H   UNL     1     -10.727   2.684  18.930  0.00  0.00    +0.000 HD
ATOM     23  H   UNL     1     -10.081   0.574  19.409  0.00  0.00    +0.000 HD
ATOM     24  H   UNL     1      -9.759  -3.197  17.873  0.00  0.00    +0.000 HD
ENDROOT
BRANCH   1  27
ATOM     25  O   UNL     1     -12.182  -1.106  21.246  0.00  0.00    +0.000 OA
ATOM     26  C   UNL     1     -11.047  -1.600  21.148  0.00  0.00    +0.000 C 
ATOM     27  N   UNL     1     -10.443  -1.775  19.920  0.00  0.00    +0.000 N 
ATOM     28  H   UNL     1      -9.631  -2.371  19.912  0.00  0.00    +0.000 HD
BRANCH  26  29
ATOM     29  C   UNL     1     -10.316  -2.043  22.386  0.00  0.00    +0.000 A 
ATOM     30  C   UNL     1     -11.041  -2.085  23.596  0.00  0.00    +0.000 A 
ATOM     31  C   UNL     1     -10.437  -2.458  24.802  0.00  0.00    +0.000 A 
ATOM     32  C   UNL     1      -9.090  -2.797  24.814  0.00  0.00    +0.000 A 
ATOM     33  C   UNL     1      -8.355  -2.792  23.635  0.00  0.00    +0.000 A 
ATOM     34  C   UNL     1      -8.961  -2.412  22.422  0.00  0.00    +0.000 A 
ATOM     35  H   UNL     1     -12.100  -1.824  23.601  0.00  0.00    +0.000 HD
ATOM     36  H   UNL     1     -11.029  -2.477  25.713  0.00  0.00    +0.000 HD
ATOM     37  H   UNL     1      -7.302  -3.067  23.660  0.00  0.00    +0.000 HD
ATOM     38  H   UNL     1      -8.341  -2.407  21.536  0.00  0.00    +0.000 HD
BRANCH  32  39
ATOM     39  O   UNL     1      -8.449  -3.134  25.968  0.00  0.00    +0.000 OA
ATOM     40  H   UNL     1      -7.533  -3.383  25.757  0.00  0.00    +0.000 HD
ENDBRANCH  32  39
ENDBRANCH  26  29
ENDBRANCH   1  27
BRANCH  10  41
ATOM     41  O   UNL     1     -11.596  -2.998  16.790  0.00  0.00    +0.000 OA
BRANCH  41  42
ATOM     42  C   UNL     1     -11.430  -3.760  15.693  0.00  0.00    +0.000 C 
ATOM     43  O   UNL     1     -11.927  -3.516  14.603  0.00  0.00    +0.000 OA
BRANCH  42  44
ATOM     44  C   UNL     1     -10.777  -5.099  16.046  0.00  0.00    +0.000 A 
ATOM     45  C   UNL     1      -9.409  -5.384  15.920  0.00  0.00    +0.000 A 
ATOM     46  C   UNL     1      -8.840  -6.467  16.630  0.00  0.00    +0.000 A 
ATOM     47  C   UNL     1      -9.635  -7.315  17.428  0.00  0.00    +0.000 A 
ATOM     48  C   UNL     1     -11.010  -7.043  17.496  0.00  0.00    +0.000 A 
ATOM     49  C   UNL     1     -11.581  -5.974  16.800  0.00  0.00    +0.000 A 
ATOM     50  H   UNL     1      -8.756  -4.704  15.368  0.00  0.00    +0.000 HD
ATOM     51  H   UNL     1     -12.637  -5.764  16.914  0.00  0.00    +0.000 HD
BRANCH  46  52
ATOM     52  O   UNL     1      -7.487  -6.675  16.573  0.00  0.00    +0.000 OA
ATOM     53  H   UNL     1      -7.014  -5.855  16.358  0.00  0.00    +0.000 HD
ENDBRANCH  46  52
BRANCH  47  54
ATOM     54  C   UNL     1      -9.003  -8.412  18.249  0.00  0.00    +0.000 C 
ATOM     55  O   UNL     1      -8.706  -8.183  19.413  0.00  0.00    +0.000 OA
BRANCH  54  56
ATOM     56  C   UNL     1      -8.893  -9.835  17.770  0.00  0.00    +0.000 A 
ATOM     57  C   UNL     1      -8.546 -10.800  18.752  0.00  0.00    +0.000 A 
ATOM     58  C   UNL     1      -8.464 -12.161  18.450  0.00  0.00    +0.000 A 
ATOM     59  C   UNL     1      -8.711 -12.608  17.161  0.00  0.00    +0.000 A 
ATOM     60  C   UNL     1      -9.039 -11.684  16.170  0.00  0.00    +0.000 A 
ATOM     61  C   UNL     1      -9.140 -10.302  16.461  0.00  0.00    +0.000 A 
ATOM     62  H   UNL     1      -8.185 -12.870  19.229  0.00  0.00    +0.000 HD
ATOM     63  H   UNL     1      -8.625 -13.666  16.924  0.00  0.00    +0.000 HD
ATOM     64  H   UNL     1      -9.178 -12.052  15.154  0.00  0.00    +0.000 HD
BRANCH  57  65
ATOM     65  O   UNL     1      -8.290 -10.485  20.058  0.00  0.00    +0.000 OA
ATOM     66  H   UNL     1      -7.311 -10.432  20.174  0.00  0.00    +0.000 HD
ENDBRANCH  57  65
BRANCH  61  67
ATOM     67  C   UNL     1      -9.424  -9.398  15.326  0.00  0.00    +0.000 C 
ATOM     68  O   UNL     1      -8.552  -8.847  14.682  0.00  0.00    +0.000 OA
BRANCH  67  69
ATOM     69  O   UNL     1     -10.741  -9.249  15.062  0.00  0.00    +0.000 OA
ATOM     70  H   UNL     1     -11.359  -9.704  15.665  0.00  0.00    +0.000 HD
ENDBRANCH  67  69
ENDBRANCH  61  67
ENDBRANCH  54  56
ENDBRANCH  47  54
BRANCH  48  71
ATOM     71  O   UNL     1     -11.890  -7.751  18.275  0.00  0.00    +0.000 OA
ATOM     72  H   UNL     1     -12.616  -7.170  18.563  0.00  0.00    +0.000 HD
ENDBRANCH  48  71
ENDBRANCH  42  44
ENDBRANCH  41  42
ENDBRANCH  10  41
TORSDOF 13
ENDMDL
MODEL 8
REMARK VINA RESULT:   -10.592      2.067      5.802
REMARK INTER + INTRA:         -18.418
REMARK INTER:                 -16.733
REMARK INTRA:                  -1.686
REMARK UNBOUND:                -1.324
REMARK  Name = 
REMARK  13 active torsions:
REMARK  status: ('A' for Active; 'I' for Inactive)
REMARK    1  A    between atoms: C_2  and  C_37
REMARK    2  A    between atoms: N_3  and  C_4
REMARK    3  A    between atoms: C_13  and  O_14
REMARK    4  A    between atoms: O_14  and  C_15
REMARK    5  A    between atoms: C_15  and  C_17
REMARK    6  A    between atoms: C_19  and  O_20
REMARK    7  A    between atoms: C_21  and  C_22
REMARK    8  A    between atoms: C_22  and  C_24
REMARK    9  A    between atoms: C_25  and  O_26
REMARK   10  A    between atoms: C_30  and  C_31
REMARK   11  A    between atoms: C_31  and  O_33
REMARK   12  A    between atoms: C_34  and  O_35
REMARK   13  A    between atoms: C_40  and  O_41
REMARK                            x       y       z     vdW  Elec       q    Type
REMARK                         _______ _______ _______ _____ _____    ______ ____
ROOT
ATOM      1  C   UNL     1     -11.191  -0.924  19.350  0.00  0.00    +0.000 C 
ATOM      2  C   UNL     1     -11.268   0.580  18.862  0.00  0.00    +0.000 C 
ATOM      3  C   UNL     1     -11.158   0.541  17.303  0.00  0.00    +0.000 C 
ATOM      4  C   UNL     1      -9.939  -0.394  17.331  0.00  0.00    +0.000 C 
ATOM      5  C   UNL     1      -9.027   0.687  18.084  0.00  0.00    +0.000 C 
ATOM      6  C   UNL     1      -7.898   1.741  18.058  0.00  0.00    +0.000 C 
ATOM      7  C   UNL     1      -8.640   3.093  18.319  0.00  0.00    +0.000 C 
ATOM      8  C   UNL     1      -9.918   2.767  19.091  0.00  0.00    +0.000 C 
ATOM      9  C   UNL     1      -9.947   1.248  19.200  0.00  0.00    +0.000 C 
ATOM     10  C   UNL     1     -10.723  -1.582  18.047  0.00  0.00    +0.000 C 
ATOM     11  H   UNL     1     -12.198  -1.245  19.633  0.00  0.00    +0.000 HD
ATOM     12  H   UNL     1     -12.173   1.099  19.184  0.00  0.00    +0.000 HD
ATOM     13  H   UNL     1     -10.998   1.513  16.818  0.00  0.00    +0.000 HD
ATOM     14  H   UNL     1     -11.978   0.148  16.749  0.00  0.00    +0.000 HD
ATOM     15  H   UNL     1      -9.501  -0.731  16.385  0.00  0.00    +0.000 HD
ATOM     16  H   UNL     1      -9.208   1.227  17.133  0.00  0.00    +0.000 HD
ATOM     17  H   UNL     1      -7.368   1.796  17.094  0.00  0.00    +0.000 HD
ATOM     18  H   UNL     1      -7.144   1.570  18.830  0.00  0.00    +0.000 HD
ATOM     19  H   UNL     1      -8.929   3.559  17.365  0.00  0.00    +0.000 HD
ATOM     20  H   UNL     1      -8.019   3.820  18.850  0.00  0.00    +0.000 HD
ATOM     21  H   UNL     1     -10.807   3.172  18.590  0.00  0.00    +0.000 HD
ATOM     22  H   UNL     1      -9.901   3.219  20.090  0.00  0.00    +0.000 HD
ATOM     23  H   UNL     1      -9.592   0.985  20.200  0.00  0.00    +0.000 HD
ATOM     24  H   UNL     1     -10.171  -2.520  18.185  0.00  0.00    +0.000 HD
ENDROOT
BRANCH   1  27
ATOM     25  O   UNL     1     -11.807  -0.834  22.125  0.00  0.00    +0.000 OA
ATOM     26  C   UNL     1     -10.740  -1.367  21.780  0.00  0.00    +0.000 C 
ATOM     27  N   UNL     1     -10.304  -1.323  20.472  0.00  0.00    +0.000 N 
ATOM     28  H   UNL     1      -9.555  -1.955  20.238  0.00  0.00    +0.000 HD
BRANCH  26  29
ATOM     29  C   UNL     1      -9.910  -2.101  22.798  0.00  0.00    +0.000 A 
ATOM     30  C   UNL     1      -8.796  -2.831  22.331  0.00  0.00    +0.000 A 
ATOM     31  C   UNL     1      -7.982  -3.566  23.201  0.00  0.00    +0.000 A 
ATOM     32  C   UNL     1      -8.273  -3.580  24.559  0.00  0.00    +0.000 A 
ATOM     33  C   UNL     1      -9.347  -2.849  25.054  0.00  0.00    +0.000 A 
ATOM     34  C   UNL     1     -10.169  -2.113  24.178  0.00  0.00    +0.000 A 
ATOM     35  H   UNL     1      -8.553  -2.827  21.268  0.00  0.00    +0.000 HD
ATOM     36  H   UNL     1      -7.134  -4.116  22.803  0.00  0.00    +0.000 HD
ATOM     37  H   UNL     1      -9.558  -2.865  26.122  0.00  0.00    +0.000 HD
ATOM     38  H   UNL     1     -11.002  -1.576  24.611  0.00  0.00    +0.000 HD
BRANCH  32  39
ATOM     39  O   UNL     1      -7.532  -4.307  25.441  0.00  0.00    +0.000 OA
ATOM     40  H   UNL     1      -6.708  -4.584  25.006  0.00  0.00    +0.000 HD
ENDBRANCH  32  39
ENDBRANCH  26  29
ENDBRANCH   1  27
BRANCH  10  41
ATOM     41  O   UNL     1     -12.070  -1.868  17.437  0.00  0.00    +0.000 OA
BRANCH  41  42
ATOM     42  C   UNL     1     -12.194  -2.423  16.218  0.00  0.00    +0.000 C 
ATOM     43  O   UNL     1     -12.954  -2.018  15.350  0.00  0.00    +0.000 OA
BRANCH  42  44
ATOM     44  C   UNL     1     -11.474  -3.772  16.150  0.00  0.00    +0.000 A 
ATOM     45  C   UNL     1     -10.636  -4.185  15.103  0.00  0.00    +0.000 A 
ATOM     46  C   UNL     1      -9.715  -5.239  15.304  0.00  0.00    +0.000 A 
ATOM     47  C   UNL     1      -9.655  -5.934  16.529  0.00  0.00    +0.000 A 
ATOM     48  C   UNL     1     -10.541  -5.539  17.544  0.00  0.00    +0.000 A 
ATOM     49  C   UNL     1     -11.453  -4.497  17.356  0.00  0.00    +0.000 A 
ATOM     50  H   UNL     1     -10.608  -3.621  14.168  0.00  0.00    +0.000 HD
ATOM     51  H   UNL     1     -12.088  -4.187  18.176  0.00  0.00    +0.000 HD
BRANCH  46  52
ATOM     52  O   UNL     1      -8.837  -5.568  14.305  0.00  0.00    +0.000 OA
ATOM     53  H   UNL     1      -8.546  -6.491  14.382  0.00  0.00    +0.000 HD
ENDBRANCH  46  52
BRANCH  47  54
ATOM     54  C   UNL     1      -8.609  -6.996  16.760  0.00  0.00    +0.000 C 
ATOM     55  O   UNL     1      -7.471  -6.653  17.045  0.00  0.00    +0.000 OA
BRANCH  54  56
ATOM     56  C   UNL     1      -8.935  -8.464  16.849  0.00  0.00    +0.000 A 
ATOM     57  C   UNL     1      -9.191  -9.124  15.619  0.00  0.00    +0.000 A 
ATOM     58  C   UNL     1      -9.452 -10.494  15.558  0.00  0.00    +0.000 A 
ATOM     59  C   UNL     1      -9.480 -11.253  16.719  0.00  0.00    +0.000 A 
ATOM     60  C   UNL     1      -9.249 -10.631  17.945  0.00  0.00    +0.000 A 
ATOM     61  C   UNL     1      -8.969  -9.246  18.024  0.00  0.00    +0.000 A 
ATOM     62  H   UNL     1      -9.653 -10.962  14.595  0.00  0.00    +0.000 HD
ATOM     63  H   UNL     1      -9.706 -12.316  16.671  0.00  0.00    +0.000 HD
ATOM     64  H   UNL     1      -9.328 -11.237  18.847  0.00  0.00    +0.000 HD
BRANCH  57  65
ATOM     65  O   UNL     1      -9.180  -8.487  14.408  0.00  0.00    +0.000 OA
ATOM     66  H   UNL     1      -8.817  -7.579  14.542  0.00  0.00    +0.000 HD
ENDBRANCH  57  65
BRANCH  61  67
ATOM     67  C   UNL     1      -8.808  -8.672  19.377  0.00  0.00    +0.000 C 
ATOM     68  O   UNL     1      -8.086  -7.721  19.613  0.00  0.00    +0.000 OA
BRANCH  67  69
ATOM     69  O   UNL     1      -9.543  -9.292  20.326  0.00  0.00    +0.000 OA
ATOM     70  H   UNL     1      -9.639 -10.259  20.238  0.00  0.00    +0.000 HD
ENDBRANCH  67  69
ENDBRANCH  61  67
ENDBRANCH  54  56
ENDBRANCH  47  54
BRANCH  48  71
ATOM     71  O   UNL     1     -10.556  -6.090  18.801  0.00  0.00    +0.000 OA
ATOM     72  H   UNL     1     -10.879  -7.007  18.755  0.00  0.00    +0.000 HD
ENDBRANCH  48  71
ENDBRANCH  42  44
ENDBRANCH  41  42
ENDBRANCH  10  41
TORSDOF 13
ENDMDL
MODEL 9
REMARK VINA RESULT:   -10.536      2.629      8.919
REMARK INTER + INTRA:         -18.327
REMARK INTER:                 -15.966
REMARK INTRA:                  -2.361
REMARK UNBOUND:                -1.324
REMARK  Name = 
REMARK  13 active torsions:
REMARK  status: ('A' for Active; 'I' for Inactive)
REMARK    1  A    between atoms: C_2  and  C_37
REMARK    2  A    between atoms: N_3  and  C_4
REMARK    3  A    between atoms: C_13  and  O_14
REMARK    4  A    between atoms: O_14  and  C_15
REMARK    5  A    between atoms: C_15  and  C_17
REMARK    6  A    between atoms: C_19  and  O_20
REMARK    7  A    between atoms: C_21  and  C_22
REMARK    8  A    between atoms: C_22  and  C_24
REMARK    9  A    between atoms: C_25  and  O_26
REMARK   10  A    between atoms: C_30  and  C_31
REMARK   11  A    between atoms: C_31  and  O_33
REMARK   12  A    between atoms: C_34  and  O_35
REMARK   13  A    between atoms: C_40  and  O_41
REMARK                            x       y       z     vdW  Elec       q    Type
REMARK                         _______ _______ _______ _____ _____    ______ ____
ROOT
ATOM      1  C   UNL     1      -9.993  -6.084  18.324  0.00  0.00    +0.000 C 
ATOM      2  C   UNL     1     -10.031  -7.664  18.227  0.00  0.00    +0.000 C 
ATOM      3  C   UNL     1      -8.551  -8.147  18.371  0.00  0.00    +0.000 C 
ATOM      4  C   UNL     1      -8.035  -7.137  17.335  0.00  0.00    +0.000 C 
ATOM      5  C   UNL     1      -8.889  -7.796  16.149  0.00  0.00    +0.000 C 
ATOM      6  C   UNL     1      -8.967  -8.672  14.880  0.00  0.00    +0.000 C 
ATOM      7  C   UNL     1      -9.786  -9.924  15.337  0.00  0.00    +0.000 C 
ATOM      8  C   UNL     1     -10.659  -9.489  16.515  0.00  0.00    +0.000 C 
ATOM      9  C   UNL     1     -10.287  -8.035  16.777  0.00  0.00    +0.000 C 
ATOM     10  C   UNL     1      -8.483  -5.864  18.182  0.00  0.00    +0.000 C 
ATOM     11  H   UNL     1     -10.359  -5.792  19.313  0.00  0.00    +0.000 HD
ATOM     12  H   UNL     1     -10.677  -8.133  18.971  0.00  0.00    +0.000 HD
ATOM     13  H   UNL     1      -8.375  -9.204  18.130  0.00  0.00    +0.000 HD
ATOM     14  H   UNL     1      -8.080  -8.054  19.321  0.00  0.00    +0.000 HD
ATOM     15  H   UNL     1      -6.963  -7.099  17.112  0.00  0.00    +0.000 HD
ATOM     16  H   UNL     1      -8.214  -8.643  16.385  0.00  0.00    +0.000 HD
ATOM     17  H   UNL     1      -7.983  -8.997  14.506  0.00  0.00    +0.000 HD
ATOM     18  H   UNL     1      -9.476  -8.171  14.052  0.00  0.00    +0.000 HD
ATOM     19  H   UNL     1      -9.108 -10.715  15.691  0.00  0.00    +0.000 HD
ATOM     20  H   UNL     1     -10.382 -10.357  14.529  0.00  0.00    +0.000 HD
ATOM     21  H   UNL     1     -10.503 -10.130  17.392  0.00  0.00    +0.000 HD
ATOM     22  H   UNL     1     -11.724  -9.569  16.266  0.00  0.00    +0.000 HD
ATOM     23  H   UNL     1     -11.059  -7.412  16.318  0.00  0.00    +0.000 HD
ATOM     24  H   UNL     1      -8.203  -4.884  17.778  0.00  0.00    +0.000 HD
ENDROOT
BRANCH   1  27
ATOM     25  O   UNL     1     -11.365  -3.655  18.874  0.00  0.00    +0.000 OA
ATOM     26  C   UNL     1     -11.251  -4.006  17.689  0.00  0.00    +0.000 C 
ATOM     27  N   UNL     1     -10.728  -5.236  17.351  0.00  0.00    +0.000 N 
ATOM     28  H   UNL     1     -10.471  -5.353  16.383  0.00  0.00    +0.000 HD
BRANCH  26  29
ATOM     29  C   UNL     1     -11.667  -3.067  16.589  0.00  0.00    +0.000 A 
ATOM     30  C   UNL     1     -12.279  -1.851  16.962  0.00  0.00    +0.000 A 
ATOM     31  C   UNL     1     -12.723  -0.929  16.007  0.00  0.00    +0.000 A 
ATOM     32  C   UNL     1     -12.560  -1.213  14.657  0.00  0.00    +0.000 A 
ATOM     33  C   UNL     1     -11.937  -2.390  14.258  0.00  0.00    +0.000 A 
ATOM     34  C   UNL     1     -11.494  -3.320  15.218  0.00  0.00    +0.000 A 
ATOM     35  H   UNL     1     -12.411  -1.614  18.018  0.00  0.00    +0.000 HD
ATOM     36  H   UNL     1     -13.189  -0.004  16.333  0.00  0.00    +0.000 HD
ATOM     37  H   UNL     1     -11.810  -2.595  13.196  0.00  0.00    +0.000 HD
ATOM     38  H   UNL     1     -11.032  -4.229  14.855  0.00  0.00    +0.000 HD
BRANCH  32  39
ATOM     39  O   UNL     1     -13.006  -0.364  13.689  0.00  0.00    +0.000 OA
ATOM     40  H   UNL     1     -12.370   0.365  13.594  0.00  0.00    +0.000 HD
ENDBRANCH  32  39
ENDBRANCH  26  29
ENDBRANCH   1  27
BRANCH  10  41
ATOM     41  O   UNL     1      -8.101  -5.945  19.636  0.00  0.00    +0.000 OA
BRANCH  41  42
ATOM     42  C   UNL     1      -7.239  -5.075  20.193  0.00  0.00    +0.000 C 
ATOM     43  O   UNL     1      -6.027  -5.230  20.226  0.00  0.00    +0.000 OA
BRANCH  42  44
ATOM     44  C   UNL     1      -7.979  -4.015  21.013  0.00  0.00    +0.000 A 
ATOM     45  C   UNL     1      -8.085  -4.010  22.413  0.00  0.00    +0.000 A 
ATOM     46  C   UNL     1      -8.420  -2.818  23.095  0.00  0.00    +0.000 A 
ATOM     47  C   UNL     1      -8.711  -1.631  22.393  0.00  0.00    +0.000 A 
ATOM     48  C   UNL     1      -8.653  -1.674  20.991  0.00  0.00    +0.000 A 
ATOM     49  C   UNL     1      -8.320  -2.846  20.307  0.00  0.00    +0.000 A 
ATOM     50  H   UNL     1      -7.796  -4.892  22.987  0.00  0.00    +0.000 HD
ATOM     51  H   UNL     1      -8.237  -2.831  19.228  0.00  0.00    +0.000 HD
BRANCH  46  52
ATOM     52  O   UNL     1      -8.425  -2.803  24.465  0.00  0.00    +0.000 OA
ATOM     53  H   UNL     1      -9.310  -2.600  24.811  0.00  0.00    +0.000 HD
ENDBRANCH  46  52
BRANCH  47  54
ATOM     54  C   UNL     1      -8.981  -0.345  23.135  0.00  0.00    +0.000 C 
ATOM     55  O   UNL     1      -8.099   0.130  23.835  0.00  0.00    +0.000 OA
BRANCH  54  56
ATOM     56  C   UNL     1     -10.214   0.490  22.909  0.00  0.00    +0.000 A 
ATOM     57  C   UNL     1     -10.041   1.896  22.991  0.00  0.00    +0.000 A 
ATOM     58  C   UNL     1     -11.092   2.783  22.749  0.00  0.00    +0.000 A 
ATOM     59  C   UNL     1     -12.353   2.302  22.430  0.00  0.00    +0.000 A 
ATOM     60  C   UNL     1     -12.560   0.926  22.358  0.00  0.00    +0.000 A 
ATOM     61  C   UNL     1     -11.503   0.013  22.586  0.00  0.00    +0.000 A 
ATOM     62  H   UNL     1     -10.922   3.856  22.831  0.00  0.00    +0.000 HD
ATOM     63  H   UNL     1     -13.176   2.995  22.265  0.00  0.00    +0.000 HD
ATOM     64  H   UNL     1     -13.571   0.571  22.157  0.00  0.00    +0.000 HD
BRANCH  57  65
ATOM     65  O   UNL     1      -8.845   2.491  23.285  0.00  0.00    +0.000 OA
ATOM     66  H   UNL     1      -8.461   2.840  22.446  0.00  0.00    +0.000 HD
ENDBRANCH  57  65
BRANCH  61  67
ATOM     67  C   UNL     1     -11.843  -1.426  22.554  0.00  0.00    +0.000 C 
ATOM     68  O   UNL     1     -11.842  -2.131  23.546  0.00  0.00    +0.000 OA
BRANCH  67  69
ATOM     69  O   UNL     1     -12.164  -1.885  21.325  0.00  0.00    +0.000 OA
ATOM     70  H   UNL     1     -12.333  -1.211  20.640  0.00  0.00    +0.000 HD
ENDBRANCH  67  69
ENDBRANCH  61  67
ENDBRANCH  54  56
ENDBRANCH  47  54
BRANCH  48  71
ATOM     71  O   UNL     1      -8.859  -0.583  20.185  0.00  0.00    +0.000 OA
ATOM     72  H   UNL     1      -8.132   0.055  20.303  0.00  0.00    +0.000 HD
ENDBRANCH  48  71
ENDBRANCH  42  44
ENDBRANCH  41  42
ENDBRANCH  10  41
TORSDOF 13
ENDMDL
