REMARK  Name = 
REMARK  6 active torsions:
REMARK  status: ('A' for Active; 'I' for Inactive)
REMARK    1  A    between atoms: C_1  and  N_2
REMARK    2  A    between atoms: N_2  and  C_3
REMARK    3  A    between atoms: C_7  and  C_8
REMARK    4  A    between atoms: C_9  and  O_10
REMARK    5  A    between atoms: O_10  and  C_11
REMARK    6  A    between atoms: C_32  and  O_33
REMARK                            x       y       z     vdW  Elec       q    Type
REMARK                         _______ _______ _______ _____ _____    ______ ____
ROOT
ATOM      1  C   UNL     1       2.677  -1.720  -1.186  0.00  0.00    +0.000 C 
ATOM      2  C   UNL     1       1.370  -2.016  -1.955  0.00  0.00    +0.000 C 
ATOM      3  C   UNL     1       0.220  -1.091  -1.567  0.00  0.00    +0.000 C 
ATOM      4  O   UNL     1       0.783   0.200  -1.336  0.00  0.00    +0.000 OA
ATOM      5  C   UNL     1       1.597   0.263  -0.139  0.00  0.00    +0.000 C 
ATOM      6  C   UNL     1       2.337  -1.089   0.187  0.00  0.00    +0.000 C 
ATOM      7  N   UNL     1       0.719   0.706   0.925  0.00  0.00    +0.000 N 
ATOM      8  C   UNL     1       0.887   1.645   1.948  0.00  0.00    +0.000 A 
ATOM      9  C   UNL     1       2.060   2.099   2.568  0.00  0.00    +0.000 A 
ATOM     10  C   UNL     1       1.947   2.776   3.783  0.00  0.00    +0.000 A 
ATOM     11  C   UNL     1       0.702   3.099   4.308  0.00  0.00    +0.000 A 
ATOM     12  C   UNL     1      -0.469   2.869   3.577  0.00  0.00    +0.000 A 
ATOM     13  C   UNL     1      -0.412   2.132   2.372  0.00  0.00    +0.000 A 
ATOM     14  C   UNL     1      -1.421   1.538   1.556  0.00  0.00    +0.000 A 
ATOM     15  C   UNL     1      -2.407   2.254   0.801  0.00  0.00    +0.000 A 
ATOM     16  C   UNL     1      -3.030   1.480  -0.207  0.00  0.00    +0.000 A 
ATOM     17  C   UNL     1      -2.519   0.175  -0.325  0.00  0.00    +0.000 A 
ATOM     18  C   UNL     1      -2.809  -0.762  -1.330  0.00  0.00    +0.000 A 
ATOM     19  C   UNL     1      -3.546  -0.877  -2.507  0.00  0.00    +0.000 A 
ATOM     20  C   UNL     1      -3.866  -2.164  -2.933  0.00  0.00    +0.000 A 
ATOM     21  C   UNL     1      -3.543  -3.274  -2.145  0.00  0.00    +0.000 A 
ATOM     22  C   UNL     1      -2.586  -3.185  -1.127  0.00  0.00    +0.000 A 
ATOM     23  C   UNL     1      -2.049  -1.912  -0.934  0.00  0.00    +0.000 A 
ATOM     24  N   UNL     1      -0.770  -1.416  -0.509  0.00  0.00    +0.000 N 
ATOM     25  C   UNL     1      -1.316  -0.333   0.149  0.00  0.00    +0.000 A 
ATOM     26  C   UNL     1      -0.629   0.562   0.940  0.00  0.00    +0.000 A 
ATOM     27  C   UNL     1      -3.606   2.287  -1.260  0.00  0.00    +0.000 C 
ATOM     28  N   UNL     1      -3.140   3.588  -0.868  0.00  0.00    +0.000 N 
ATOM     29  C   UNL     1      -2.483   3.619   0.380  0.00  0.00    +0.000 C 
ATOM     30  O   UNL     1      -1.963   4.648   0.790  0.00  0.00    +0.000 OA
ATOM     31  H   UNL     1       3.247  -0.987  -1.773  0.00  0.00    +0.000 HD
ATOM     32  H   UNL     1       1.604  -1.771  -3.004  0.00  0.00    +0.000 HD
ATOM     33  H   UNL     1       1.063  -3.064  -1.952  0.00  0.00    +0.000 HD
ATOM     34  H   UNL     1      -0.389  -0.983  -2.475  0.00  0.00    +0.000 HD
ATOM     35  H   UNL     1       3.239  -0.881   0.771  0.00  0.00    +0.000 HD
ATOM     36  H   UNL     1       3.045   1.852   2.189  0.00  0.00    +0.000 HD
ATOM     37  H   UNL     1       2.849   3.015   4.343  0.00  0.00    +0.000 HD
ATOM     38  H   UNL     1       0.636   3.509   5.314  0.00  0.00    +0.000 HD
ATOM     39  H   UNL     1      -1.434   3.113   4.014  0.00  0.00    +0.000 HD
ATOM     40  H   UNL     1      -3.862  -0.008  -3.068  0.00  0.00    +0.000 HD
ATOM     41  H   UNL     1      -4.432  -2.289  -3.851  0.00  0.00    +0.000 HD
ATOM     42  H   UNL     1      -4.000  -4.234  -2.374  0.00  0.00    +0.000 HD
ATOM     43  H   UNL     1      -2.273  -4.050  -0.552  0.00  0.00    +0.000 HD
ATOM     44  H   UNL     1      -3.231   2.034  -2.256  0.00  0.00    +0.000 HD
ATOM     45  H   UNL     1      -2.604   4.104  -1.556  0.00  0.00    +0.000 HD
ENDROOT
BRANCH   5  46
ATOM     46  C   UNL     1       2.598   1.358  -0.572  0.00  0.00    +0.000 C 
ATOM     47  H   UNL     1       3.467   1.422   0.082  0.00  0.00    +0.000 HD
ATOM     48  H   UNL     1       2.961   1.177  -1.592  0.00  0.00    +0.000 HD
ATOM     49  H   UNL     1       2.113   2.342  -0.618  0.00  0.00    +0.000 HD
ENDBRANCH   5  46
BRANCH   1  50
ATOM     50  N   UNL     1       3.484  -2.955  -1.202  0.00  0.00    +0.000 NA
ATOM     51  H   UNL     1       2.939  -3.705  -0.781  0.00  0.00    +0.000 HD
BRANCH  50  52
ATOM     52  C   UNL     1       4.749  -2.830  -0.482  0.00  0.00    +0.000 C 
ATOM     53  H   UNL     1       4.666  -3.289   0.508  0.00  0.00    +0.000 HD
ATOM     54  H   UNL     1       5.532  -3.351  -1.040  0.00  0.00    +0.000 HD
ATOM     55  H   UNL     1       5.071  -1.790  -0.360  0.00  0.00    +0.000 HD
ENDBRANCH  50  52
ENDBRANCH   1  50
BRANCH  27  56
ATOM     56  O   UNL     1      -5.003   2.325  -1.225  0.00  0.00    +0.000 OA
ATOM     57  H   UNL     1      -5.208   3.254  -1.418  0.00  0.00    +0.000 HD
ENDBRANCH  27  56
BRANCH   6  58
ATOM     58  O   UNL     1       1.588  -2.113   0.883  0.00  0.00    +0.000 OA
BRANCH  58  59
ATOM     59  C   UNL     1       1.285  -1.855   2.247  0.00  0.00    +0.000 C 
ATOM     60  H   UNL     1       1.375  -2.792   2.802  0.00  0.00    +0.000 HD
ATOM     61  H   UNL     1       1.947  -1.111   2.696  0.00  0.00    +0.000 HD
ATOM     62  H   UNL     1       0.242  -1.546   2.343  0.00  0.00    +0.000 HD
ENDBRANCH  58  59
ENDBRANCH   6  58
TORSDOF 6
