REMARK  Name = 
REMARK  13 active torsions:
REMARK  status: ('A' for Active; 'I' for Inactive)
REMARK    1  A    between atoms: C_2  and  C_34
REMARK    2  A    between atoms: N_3  and  C_4
REMARK    3  A    between atoms: C_10  and  O_11
REMARK    4  A    between atoms: O_11  and  C_12
REMARK    5  A    between atoms: C_12  and  C_14
REMARK    6  A    between atoms: C_16  and  O_17
REMARK    7  A    between atoms: C_18  and  C_19
REMARK    8  A    between atoms: C_19  and  C_21
REMARK    9  A    between atoms: C_22  and  O_23
REMARK   10  A    between atoms: C_27  and  C_28
REMARK   11  A    between atoms: C_28  and  O_30
REMARK   12  A    between atoms: C_31  and  O_32
REMARK   13  A    between atoms: C_37  and  O_38
REMARK                            x       y       z     vdW  Elec       q    Type
REMARK                         _______ _______ _______ _____ _____    ______ ____
ROOT
ATOM      1  C   UNL     1       1.991  -1.177  -1.334  0.00  0.00    +0.000 C 
ATOM      2  C   UNL     1       2.933  -0.250  -0.528  0.00  0.00    +0.000 C 
ATOM      3  N   UNL     1       3.862   0.505  -1.370  0.00  0.00    +0.000 NA
ATOM      4  C   UNL     1       3.367   1.768  -1.891  0.00  0.00    +0.000 C 
ATOM      5  C   UNL     1       1.879   1.903  -2.211  0.00  0.00    +0.000 C 
ATOM      6  C   UNL     1       1.269   0.713  -2.950  0.00  0.00    +0.000 C 
ATOM      7  C   UNL     1       0.828  -0.438  -2.032  0.00  0.00    +0.000 C 
ATOM      8  H   UNL     1       1.545  -1.867  -0.604  0.00  0.00    +0.000 HD
ATOM      9  H   UNL     1       3.552  -0.886   0.117  0.00  0.00    +0.000 HD
ATOM     10  H   UNL     1       2.375   0.405   0.153  0.00  0.00    +0.000 HD
ATOM     11  H   UNL     1       4.193  -0.102  -2.118  0.00  0.00    +0.000 HD
ATOM     12  H   UNL     1       3.942   1.999  -2.797  0.00  0.00    +0.000 HD
ATOM     13  H   UNL     1       3.630   2.557  -1.175  0.00  0.00    +0.000 HD
ATOM     14  H   UNL     1       1.763   2.791  -2.847  0.00  0.00    +0.000 HD
ATOM     15  H   UNL     1       1.318   2.122  -1.295  0.00  0.00    +0.000 HD
ATOM     16  H   UNL     1       1.949   0.350  -3.728  0.00  0.00    +0.000 HD
ATOM     17  H   UNL     1       0.380   1.086  -3.474  0.00  0.00    +0.000 HD
ATOM     18  H   UNL     1       0.288  -1.182  -2.634  0.00  0.00    +0.000 HD
ENDROOT
BRANCH   1  21
ATOM     19  O   UNL     1       3.104  -3.758  -0.899  0.00  0.00    +0.000 OA
ATOM     20  C   UNL     1       3.236  -3.235  -1.999  0.00  0.00    +0.000 C 
ATOM     21  N   UNL     1       2.745  -1.986  -2.307  0.00  0.00    +0.000 N 
ATOM     22  H   UNL     1       2.865  -1.620  -3.241  0.00  0.00    +0.000 HD
BRANCH  20  23
ATOM     23  C   UNL     1       3.888  -3.981  -3.111  0.00  0.00    +0.000 A 
ATOM     24  C   UNL     1       3.780  -5.379  -3.112  0.00  0.00    +0.000 A 
ATOM     25  C   UNL     1       4.344  -6.132  -4.145  0.00  0.00    +0.000 A 
ATOM     26  C   UNL     1       5.023  -5.481  -5.169  0.00  0.00    +0.000 A 
ATOM     27  C   UNL     1       5.151  -4.095  -5.174  0.00  0.00    +0.000 A 
ATOM     28  C   UNL     1       4.588  -3.339  -4.142  0.00  0.00    +0.000 A 
ATOM     29  H   UNL     1       3.245  -5.884  -2.309  0.00  0.00    +0.000 HD
ATOM     30  H   UNL     1       4.244  -7.212  -4.130  0.00  0.00    +0.000 HD
ATOM     31  H   UNL     1       5.700  -3.608  -5.976  0.00  0.00    +0.000 HD
ATOM     32  H   UNL     1       4.727  -2.263  -4.150  0.00  0.00    +0.000 HD
BRANCH  26  33
ATOM     33  O   UNL     1       5.590  -6.174  -6.195  0.00  0.00    +0.000 OA
ATOM     34  H   UNL     1       5.442  -7.123  -6.051  0.00  0.00    +0.000 HD
ENDBRANCH  26  33
ENDBRANCH  20  23
ENDBRANCH   1  21
BRANCH   7  35
ATOM     35  O   UNL     1      -0.071   0.054  -1.017  0.00  0.00    +0.000 OA
BRANCH  35  36
ATOM     36  C   UNL     1      -1.349   0.285  -1.393  0.00  0.00    +0.000 C 
ATOM     37  O   UNL     1      -1.820   0.130  -2.512  0.00  0.00    +0.000 OA
BRANCH  36  38
ATOM     38  C   UNL     1      -2.145   0.760  -0.238  0.00  0.00    +0.000 A 
ATOM     39  C   UNL     1      -3.499   1.055  -0.411  0.00  0.00    +0.000 A 
ATOM     40  C   UNL     1      -4.261   1.466   0.685  0.00  0.00    +0.000 A 
ATOM     41  C   UNL     1      -3.703   1.566   1.978  0.00  0.00    +0.000 A 
ATOM     42  C   UNL     1      -2.346   1.241   2.130  0.00  0.00    +0.000 A 
ATOM     43  C   UNL     1      -1.573   0.884   1.026  0.00  0.00    +0.000 A 
ATOM     44  H   UNL     1      -3.945   0.969  -1.401  0.00  0.00    +0.000 HD
ATOM     45  H   UNL     1      -0.517   0.682   1.187  0.00  0.00    +0.000 HD
BRANCH  40  46
ATOM     46  O   UNL     1      -5.564   1.807   0.459  0.00  0.00    +0.000 OA
ATOM     47  H   UNL     1      -5.875   1.425  -0.388  0.00  0.00    +0.000 HD
ENDBRANCH  40  46
BRANCH  41  48
ATOM     48  C   UNL     1      -4.585   1.959   3.120  0.00  0.00    +0.000 C 
ATOM     49  O   UNL     1      -5.745   1.563   3.146  0.00  0.00    +0.000 OA
BRANCH  48  50
ATOM     50  C   UNL     1      -4.082   2.687   4.319  0.00  0.00    +0.000 A 
ATOM     51  C   UNL     1      -3.067   3.663   4.216  0.00  0.00    +0.000 A 
ATOM     52  C   UNL     1      -2.431   4.158   5.356  0.00  0.00    +0.000 A 
ATOM     53  C   UNL     1      -2.838   3.752   6.619  0.00  0.00    +0.000 A 
ATOM     54  C   UNL     1      -3.902   2.865   6.742  0.00  0.00    +0.000 A 
ATOM     55  C   UNL     1      -4.536   2.318   5.608  0.00  0.00    +0.000 A 
ATOM     56  H   UNL     1      -1.598   4.852   5.255  0.00  0.00    +0.000 HD
ATOM     57  H   UNL     1      -2.333   4.127   7.506  0.00  0.00    +0.000 HD
ATOM     58  H   UNL     1      -4.224   2.569   7.742  0.00  0.00    +0.000 HD
BRANCH  51  59
ATOM     59  O   UNL     1      -2.556   4.164   3.049  0.00  0.00    +0.000 OA
ATOM     60  H   UNL     1      -3.101   3.944   2.277  0.00  0.00    +0.000 HD
ENDBRANCH  51  59
BRANCH  55  61
ATOM     61  C   UNL     1      -5.616   1.341   5.950  0.00  0.00    +0.000 C 
ATOM     62  O   UNL     1      -6.278   1.446   6.972  0.00  0.00    +0.000 OA
BRANCH  61  63
ATOM     63  O   UNL     1      -5.618   0.219   5.206  0.00  0.00    +0.000 OA
ATOM     64  H   UNL     1      -5.802   0.444   4.262  0.00  0.00    +0.000 HD
ENDBRANCH  61  63
ENDBRANCH  55  61
ENDBRANCH  48  50
ENDBRANCH  41  48
BRANCH  42  65
ATOM     65  O   UNL     1      -1.621   1.202   3.288  0.00  0.00    +0.000 OA
ATOM     66  H   UNL     1      -2.137   1.377   4.087  0.00  0.00    +0.000 HD
ENDBRANCH  42  65
ENDBRANCH  36  38
ENDBRANCH  35  36
ENDBRANCH   7  35
TORSDOF 13
