REMARK  Name = 
REMARK  6 active torsions:
REMARK  status: ('A' for Active; 'I' for Inactive)
REMARK    1  A    between atoms: C_1  and  C_2
REMARK    2  A    between atoms: C_2  and  N_3
REMARK    3  A    between atoms: N_20  and  C_21
REMARK    4  A    between atoms: C_21  and  C_22
REMARK    5  A    between atoms: C_22  and  C_23
REMARK    6  A    between atoms: C_23  and  O_24
REMARK                            x       y       z     vdW  Elec       q    Type
REMARK                         _______ _______ _______ _____ _____    ______ ____
ROOT
ATOM      1  N   UNL     1      -2.708   0.521   3.232  0.00  0.00    +0.000 N 
ATOM      2  C   UNL     1      -2.283   0.256   4.548  0.00  0.00    +0.000 A 
ATOM      3  C   UNL     1      -1.623  -0.943   4.432  0.00  0.00    +0.000 A 
ATOM      4  C   UNL     1      -0.865  -0.646   3.268  0.00  0.00    +0.000 A 
ATOM      5  C   UNL     1       0.463  -0.904   2.953  0.00  0.00    +0.000 A 
ATOM      6  C   UNL     1       0.924  -0.546   1.701  0.00  0.00    +0.000 A 
ATOM      7  C   UNL     1       0.049  -0.138   0.682  0.00  0.00    +0.000 A 
ATOM      8  C   UNL     1      -1.345   0.124   0.970  0.00  0.00    +0.000 A 
ATOM      9  C   UNL     1      -2.150   0.363  -0.158  0.00  0.00    +0.000 A 
ATOM     10  C   UNL     1      -1.677   0.421  -1.515  0.00  0.00    +0.000 A 
ATOM     11  C   UNL     1      -0.294   0.200  -1.726  0.00  0.00    +0.000 A 
ATOM     12  C   UNL     1       0.322   0.138  -2.985  0.00  0.00    +0.000 A 
ATOM     13  C   UNL     1      -0.012   0.242  -4.355  0.00  0.00    +0.000 A 
ATOM     14  C   UNL     1       0.972   0.122  -5.347  0.00  0.00    +0.000 A 
ATOM     15  C   UNL     1       2.294  -0.107  -5.005  0.00  0.00    +0.000 A 
ATOM     16  C   UNL     1       2.659  -0.238  -3.668  0.00  0.00    +0.000 A 
ATOM     17  C   UNL     1       1.666  -0.117  -2.671  0.00  0.00    +0.000 A 
ATOM     18  N   UNL     1       1.779  -0.206  -1.280  0.00  0.00    +0.000 N 
ATOM     19  C   UNL     1       0.537  -0.052  -0.661  0.00  0.00    +0.000 A 
ATOM     20  C   UNL     1      -2.783   0.644  -2.404  0.00  0.00    +0.000 C 
ATOM     21  O   UNL     1      -2.944   0.677  -3.629  0.00  0.00    +0.000 OA
ATOM     22  N   UNL     1      -3.835   0.780  -1.545  0.00  0.00    +0.000 N 
ATOM     23  C   UNL     1      -3.585   0.425  -0.246  0.00  0.00    +0.000 C 
ATOM     24  O   UNL     1      -4.501   0.128   0.507  0.00  0.00    +0.000 OA
ATOM     25  C   UNL     1      -1.718   0.035   2.361  0.00  0.00    +0.000 A 
ATOM     26  H   UNL     1      -1.998   1.132   5.124  0.00  0.00    +0.000 HD
ATOM     27  H   UNL     1      -2.198  -1.869   4.459  0.00  0.00    +0.000 HD
ATOM     28  H   UNL     1       1.139  -1.310   3.699  0.00  0.00    +0.000 HD
ATOM     29  H   UNL     1       1.982  -0.675   1.564  0.00  0.00    +0.000 HD
ATOM     30  H   UNL     1      -1.028   0.415  -4.687  0.00  0.00    +0.000 HD
ATOM     31  H   UNL     1       0.691   0.212  -6.394  0.00  0.00    +0.000 HD
ATOM     32  H   UNL     1       3.050  -0.187  -5.782  0.00  0.00    +0.000 HD
ATOM     33  H   UNL     1       3.699  -0.424  -3.419  0.00  0.00    +0.000 HD
ATOM     34  H   UNL     1      -4.775   0.778  -1.904  0.00  0.00    +0.000 HD
ENDROOT
BRANCH   1  35
ATOM     35  C   UNL     1      -3.742   1.528   3.090  0.00  0.00    +0.000 C 
ATOM     36  H   UNL     1      -4.397   1.280   2.270  0.00  0.00    +0.000 HD
ATOM     37  H   UNL     1      -4.376   1.443   3.986  0.00  0.00    +0.000 HD
BRANCH  35  38
ATOM     38  C   UNL     1      -3.233   2.953   3.009  0.00  0.00    +0.000 C 
ATOM     39  H   UNL     1      -4.021   3.603   2.615  0.00  0.00    +0.000 HD
ATOM     40  H   UNL     1      -2.350   3.042   2.373  0.00  0.00    +0.000 HD
ATOM     41  H   UNL     1      -2.974   3.326   4.007  0.00  0.00    +0.000 HD
ENDBRANCH  35  38
ENDBRANCH   1  35
BRANCH  18  42
ATOM     42  C   UNL     1       3.073  -0.385  -0.631  0.00  0.00    +0.000 C 
ATOM     43  H   UNL     1       3.104   0.273   0.242  0.00  0.00    +0.000 HD
ATOM     44  H   UNL     1       3.844   0.020  -1.293  0.00  0.00    +0.000 HD
BRANCH  42  45
ATOM     45  C   UNL     1       3.383  -1.852  -0.308  0.00  0.00    +0.000 C 
ATOM     46  H   UNL     1       3.499  -2.407  -1.246  0.00  0.00    +0.000 HD
ATOM     47  H   UNL     1       2.559  -2.332   0.232  0.00  0.00    +0.000 HD
BRANCH  45  48
ATOM     48  C   UNL     1       4.657  -1.974   0.516  0.00  0.00    +0.000 C 
ATOM     49  H   UNL     1       4.892  -3.023   0.722  0.00  0.00    +0.000 HD
ATOM     50  H   UNL     1       4.551  -1.458   1.477  0.00  0.00    +0.000 HD
BRANCH  48  51
ATOM     51  O   UNL     1       5.748  -1.391  -0.180  0.00  0.00    +0.000 OA
ATOM     52  H   UNL     1       5.876  -1.894  -1.003  0.00  0.00    +0.000 HD
ENDBRANCH  48  51
ENDBRANCH  45  48
ENDBRANCH  42  45
ENDBRANCH  18  42
TORSDOF 6
