REMARK  Name = 
REMARK  3 active torsions:
REMARK  status: ('A' for Active; 'I' for Inactive)
REMARK    1  A    between atoms: C_1  and  N_2
REMARK    2  A    between atoms: C_4  and  C_5
REMARK    3  A    between atoms: C_6  and  C_7
REMARK                            x       y       z     vdW  Elec       q    Type
REMARK                         _______ _______ _______ _____ _____    ______ ____
ROOT
ATOM      1  C   UNL     1      -0.582  -1.202  -1.273  0.00  0.00    +0.000 C 
ATOM      2  C   UNL     1      -0.010  -1.983  -0.345  0.00  0.00    +0.000 C 
ATOM      3  C   UNL     1      -0.209  -3.389  -0.768  0.00  0.00    +0.000 C 
ATOM      4  O   UNL     1       0.187  -4.385  -0.192  0.00  0.00    +0.000 OA
ATOM      5  N   UNL     1      -0.902  -3.364  -1.923  0.00  0.00    +0.000 N 
ATOM      6  C   UNL     1      -1.172  -2.095  -2.296  0.00  0.00    +0.000 C 
ATOM      7  O   UNL     1      -1.793  -1.760  -3.288  0.00  0.00    +0.000 OA
ATOM      8  H   UNL     1      -1.179  -4.181  -2.440  0.00  0.00    +0.000 HD
ENDROOT
BRANCH   2   9
ATOM      9  C   UNL     1       0.685  -1.619   0.832  0.00  0.00    +0.000 A 
ATOM     10  C   UNL     1       2.035  -1.353   0.886  0.00  0.00    +0.000 A 
ATOM     11  N   UNL     1       2.360  -1.113   2.196  0.00  0.00    +0.000 N 
ATOM     12  C   UNL     1       1.240  -1.213   2.991  0.00  0.00    +0.000 A 
ATOM     13  C   UNL     1       1.106  -1.082   4.378  0.00  0.00    +0.000 A 
ATOM     14  C   UNL     1      -0.170  -1.242   4.913  0.00  0.00    +0.000 A 
ATOM     15  F   UNL     1      -0.335  -1.142   6.240  0.00  0.00    +0.000 F 
ATOM     16  C   UNL     1      -1.274  -1.504   4.113  0.00  0.00    +0.000 A 
ATOM     17  C   UNL     1      -1.125  -1.635   2.726  0.00  0.00    +0.000 A 
ATOM     18  C   UNL     1       0.159  -1.502   2.152  0.00  0.00    +0.000 A 
ATOM     19  H   UNL     1       2.798  -1.335   0.119  0.00  0.00    +0.000 HD
ATOM     20  H   UNL     1       3.290  -0.914   2.538  0.00  0.00    +0.000 HD
ATOM     21  H   UNL     1       1.953  -0.879   5.024  0.00  0.00    +0.000 HD
ATOM     22  H   UNL     1      -2.251  -1.617   4.573  0.00  0.00    +0.000 HD
ATOM     23  H   UNL     1      -1.990  -1.848   2.106  0.00  0.00    +0.000 HD
ENDBRANCH   2   9
BRANCH   1  26
ATOM     24  N   UNL     1      -1.358   2.290  -1.033  0.00  0.00    +0.000 N 
ATOM     25  C   UNL     1      -1.624   0.977  -0.744  0.00  0.00    +0.000 A 
ATOM     26  C   UNL     1      -0.646   0.212  -1.337  0.00  0.00    +0.000 A 
ATOM     27  C   UNL     1       0.256   1.090  -2.007  0.00  0.00    +0.000 A 
ATOM     28  C   UNL     1       1.433   0.910  -2.764  0.00  0.00    +0.000 A 
ATOM     29  C   UNL     1       2.080   2.023  -3.313  0.00  0.00    +0.000 A 
ATOM     30  C   UNL     1       1.572   3.304  -3.122  0.00  0.00    +0.000 A 
ATOM     31  C   UNL     1       0.412   3.511  -2.371  0.00  0.00    +0.000 A 
ATOM     32  C   UNL     1      -0.225   2.390  -1.816  0.00  0.00    +0.000 A 
ATOM     33  H   UNL     1      -2.485   0.699  -0.147  0.00  0.00    +0.000 HD
ATOM     34  H   UNL     1       1.838  -0.084  -2.928  0.00  0.00    +0.000 HD
ATOM     35  H   UNL     1       2.984   1.884  -3.901  0.00  0.00    +0.000 HD
ATOM     36  H   UNL     1       2.082   4.157  -3.564  0.00  0.00    +0.000 HD
ATOM     37  H   UNL     1       0.021   4.514  -2.230  0.00  0.00    +0.000 HD
BRANCH  24  38
ATOM     38  C   UNL     1      -2.146   3.414  -0.580  0.00  0.00    +0.000 C 
ATOM     39  H   UNL     1      -2.993   3.054   0.010  0.00  0.00    +0.000 HD
ATOM     40  H   UNL     1      -2.508   3.959  -1.455  0.00  0.00    +0.000 HD
ATOM     41  H   UNL     1      -1.510   4.053   0.039  0.00  0.00    +0.000 HD
ENDBRANCH  24  38
ENDBRANCH   1  26
TORSDOF 3
