MODEL 1
REMARK VINA RESULT:   -11.754      0.000      0.000
REMARK INTER + INTRA:         -12.874
REMARK INTER:                 -12.784
REMARK INTRA:                  -0.090
REMARK UNBOUND:                -0.090
REMARK  Name = 
REMARK  2 active torsions:
REMARK  status: ('A' for Active; 'I' for Inactive)
REMARK    1  A    between atoms: C_27  and  C_28
REMARK    2  A    between atoms: C_28  and  O_29
REMARK                            x       y       z     vdW  Elec       q    Type
REMARK                         _______ _______ _______ _____ _____    ______ ____
ROOT
ATOM      1  O   UNL     1     -10.755  -2.807  16.658  0.00  0.00    +0.000 OA
ATOM      2  C   UNL     1     -10.357  -3.938  16.403  0.00  0.00    +0.000 C 
ATOM      3  N   UNL     1     -10.571  -4.505  15.147  0.00  0.00    +0.000 N 
ATOM      4  C   UNL     1      -9.818  -5.599  14.886  0.00  0.00    +0.000 C 
ATOM      5  O   UNL     1      -9.464  -5.957  13.769  0.00  0.00    +0.000 OA
ATOM      6  C   UNL     1      -9.496  -6.033  16.199  0.00  0.00    +0.000 A 
ATOM      7  C   UNL     1      -9.669  -4.960  17.135  0.00  0.00    +0.000 A 
ATOM      8  C   UNL     1      -9.011  -5.092  18.439  0.00  0.00    +0.000 A 
ATOM      9  C   UNL     1      -8.692  -4.278  19.575  0.00  0.00    +0.000 A 
ATOM     10  C   UNL     1      -9.040  -3.088  20.278  0.00  0.00    +0.000 A 
ATOM     11  C   UNL     1      -8.248  -2.660  21.392  0.00  0.00    +0.000 A 
ATOM     12  C   UNL     1      -7.105  -3.345  21.780  0.00  0.00    +0.000 A 
ATOM     13  F   UNL     1      -6.314  -2.884  22.760  0.00  0.00    +0.000 F 
ATOM     14  C   UNL     1      -6.799  -4.551  21.200  0.00  0.00    +0.000 A 
ATOM     15  C   UNL     1      -7.634  -5.010  20.185  0.00  0.00    +0.000 A 
ATOM     16  N   UNL     1      -7.581  -6.246  19.648  0.00  0.00    +0.000 N 
ATOM     17  C   UNL     1      -8.501  -6.337  18.674  0.00  0.00    +0.000 A 
ATOM     18  C   UNL     1      -8.764  -7.445  17.934  0.00  0.00    +0.000 A 
ATOM     19  C   UNL     1      -9.188  -7.317  16.664  0.00  0.00    +0.000 A 
ATOM     20  C   UNL     1      -9.272  -8.510  15.977  0.00  0.00    +0.000 A 
ATOM     21  C   UNL     1      -9.605  -8.997  14.703  0.00  0.00    +0.000 A 
ATOM     22  C   UNL     1      -9.555 -10.380  14.477  0.00  0.00    +0.000 A 
ATOM     23  C   UNL     1      -9.167 -11.270  15.488  0.00  0.00    +0.000 A 
ATOM     24  C   UNL     1      -8.845 -10.806  16.760  0.00  0.00    +0.000 A 
ATOM     25  C   UNL     1      -8.915  -9.431  16.967  0.00  0.00    +0.000 A 
ATOM     26  N   UNL     1      -8.647  -8.773  18.169  0.00  0.00    +0.000 N 
ATOM     27  C   UNL     1      -8.293  -9.522  19.377  0.00  0.00    +0.000 C 
ATOM     28  C   UNL     1      -8.724 -11.009  19.242  0.00  0.00    +0.000 C 
ATOM     29  C   UNL     1      -8.366 -11.656  17.894  0.00  0.00    +0.000 C 
ATOM     30  H   UNL     1     -10.981  -4.012  14.372  0.00  0.00    +0.000 HD
ATOM     31  H   UNL     1      -9.947  -2.529  20.058  0.00  0.00    +0.000 HD
ATOM     32  H   UNL     1      -8.518  -1.783  21.980  0.00  0.00    +0.000 HD
ATOM     33  H   UNL     1      -5.955  -5.143  21.545  0.00  0.00    +0.000 HD
ATOM     34  H   UNL     1      -6.947  -6.977  19.927  0.00  0.00    +0.000 HD
ATOM     35  H   UNL     1      -9.874  -8.329  13.890  0.00  0.00    +0.000 HD
ATOM     36  H   UNL     1      -9.818 -10.759  13.492  0.00  0.00    +0.000 HD
ATOM     37  H   UNL     1      -9.150 -12.340  15.273  0.00  0.00    +0.000 HD
ATOM     38  H   UNL     1      -7.198  -9.461  19.420  0.00  0.00    +0.000 HD
ATOM     39  H   UNL     1      -9.813 -11.078  19.370  0.00  0.00    +0.000 HD
ATOM     40  H   UNL     1      -8.272 -11.586  20.057  0.00  0.00    +0.000 HD
ATOM     41  H   UNL     1      -8.819 -12.649  17.846  0.00  0.00    +0.000 HD
ATOM     42  H   UNL     1      -7.278 -11.762  17.816  0.00  0.00    +0.000 HD
ENDROOT
BRANCH  27  43
ATOM     43  C   UNL     1      -8.861  -8.996  20.722  0.00  0.00    +0.000 C 
ATOM     44  H   UNL     1      -9.850  -8.550  20.659  0.00  0.00    +0.000 HD
ATOM     45  H   UNL     1      -8.209  -8.190  21.081  0.00  0.00    +0.000 HD
BRANCH  43  46
ATOM     46  O   UNL     1      -8.901  -9.982  21.745  0.00  0.00    +0.000 OA
ATOM     47  H   UNL     1      -9.292 -10.789  21.365  0.00  0.00    +0.000 HD
ENDBRANCH  43  46
ENDBRANCH  27  43
TORSDOF 2
ENDMDL
MODEL 2
REMARK VINA RESULT:   -11.088      2.743      6.578
REMARK INTER + INTRA:         -12.150
REMARK INTER:                 -12.006
REMARK INTRA:                  -0.144
REMARK UNBOUND:                -0.090
REMARK  Name = 
REMARK  2 active torsions:
REMARK  status: ('A' for Active; 'I' for Inactive)
REMARK    1  A    between atoms: C_27  and  C_28
REMARK    2  A    between atoms: C_28  and  O_29
REMARK                            x       y       z     vdW  Elec       q    Type
REMARK                         _______ _______ _______ _____ _____    ______ ____
ROOT
ATOM      1  O   UNL     1     -11.871  -5.137  15.365  0.00  0.00    +0.000 OA
ATOM      2  C   UNL     1     -11.433  -4.706  16.426  0.00  0.00    +0.000 C 
ATOM      3  N   UNL     1     -11.893  -3.499  16.951  0.00  0.00    +0.000 N 
ATOM      4  C   UNL     1     -11.586  -3.295  18.254  0.00  0.00    +0.000 C 
ATOM      5  O   UNL     1     -12.245  -2.619  19.033  0.00  0.00    +0.000 OA
ATOM      6  C   UNL     1     -10.469  -4.159  18.412  0.00  0.00    +0.000 A 
ATOM      7  C   UNL     1     -10.452  -5.146  17.372  0.00  0.00    +0.000 A 
ATOM      8  C   UNL     1      -9.632  -6.342  17.595  0.00  0.00    +0.000 A 
ATOM      9  C   UNL     1      -9.447  -7.645  17.027  0.00  0.00    +0.000 A 
ATOM     10  C   UNL     1      -9.619  -8.427  15.849  0.00  0.00    +0.000 A 
ATOM     11  C   UNL     1      -9.335  -9.831  15.875  0.00  0.00    +0.000 A 
ATOM     12  C   UNL     1      -8.945 -10.474  17.041  0.00  0.00    +0.000 A 
ATOM     13  F   UNL     1      -8.776 -11.803  17.082  0.00  0.00    +0.000 F 
ATOM     14  C   UNL     1      -8.662  -9.740  18.167  0.00  0.00    +0.000 A 
ATOM     15  C   UNL     1      -8.845  -8.361  18.101  0.00  0.00    +0.000 A 
ATOM     16  N   UNL     1      -8.440  -7.488  19.046  0.00  0.00    +0.000 N 
ATOM     17  C   UNL     1      -8.807  -6.249  18.679  0.00  0.00    +0.000 A 
ATOM     18  C   UNL     1      -8.538  -5.108  19.365  0.00  0.00    +0.000 A 
ATOM     19  C   UNL     1      -9.398  -4.075  19.309  0.00  0.00    +0.000 A 
ATOM     20  C   UNL     1      -9.088  -3.040  20.166  0.00  0.00    +0.000 A 
ATOM     21  C   UNL     1      -9.579  -1.784  20.559  0.00  0.00    +0.000 A 
ATOM     22  C   UNL     1      -8.859  -1.047  21.509  0.00  0.00    +0.000 A 
ATOM     23  C   UNL     1      -7.679  -1.547  22.078  0.00  0.00    +0.000 A 
ATOM     24  C   UNL     1      -7.172  -2.785  21.692  0.00  0.00    +0.000 A 
ATOM     25  C   UNL     1      -7.894  -3.494  20.737  0.00  0.00    +0.000 A 
ATOM     26  N   UNL     1      -7.547  -4.739  20.210  0.00  0.00    +0.000 N 
ATOM     27  C   UNL     1      -6.309  -5.411  20.613  0.00  0.00    +0.000 C 
ATOM     28  C   UNL     1      -5.320  -4.394  21.248  0.00  0.00    +0.000 C 
ATOM     29  C   UNL     1      -5.958  -3.439  22.271  0.00  0.00    +0.000 C 
ATOM     30  H   UNL     1     -12.643  -2.962  16.549  0.00  0.00    +0.000 HD
ATOM     31  H   UNL     1      -9.877  -7.981  14.890  0.00  0.00    +0.000 HD
ATOM     32  H   UNL     1      -9.409 -10.445  14.978  0.00  0.00    +0.000 HD
ATOM     33  H   UNL     1      -8.276 -10.214  19.065  0.00  0.00    +0.000 HD
ATOM     34  H   UNL     1      -7.951  -7.728  19.893  0.00  0.00    +0.000 HD
ATOM     35  H   UNL     1     -10.509  -1.386  20.162  0.00  0.00    +0.000 HD
ATOM     36  H   UNL     1      -9.235  -0.072  21.810  0.00  0.00    +0.000 HD
ATOM     37  H   UNL     1      -7.144  -0.938  22.809  0.00  0.00    +0.000 HD
ATOM     38  H   UNL     1      -6.632  -6.132  21.375  0.00  0.00    +0.000 HD
ATOM     39  H   UNL     1      -4.873  -3.784  20.451  0.00  0.00    +0.000 HD
ATOM     40  H   UNL     1      -4.500  -4.945  21.723  0.00  0.00    +0.000 HD
ATOM     41  H   UNL     1      -5.219  -2.687  22.561  0.00  0.00    +0.000 HD
ATOM     42  H   UNL     1      -6.255  -4.002  23.162  0.00  0.00    +0.000 HD
ENDROOT
BRANCH  27  43
ATOM     43  C   UNL     1      -5.536  -6.182  19.511  0.00  0.00    +0.000 C 
ATOM     44  H   UNL     1      -6.156  -6.793  18.859  0.00  0.00    +0.000 HD
ATOM     45  H   UNL     1      -4.854  -6.889  19.998  0.00  0.00    +0.000 HD
BRANCH  43  46
ATOM     46  O   UNL     1      -4.741  -5.344  18.684  0.00  0.00    +0.000 OA
ATOM     47  H   UNL     1      -4.650  -4.484  19.133  0.00  0.00    +0.000 HD
ENDBRANCH  43  46
ENDBRANCH  27  43
TORSDOF 2
ENDMDL
MODEL 3
REMARK VINA RESULT:   -10.844      2.693      5.288
REMARK INTER + INTRA:         -11.885
REMARK INTER:                 -11.794
REMARK INTRA:                  -0.091
REMARK UNBOUND:                -0.090
REMARK  Name = 
REMARK  2 active torsions:
REMARK  status: ('A' for Active; 'I' for Inactive)
REMARK    1  A    between atoms: C_27  and  C_28
REMARK    2  A    between atoms: C_28  and  O_29
REMARK                            x       y       z     vdW  Elec       q    Type
REMARK                         _______ _______ _______ _____ _____    ______ ____
ROOT
ATOM      1  O   UNL     1      -8.128  -4.826  20.103  0.00  0.00    +0.000 OA
ATOM      2  C   UNL     1      -8.348  -5.999  19.824  0.00  0.00    +0.000 C 
ATOM      3  N   UNL     1      -8.040  -7.018  20.724  0.00  0.00    +0.000 N 
ATOM      4  C   UNL     1      -8.617  -8.211  20.447  0.00  0.00    +0.000 C 
ATOM      5  O   UNL     1      -8.903  -9.063  21.279  0.00  0.00    +0.000 OA
ATOM      6  C   UNL     1      -8.881  -8.073  19.058  0.00  0.00    +0.000 A 
ATOM      7  C   UNL     1      -8.879  -6.688  18.686  0.00  0.00    +0.000 A 
ATOM      8  C   UNL     1      -9.521  -6.333  17.415  0.00  0.00    +0.000 A 
ATOM      9  C   UNL     1      -9.969  -5.161  16.723  0.00  0.00    +0.000 A 
ATOM     10  C   UNL     1      -9.811  -3.749  16.619  0.00  0.00    +0.000 A 
ATOM     11  C   UNL     1     -10.668  -2.995  15.753  0.00  0.00    +0.000 A 
ATOM     12  C   UNL     1     -11.698  -3.598  15.043  0.00  0.00    +0.000 A 
ATOM     13  F   UNL     1     -12.557  -2.874  14.312  0.00  0.00    +0.000 F 
ATOM     14  C   UNL     1     -11.813  -4.966  15.030  0.00  0.00    +0.000 A 
ATOM     15  C   UNL     1     -10.910  -5.697  15.797  0.00  0.00    +0.000 A 
ATOM     16  N   UNL     1     -10.770  -7.038  15.747  0.00  0.00    +0.000 N 
ATOM     17  C   UNL     1      -9.839  -7.411  16.640  0.00  0.00    +0.000 A 
ATOM     18  C   UNL     1      -9.405  -8.682  16.846  0.00  0.00    +0.000 A 
ATOM     19  C   UNL     1      -8.995  -9.058  18.071  0.00  0.00    +0.000 A 
ATOM     20  C   UNL     1      -8.726 -10.406  18.182  0.00  0.00    +0.000 A 
ATOM     21  C   UNL     1      -8.312 -11.346  19.141  0.00  0.00    +0.000 A 
ATOM     22  C   UNL     1      -8.150 -12.682  18.749  0.00  0.00    +0.000 A 
ATOM     23  C   UNL     1      -8.408 -13.091  17.432  0.00  0.00    +0.000 A 
ATOM     24  C   UNL     1      -8.807 -12.171  16.467  0.00  0.00    +0.000 A 
ATOM     25  C   UNL     1      -8.948 -10.848  16.874  0.00  0.00    +0.000 A 
ATOM     26  N   UNL     1      -9.322  -9.779  16.058  0.00  0.00    +0.000 N 
ATOM     27  C   UNL     1      -9.569  -9.972  14.626  0.00  0.00    +0.000 C 
ATOM     28  C   UNL     1      -8.916 -11.294  14.135  0.00  0.00    +0.000 C 
ATOM     29  C   UNL     1      -9.162 -12.504  15.052  0.00  0.00    +0.000 C 
ATOM     30  H   UNL     1      -7.703  -6.857  21.659  0.00  0.00    +0.000 HD
ATOM     31  H   UNL     1      -8.997  -3.219  17.110  0.00  0.00    +0.000 HD
ATOM     32  H   UNL     1     -10.539  -1.923  15.615  0.00  0.00    +0.000 HD
ATOM     33  H   UNL     1     -12.560  -5.461  14.416  0.00  0.00    +0.000 HD
ATOM     34  H   UNL     1     -11.288  -7.657  15.146  0.00  0.00    +0.000 HD
ATOM     35  H   UNL     1      -8.140 -11.065  20.176  0.00  0.00    +0.000 HD
ATOM     36  H   UNL     1      -7.825 -13.409  19.489  0.00  0.00    +0.000 HD
ATOM     37  H   UNL     1      -8.261 -14.139  17.166  0.00  0.00    +0.000 HD
ATOM     38  H   UNL     1     -10.661 -10.053  14.551  0.00  0.00    +0.000 HD
ATOM     39  H   UNL     1      -7.830 -11.149  14.053  0.00  0.00    +0.000 HD
ATOM     40  H   UNL     1      -9.283 -11.519  13.127  0.00  0.00    +0.000 HD
ATOM     41  H   UNL     1      -8.563 -13.346  14.695  0.00  0.00    +0.000 HD
ATOM     42  H   UNL     1     -10.220 -12.785  15.014  0.00  0.00    +0.000 HD
ENDROOT
BRANCH  27  43
ATOM     43  C   UNL     1      -9.098  -8.842  13.673  0.00  0.00    +0.000 C 
ATOM     44  H   UNL     1      -8.025  -8.672  13.659  0.00  0.00    +0.000 HD
ATOM     45  H   UNL     1      -9.531  -7.896  14.020  0.00  0.00    +0.000 HD
BRANCH  43  46
ATOM     46  O   UNL     1      -9.521  -9.022  12.328  0.00  0.00    +0.000 OA
ATOM     47  H   UNL     1      -8.803  -8.713  11.747  0.00  0.00    +0.000 HD
ENDBRANCH  43  46
ENDBRANCH  27  43
TORSDOF 2
ENDMDL
MODEL 4
REMARK VINA RESULT:   -10.677      2.635      6.522
REMARK INTER + INTRA:         -11.703
REMARK INTER:                 -11.549
REMARK INTRA:                  -0.154
REMARK UNBOUND:                -0.090
REMARK  Name = 
REMARK  2 active torsions:
REMARK  status: ('A' for Active; 'I' for Inactive)
REMARK    1  A    between atoms: C_27  and  C_28
REMARK    2  A    between atoms: C_28  and  O_29
REMARK                            x       y       z     vdW  Elec       q    Type
REMARK                         _______ _______ _______ _____ _____    ______ ____
ROOT
ATOM      1  O   UNL     1     -11.144  -4.869  14.030  0.00  0.00    +0.000 OA
ATOM      2  C   UNL     1     -10.987  -4.401  15.152  0.00  0.00    +0.000 C 
ATOM      3  N   UNL     1     -11.499  -3.146  15.480  0.00  0.00    +0.000 N 
ATOM      4  C   UNL     1     -11.548  -2.885  16.808  0.00  0.00    +0.000 C 
ATOM      5  O   UNL     1     -12.352  -2.135  17.347  0.00  0.00    +0.000 OA
ATOM      6  C   UNL     1     -10.571  -3.790  17.303  0.00  0.00    +0.000 A 
ATOM      7  C   UNL     1     -10.330  -4.834  16.349  0.00  0.00    +0.000 A 
ATOM      8  C   UNL     1      -9.677  -6.053  16.839  0.00  0.00    +0.000 A 
ATOM      9  C   UNL     1      -9.423  -7.393  16.397  0.00  0.00    +0.000 A 
ATOM     10  C   UNL     1      -9.314  -8.230  15.250  0.00  0.00    +0.000 A 
ATOM     11  C   UNL     1      -9.133  -9.642  15.410  0.00  0.00    +0.000 A 
ATOM     12  C   UNL     1      -9.116 -10.236  16.664  0.00  0.00    +0.000 A 
ATOM     13  F   UNL     1      -9.046 -11.568  16.804  0.00  0.00    +0.000 F 
ATOM     14  C   UNL     1      -9.108  -9.455  17.793  0.00  0.00    +0.000 A 
ATOM     15  C   UNL     1      -9.182  -8.075  17.623  0.00  0.00    +0.000 A 
ATOM     16  N   UNL     1      -8.999  -7.170  18.608  0.00  0.00    +0.000 N 
ATOM     17  C   UNL     1      -9.176  -5.938  18.104  0.00  0.00    +0.000 A 
ATOM     18  C   UNL     1      -9.035  -4.774  18.790  0.00  0.00    +0.000 A 
ATOM     19  C   UNL     1      -9.783  -3.707  18.457  0.00  0.00    +0.000 A 
ATOM     20  C   UNL     1      -9.657  -2.642  19.323  0.00  0.00    +0.000 A 
ATOM     21  C   UNL     1     -10.159  -1.344  19.514  0.00  0.00    +0.000 A 
ATOM     22  C   UNL     1      -9.683  -0.590  20.595  0.00  0.00    +0.000 A 
ATOM     23  C   UNL     1      -8.736  -1.113  21.488  0.00  0.00    +0.000 A 
ATOM     24  C   UNL     1      -8.219  -2.392  21.307  0.00  0.00    +0.000 A 
ATOM     25  C   UNL     1      -8.694  -3.119  20.219  0.00  0.00    +0.000 A 
ATOM     26  N   UNL     1      -8.292  -4.406  19.859  0.00  0.00    +0.000 N 
ATOM     27  C   UNL     1      -7.255  -5.112  20.616  0.00  0.00    +0.000 C 
ATOM     28  C   UNL     1      -6.417  -4.109  21.457  0.00  0.00    +0.000 C 
ATOM     29  C   UNL     1      -7.251  -3.070  22.225  0.00  0.00    +0.000 C 
ATOM     30  H   UNL     1     -12.076  -2.598  14.866  0.00  0.00    +0.000 HD
ATOM     31  H   UNL     1      -9.273  -7.827  14.239  0.00  0.00    +0.000 HD
ATOM     32  H   UNL     1      -8.996 -10.301  14.553  0.00  0.00    +0.000 HD
ATOM     33  H   UNL     1      -9.012  -9.896  18.782  0.00  0.00    +0.000 HD
ATOM     34  H   UNL     1      -8.775  -7.386  19.565  0.00  0.00    +0.000 HD
ATOM     35  H   UNL     1     -10.919  -0.925  18.860  0.00  0.00    +0.000 HD
ATOM     36  H   UNL     1     -10.067   0.417  20.741  0.00  0.00    +0.000 HD
ATOM     37  H   UNL     1      -8.385  -0.489  22.312  0.00  0.00    +0.000 HD
ATOM     38  H   UNL     1      -7.817  -5.774  21.288  0.00  0.00    +0.000 HD
ATOM     39  H   UNL     1      -5.733  -3.567  20.790  0.00  0.00    +0.000 HD
ATOM     40  H   UNL     1      -5.793  -4.671  22.162  0.00  0.00    +0.000 HD
ATOM     41  H   UNL     1      -6.575  -2.339  22.677  0.00  0.00    +0.000 HD
ATOM     42  H   UNL     1      -7.815  -3.567  23.021  0.00  0.00    +0.000 HD
ENDROOT
BRANCH  27  43
ATOM     43  C   UNL     1      -6.259  -5.980  19.802  0.00  0.00    +0.000 C 
ATOM     44  H   UNL     1      -6.719  -6.657  19.088  0.00  0.00    +0.000 HD
ATOM     45  H   UNL     1      -5.716  -6.628  20.500  0.00  0.00    +0.000 HD
BRANCH  43  46
ATOM     46  O   UNL     1      -5.284  -5.217  19.103  0.00  0.00    +0.000 OA
ATOM     47  H   UNL     1      -5.030  -4.467  19.670  0.00  0.00    +0.000 HD
ENDBRANCH  43  46
ENDBRANCH  27  43
TORSDOF 2
ENDMDL
MODEL 5
REMARK VINA RESULT:    -9.521      3.033      7.022
REMARK INTER + INTRA:         -10.446
REMARK INTER:                 -10.066
REMARK INTRA:                  -0.379
REMARK UNBOUND:                -0.090
REMARK  Name = 
REMARK  2 active torsions:
REMARK  status: ('A' for Active; 'I' for Inactive)
REMARK    1  A    between atoms: C_27  and  C_28
REMARK    2  A    between atoms: C_28  and  O_29
REMARK                            x       y       z     vdW  Elec       q    Type
REMARK                         _______ _______ _______ _____ _____    ______ ____
ROOT
ATOM      1  O   UNL     1     -10.932  -4.403  13.658  0.00  0.00    +0.000 OA
ATOM      2  C   UNL     1     -11.125  -3.724  14.659  0.00  0.00    +0.000 C 
ATOM      3  N   UNL     1     -11.800  -2.507  14.578  0.00  0.00    +0.000 N 
ATOM      4  C   UNL     1     -12.231  -2.019  15.766  0.00  0.00    +0.000 C 
ATOM      5  O   UNL     1     -13.207  -1.294  15.914  0.00  0.00    +0.000 OA
ATOM      6  C   UNL     1     -11.362  -2.686  16.669  0.00  0.00    +0.000 A 
ATOM      7  C   UNL     1     -10.790  -3.845  16.047  0.00  0.00    +0.000 A 
ATOM      8  C   UNL     1     -10.206  -4.862  16.929  0.00  0.00    +0.000 A 
ATOM      9  C   UNL     1      -9.740  -6.215  16.855  0.00  0.00    +0.000 A 
ATOM     10  C   UNL     1      -9.257  -7.225  15.974  0.00  0.00    +0.000 A 
ATOM     11  C   UNL     1      -9.021  -8.550  16.465  0.00  0.00    +0.000 A 
ATOM     12  C   UNL     1      -9.304  -8.901  17.778  0.00  0.00    +0.000 A 
ATOM     13  F   UNL     1      -9.175 -10.165  18.205  0.00  0.00    +0.000 F 
ATOM     14  C   UNL     1      -9.665  -7.934  18.684  0.00  0.00    +0.000 A 
ATOM     15  C   UNL     1      -9.794  -6.628  18.217  0.00  0.00    +0.000 A 
ATOM     16  N   UNL     1      -9.956  -5.545  19.005  0.00  0.00    +0.000 N 
ATOM     17  C   UNL     1     -10.081  -4.458  18.227  0.00  0.00    +0.000 A 
ATOM     18  C   UNL     1     -10.223  -3.180  18.669  0.00  0.00    +0.000 A 
ATOM     19  C   UNL     1     -10.929  -2.296  17.942  0.00  0.00    +0.000 A 
ATOM     20  C   UNL     1     -11.126  -1.085  18.570  0.00  0.00    +0.000 A 
ATOM     21  C   UNL     1     -11.759   0.151  18.352  0.00  0.00    +0.000 A 
ATOM     22  C   UNL     1     -11.656   1.143  19.338  0.00  0.00    +0.000 A 
ATOM     23  C   UNL     1     -10.953   0.916  20.530  0.00  0.00    +0.000 A 
ATOM     24  C   UNL     1     -10.311  -0.298  20.757  0.00  0.00    +0.000 A 
ATOM     25  C   UNL     1     -10.413  -1.264  19.760  0.00  0.00    +0.000 A 
ATOM     26  N   UNL     1      -9.832  -2.533  19.790  0.00  0.00    +0.000 N 
ATOM     27  C   UNL     1      -8.992  -2.951  20.916  0.00  0.00    +0.000 C 
ATOM     28  C   UNL     1      -8.495  -1.714  21.714  0.00  0.00    +0.000 C 
ATOM     29  C   UNL     1      -9.583  -0.669  22.011  0.00  0.00    +0.000 C 
ATOM     30  H   UNL     1     -12.227  -2.157  13.737  0.00  0.00    +0.000 HD
ATOM     31  H   UNL     1      -8.971  -7.009  14.946  0.00  0.00    +0.000 HD
ATOM     32  H   UNL     1      -8.605  -9.329  15.828  0.00  0.00    +0.000 HD
ATOM     33  H   UNL     1      -9.811  -8.173  19.734  0.00  0.00    +0.000 HD
ATOM     34  H   UNL     1      -9.989  -5.554  20.011  0.00  0.00    +0.000 HD
ATOM     35  H   UNL     1     -12.340   0.343  17.455  0.00  0.00    +0.000 HD
ATOM     36  H   UNL     1     -12.140   2.101  19.168  0.00  0.00    +0.000 HD
ATOM     37  H   UNL     1     -10.890   1.717  21.268  0.00  0.00    +0.000 HD
ATOM     38  H   UNL     1      -9.664  -3.547  21.546  0.00  0.00    +0.000 HD
ATOM     39  H   UNL     1      -7.698  -1.217  21.144  0.00  0.00    +0.000 HD
ATOM     40  H   UNL     1      -8.048  -2.054  22.655  0.00  0.00    +0.000 HD
ATOM     41  H   UNL     1      -9.115   0.213  22.457  0.00  0.00    +0.000 HD
ATOM     42  H   UNL     1     -10.305  -1.083  22.724  0.00  0.00    +0.000 HD
ENDROOT
BRANCH  27  43
ATOM     43  C   UNL     1      -7.748  -3.816  20.581  0.00  0.00    +0.000 C 
ATOM     44  H   UNL     1      -6.821  -3.483  21.041  0.00  0.00    +0.000 HD
ATOM     45  H   UNL     1      -7.566  -3.756  19.501  0.00  0.00    +0.000 HD
BRANCH  43  46
ATOM     46  O   UNL     1      -7.912  -5.192  20.896  0.00  0.00    +0.000 OA
ATOM     47  H   UNL     1      -7.219  -5.690  20.426  0.00  0.00    +0.000 HD
ENDBRANCH  43  46
ENDBRANCH  27  43
TORSDOF 2
ENDMDL
MODEL 6
REMARK VINA RESULT:    -9.141      3.535      6.531
REMARK INTER + INTRA:         -10.032
REMARK INTER:                  -9.628
REMARK INTRA:                  -0.404
REMARK UNBOUND:                -0.090
REMARK  Name = 
REMARK  2 active torsions:
REMARK  status: ('A' for Active; 'I' for Inactive)
REMARK    1  A    between atoms: C_27  and  C_28
REMARK    2  A    between atoms: C_28  and  O_29
REMARK                            x       y       z     vdW  Elec       q    Type
REMARK                         _______ _______ _______ _____ _____    ______ ____
ROOT
ATOM      1  O   UNL     1      -5.844  -4.211  21.868  0.00  0.00    +0.000 OA
ATOM      2  C   UNL     1      -6.757  -4.367  21.066  0.00  0.00    +0.000 C 
ATOM      3  N   UNL     1      -6.827  -5.515  20.277  0.00  0.00    +0.000 N 
ATOM      4  C   UNL     1      -8.026  -5.721  19.683  0.00  0.00    +0.000 C 
ATOM      5  O   UNL     1      -8.480  -6.816  19.378  0.00  0.00    +0.000 OA
ATOM      6  C   UNL     1      -8.564  -4.406  19.685  0.00  0.00    +0.000 A 
ATOM      7  C   UNL     1      -7.893  -3.595  20.659  0.00  0.00    +0.000 A 
ATOM      8  C   UNL     1      -8.565  -2.362  21.084  0.00  0.00    +0.000 A 
ATOM      9  C   UNL     1      -8.455  -1.374  22.117  0.00  0.00    +0.000 A 
ATOM     10  C   UNL     1      -7.569  -0.787  23.065  0.00  0.00    +0.000 A 
ATOM     11  C   UNL     1      -8.063   0.175  24.005  0.00  0.00    +0.000 A 
ATOM     12  C   UNL     1      -9.406   0.519  24.057  0.00  0.00    +0.000 A 
ATOM     13  F   UNL     1      -9.878   1.345  25.002  0.00  0.00    +0.000 F 
ATOM     14  C   UNL     1     -10.270   0.061  23.093  0.00  0.00    +0.000 A 
ATOM     15  C   UNL     1      -9.757  -0.797  22.123  0.00  0.00    +0.000 A 
ATOM     16  N   UNL     1     -10.420  -1.182  21.012  0.00  0.00    +0.000 N 
ATOM     17  C   UNL     1      -9.648  -2.034  20.319  0.00  0.00    +0.000 A 
ATOM     18  C   UNL     1      -9.967  -2.601  19.127  0.00  0.00    +0.000 A 
ATOM     19  C   UNL     1      -9.499  -3.824  18.821  0.00  0.00    +0.000 A 
ATOM     20  C   UNL     1     -10.018  -4.348  17.656  0.00  0.00    +0.000 A 
ATOM     21  C   UNL     1      -9.944  -5.511  16.872  0.00  0.00    +0.000 A 
ATOM     22  C   UNL     1     -10.688  -5.572  15.685  0.00  0.00    +0.000 A 
ATOM     23  C   UNL     1     -11.508  -4.507  15.283  0.00  0.00    +0.000 A 
ATOM     24  C   UNL     1     -11.584  -3.342  16.042  0.00  0.00    +0.000 A 
ATOM     25  C   UNL     1     -10.826  -3.298  17.209  0.00  0.00    +0.000 A 
ATOM     26  N   UNL     1     -10.755  -2.220  18.094  0.00  0.00    +0.000 N 
ATOM     27  C   UNL     1     -11.478  -0.975  17.827  0.00  0.00    +0.000 C 
ATOM     28  C   UNL     1     -11.866  -0.881  16.325  0.00  0.00    +0.000 C 
ATOM     29  C   UNL     1     -12.465  -2.172  15.741  0.00  0.00    +0.000 C 
ATOM     30  H   UNL     1      -6.200  -6.296  20.367  0.00  0.00    +0.000 HD
ATOM     31  H   UNL     1      -6.497  -0.976  23.051  0.00  0.00    +0.000 HD
ATOM     32  H   UNL     1      -7.400   0.678  24.708  0.00  0.00    +0.000 HD
ATOM     33  H   UNL     1     -11.307   0.383  23.068  0.00  0.00    +0.000 HD
ATOM     34  H   UNL     1     -11.347  -0.886  20.753  0.00  0.00    +0.000 HD
ATOM     35  H   UNL     1      -9.346  -6.366  17.175  0.00  0.00    +0.000 HD
ATOM     36  H   UNL     1     -10.627  -6.469  15.074  0.00  0.00    +0.000 HD
ATOM     37  H   UNL     1     -12.064  -4.591  14.348  0.00  0.00    +0.000 HD
ATOM     38  H   UNL     1     -12.389  -1.057  18.435  0.00  0.00    +0.000 HD
ATOM     39  H   UNL     1     -10.970  -0.630  15.739  0.00  0.00    +0.000 HD
ATOM     40  H   UNL     1     -12.574  -0.055  16.191  0.00  0.00    +0.000 HD
ATOM     41  H   UNL     1     -12.583  -2.049  14.660  0.00  0.00    +0.000 HD
ATOM     42  H   UNL     1     -13.450  -2.352  16.184  0.00  0.00    +0.000 HD
ENDROOT
BRANCH  27  43
ATOM     43  C   UNL     1     -10.762   0.349  18.203  0.00  0.00    +0.000 C 
ATOM     44  H   UNL     1     -10.688   1.075  17.398  0.00  0.00    +0.000 HD
ATOM     45  H   UNL     1      -9.724   0.116  18.471  0.00  0.00    +0.000 HD
BRANCH  43  46
ATOM     46  O   UNL     1     -11.340   1.008  19.322  0.00  0.00    +0.000 OA
ATOM     47  H   UNL     1     -11.341   1.965  19.136  0.00  0.00    +0.000 HD
ENDBRANCH  43  46
ENDBRANCH  27  43
TORSDOF 2
ENDMDL
MODEL 7
REMARK VINA RESULT:    -9.109      2.881      6.196
REMARK INTER + INTRA:          -9.997
REMARK INTER:                  -9.605
REMARK INTRA:                  -0.392
REMARK UNBOUND:                -0.090
REMARK  Name = 
REMARK  2 active torsions:
REMARK  status: ('A' for Active; 'I' for Inactive)
REMARK    1  A    between atoms: C_27  and  C_28
REMARK    2  A    between atoms: C_28  and  O_29
REMARK                            x       y       z     vdW  Elec       q    Type
REMARK                         _______ _______ _______ _____ _____    ______ ____
ROOT
ATOM      1  O   UNL     1      -7.728  -7.181  19.907  0.00  0.00    +0.000 OA
ATOM      2  C   UNL     1      -8.481  -6.592  19.139  0.00  0.00    +0.000 C 
ATOM      3  N   UNL     1      -9.087  -7.264  18.078  0.00  0.00    +0.000 N 
ATOM      4  C   UNL     1     -10.126  -6.605  17.512  0.00  0.00    +0.000 C 
ATOM      5  O   UNL     1     -11.074  -7.140  16.951  0.00  0.00    +0.000 OA
ATOM      6  C   UNL     1      -9.843  -5.266  17.891  0.00  0.00    +0.000 A 
ATOM      7  C   UNL     1      -8.946  -5.243  19.010  0.00  0.00    +0.000 A 
ATOM      8  C   UNL     1      -8.864  -3.997  19.780  0.00  0.00    +0.000 A 
ATOM      9  C   UNL     1      -8.340  -3.535  21.031  0.00  0.00    +0.000 A 
ATOM     10  C   UNL     1      -7.387  -3.804  22.056  0.00  0.00    +0.000 A 
ATOM     11  C   UNL     1      -7.364  -3.000  23.240  0.00  0.00    +0.000 A 
ATOM     12  C   UNL     1      -8.289  -1.986  23.450  0.00  0.00    +0.000 A 
ATOM     13  F   UNL     1      -8.324  -1.302  24.603  0.00  0.00    +0.000 F 
ATOM     14  C   UNL     1      -9.150  -1.624  22.444  0.00  0.00    +0.000 A 
ATOM     15  C   UNL     1      -9.096  -2.349  21.256  0.00  0.00    +0.000 A 
ATOM     16  N   UNL     1      -9.735  -2.006  20.118  0.00  0.00    +0.000 N 
ATOM     17  C   UNL     1      -9.493  -2.941  19.186  0.00  0.00    +0.000 A 
ATOM     18  C   UNL     1      -9.941  -2.914  17.903  0.00  0.00    +0.000 A 
ATOM     19  C   UNL     1     -10.198  -4.068  17.261  0.00  0.00    +0.000 A 
ATOM     20  C   UNL     1     -10.789  -3.901  16.026  0.00  0.00    +0.000 A 
ATOM     21  C   UNL     1     -11.287  -4.667  14.958  0.00  0.00    +0.000 A 
ATOM     22  C   UNL     1     -11.805  -4.003  13.837  0.00  0.00    +0.000 A 
ATOM     23  C   UNL     1     -11.847  -2.603  13.775  0.00  0.00    +0.000 A 
ATOM     24  C   UNL     1     -11.349  -1.829  14.819  0.00  0.00    +0.000 A 
ATOM     25  C   UNL     1     -10.826  -2.508  15.916  0.00  0.00    +0.000 A 
ATOM     26  N   UNL     1     -10.267  -1.916  17.050  0.00  0.00    +0.000 N 
ATOM     27  C   UNL     1     -10.146  -0.460  17.160  0.00  0.00    +0.000 C 
ATOM     28  C   UNL     1     -10.250   0.202  15.758  0.00  0.00    +0.000 C 
ATOM     29  C   UNL     1     -11.395  -0.335  14.884  0.00  0.00    +0.000 C 
ATOM     30  H   UNL     1      -9.012  -8.255  17.926  0.00  0.00    +0.000 HD
ATOM     31  H   UNL     1      -6.605  -4.552  21.937  0.00  0.00    +0.000 HD
ATOM     32  H   UNL     1      -6.615  -3.149  24.017  0.00  0.00    +0.000 HD
ATOM     33  H   UNL     1      -9.825  -0.780  22.558  0.00  0.00    +0.000 HD
ATOM     34  H   UNL     1     -10.307  -1.187  19.994  0.00  0.00    +0.000 HD
ATOM     35  H   UNL     1     -11.299  -5.753  14.993  0.00  0.00    +0.000 HD
ATOM     36  H   UNL     1     -12.184  -4.595  13.008  0.00  0.00    +0.000 HD
ATOM     37  H   UNL     1     -12.251  -2.126  12.881  0.00  0.00    +0.000 HD
ATOM     38  H   UNL     1     -11.009  -0.164  17.770  0.00  0.00    +0.000 HD
ATOM     39  H   UNL     1      -9.308   0.042  15.216  0.00  0.00    +0.000 HD
ATOM     40  H   UNL     1     -10.362   1.285  15.884  0.00  0.00    +0.000 HD
ATOM     41  H   UNL     1     -11.306   0.095  13.882  0.00  0.00    +0.000 HD
ATOM     42  H   UNL     1     -12.356  -0.033  15.312  0.00  0.00    +0.000 HD
ENDROOT
BRANCH  27  43
ATOM     43  C   UNL     1      -8.862   0.089  17.838  0.00  0.00    +0.000 C 
ATOM     44  H   UNL     1      -8.343   0.862  17.277  0.00  0.00    +0.000 HD
ATOM     45  H   UNL     1      -8.140  -0.732  17.925  0.00  0.00    +0.000 HD
BRANCH  43  46
ATOM     46  O   UNL     1      -9.083   0.587  19.150  0.00  0.00    +0.000 OA
ATOM     47  H   UNL     1      -9.961   0.281  19.440  0.00  0.00    +0.000 HD
ENDBRANCH  43  46
ENDBRANCH  27  43
TORSDOF 2
ENDMDL
MODEL 8
REMARK VINA RESULT:    -9.078      4.071      8.239
REMARK INTER + INTRA:          -9.964
REMARK INTER:                  -9.564
REMARK INTRA:                  -0.400
REMARK UNBOUND:                -0.090
REMARK  Name = 
REMARK  2 active torsions:
REMARK  status: ('A' for Active; 'I' for Inactive)
REMARK    1  A    between atoms: C_27  and  C_28
REMARK    2  A    between atoms: C_28  and  O_29
REMARK                            x       y       z     vdW  Elec       q    Type
REMARK                         _______ _______ _______ _____ _____    ______ ____
ROOT
ATOM      1  O   UNL     1     -11.869   0.101  15.695  0.00  0.00    +0.000 OA
ATOM      2  C   UNL     1     -11.736   0.156  16.912  0.00  0.00    +0.000 C 
ATOM      3  N   UNL     1     -12.069   1.312  17.616  0.00  0.00    +0.000 N 
ATOM      4  C   UNL     1     -12.189   1.145  18.954  0.00  0.00    +0.000 C 
ATOM      5  O   UNL     1     -12.908   1.816  19.684  0.00  0.00    +0.000 OA
ATOM      6  C   UNL     1     -11.414  -0.028  19.155  0.00  0.00    +0.000 A 
ATOM      7  C   UNL     1     -11.261  -0.743  17.921  0.00  0.00    +0.000 A 
ATOM      8  C   UNL     1     -10.853  -2.149  18.006  0.00  0.00    +0.000 A 
ATOM      9  C   UNL     1     -10.777  -3.303  17.159  0.00  0.00    +0.000 A 
ATOM     10  C   UNL     1     -10.704  -3.741  15.805  0.00  0.00    +0.000 A 
ATOM     11  C   UNL     1     -10.764  -5.140  15.502  0.00  0.00    +0.000 A 
ATOM     12  C   UNL     1     -10.949  -6.093  16.494  0.00  0.00    +0.000 A 
ATOM     13  F   UNL     1     -11.103  -7.391  16.194  0.00  0.00    +0.000 F 
ATOM     14  C   UNL     1     -10.913  -5.723  17.815  0.00  0.00    +0.000 A 
ATOM     15  C   UNL     1     -10.753  -4.370  18.103  0.00  0.00    +0.000 A 
ATOM     16  N   UNL     1     -10.513  -3.870  19.333  0.00  0.00    +0.000 N 
ATOM     17  C   UNL     1     -10.450  -2.531  19.253  0.00  0.00    +0.000 A 
ATOM     18  C   UNL     1     -10.186  -1.688  20.285  0.00  0.00    +0.000 A 
ATOM     19  C   UNL     1     -10.724  -0.455  20.296  0.00  0.00    +0.000 A 
ATOM     20  C   UNL     1     -10.505   0.241  21.466  0.00  0.00    +0.000 A 
ATOM     21  C   UNL     1     -10.810   1.480  22.054  0.00  0.00    +0.000 A 
ATOM     22  C   UNL     1     -10.315   1.757  23.336  0.00  0.00    +0.000 A 
ATOM     23  C   UNL     1      -9.542   0.819  24.037  0.00  0.00    +0.000 A 
ATOM     24  C   UNL     1      -9.220  -0.408  23.464  0.00  0.00    +0.000 A 
ATOM     25  C   UNL     1      -9.711  -0.657  22.185  0.00  0.00    +0.000 A 
ATOM     26  N   UNL     1      -9.488  -1.814  21.438  0.00  0.00    +0.000 N 
ATOM     27  C   UNL     1      -8.644  -2.896  21.953  0.00  0.00    +0.000 C 
ATOM     28  C   UNL     1      -7.733  -2.375  23.099  0.00  0.00    +0.000 C 
ATOM     29  C   UNL     1      -8.454  -1.501  24.139  0.00  0.00    +0.000 C 
ATOM     30  H   UNL     1     -12.498   2.120  17.197  0.00  0.00    +0.000 HD
ATOM     31  H   UNL     1     -10.514  -3.053  14.983  0.00  0.00    +0.000 HD
ATOM     32  H   UNL     1     -10.661  -5.507  14.482  0.00  0.00    +0.000 HD
ATOM     33  H   UNL     1     -10.973  -6.463  18.609  0.00  0.00    +0.000 HD
ATOM     34  H   UNL     1     -10.410  -4.413  20.174  0.00  0.00    +0.000 HD
ATOM     35  H   UNL     1     -11.436   2.211  21.551  0.00  0.00    +0.000 HD
ATOM     36  H   UNL     1     -10.545   2.717  23.790  0.00  0.00    +0.000 HD
ATOM     37  H   UNL     1      -9.169   1.077  25.029  0.00  0.00    +0.000 HD
ATOM     38  H   UNL     1      -9.359  -3.625  22.356  0.00  0.00    +0.000 HD
ATOM     39  H   UNL     1      -6.917  -1.780  22.666  0.00  0.00    +0.000 HD
ATOM     40  H   UNL     1      -7.268  -3.232  23.601  0.00  0.00    +0.000 HD
ATOM     41  H   UNL     1      -7.712  -1.082  24.825  0.00  0.00    +0.000 HD
ATOM     42  H   UNL     1      -9.155  -2.116  24.713  0.00  0.00    +0.000 HD
ENDROOT
BRANCH  27  43
ATOM     43  C   UNL     1      -7.732  -3.624  20.931  0.00  0.00    +0.000 C 
ATOM     44  H   UNL     1      -6.674  -3.622  21.179  0.00  0.00    +0.000 HD
ATOM     45  H   UNL     1      -7.799  -3.097  19.971  0.00  0.00    +0.000 HD
BRANCH  43  46
ATOM     46  O   UNL     1      -8.113  -4.971  20.690  0.00  0.00    +0.000 OA
ATOM     47  H   UNL     1      -8.946  -4.959  20.185  0.00  0.00    +0.000 HD
ENDBRANCH  43  46
ENDBRANCH  27  43
TORSDOF 2
ENDMDL
MODEL 9
REMARK VINA RESULT:    -8.812      3.734      6.235
REMARK INTER + INTRA:          -9.674
REMARK INTER:                  -9.281
REMARK INTRA:                  -0.394
REMARK UNBOUND:                -0.090
REMARK  Name = 
REMARK  2 active torsions:
REMARK  status: ('A' for Active; 'I' for Inactive)
REMARK    1  A    between atoms: C_27  and  C_28
REMARK    2  A    between atoms: C_28  and  O_29
REMARK                            x       y       z     vdW  Elec       q    Type
REMARK                         _______ _______ _______ _____ _____    ______ ____
ROOT
ATOM      1  O   UNL     1     -11.849   0.871  22.320  0.00  0.00    +0.000 OA
ATOM      2  C   UNL     1     -11.738   0.538  21.145  0.00  0.00    +0.000 C 
ATOM      3  N   UNL     1     -12.281   1.321  20.126  0.00  0.00    +0.000 N 
ATOM      4  C   UNL     1     -11.822   1.031  18.886  0.00  0.00    +0.000 C 
ATOM      5  O   UNL     1     -11.751   1.830  17.960  0.00  0.00    +0.000 OA
ATOM      6  C   UNL     1     -11.366  -0.302  19.065  0.00  0.00    +0.000 A 
ATOM      7  C   UNL     1     -11.152  -0.573  20.457  0.00  0.00    +0.000 A 
ATOM      8  C   UNL     1     -10.313  -1.728  20.795  0.00  0.00    +0.000 A 
ATOM      9  C   UNL     1      -9.641  -2.276  21.936  0.00  0.00    +0.000 A 
ATOM     10  C   UNL     1      -9.612  -2.298  23.360  0.00  0.00    +0.000 A 
ATOM     11  C   UNL     1      -8.565  -2.998  24.043  0.00  0.00    +0.000 A 
ATOM     12  C   UNL     1      -7.533  -3.619  23.353  0.00  0.00    +0.000 A 
ATOM     13  F   UNL     1      -6.505  -4.187  23.999  0.00  0.00    +0.000 F 
ATOM     14  C   UNL     1      -7.584  -3.715  21.984  0.00  0.00    +0.000 A 
ATOM     15  C   UNL     1      -8.660  -3.116  21.335  0.00  0.00    +0.000 A 
ATOM     16  N   UNL     1      -8.953  -3.277  20.028  0.00  0.00    +0.000 N 
ATOM     17  C   UNL     1     -10.030  -2.533  19.729  0.00  0.00    +0.000 A 
ATOM     18  C   UNL     1     -10.638  -2.471  18.516  0.00  0.00    +0.000 A 
ATOM     19  C   UNL     1     -11.246  -1.336  18.129  0.00  0.00    +0.000 A 
ATOM     20  C   UNL     1     -11.688  -1.353  16.823  0.00  0.00    +0.000 A 
ATOM     21  C   UNL     1     -12.332  -0.520  15.893  0.00  0.00    +0.000 A 
ATOM     22  C   UNL     1     -12.603  -1.023  14.613  0.00  0.00    +0.000 A 
ATOM     23  C   UNL     1     -12.229  -2.324  14.247  0.00  0.00    +0.000 A 
ATOM     24  C   UNL     1     -11.600  -3.167  15.159  0.00  0.00    +0.000 A 
ATOM     25  C   UNL     1     -11.354  -2.652  16.429  0.00  0.00    +0.000 A 
ATOM     26  N   UNL     1     -10.750  -3.339  17.484  0.00  0.00    +0.000 N 
ATOM     27  C   UNL     1     -10.346  -4.740  17.339  0.00  0.00    +0.000 C 
ATOM     28  C   UNL     1     -11.085  -5.399  16.141  0.00  0.00    +0.000 C 
ATOM     29  C   UNL     1     -11.108  -4.547  14.861  0.00  0.00    +0.000 C 
ATOM     30  H   UNL     1     -12.714   2.216  20.277  0.00  0.00    +0.000 HD
ATOM     31  H   UNL     1     -10.412  -1.873  23.963  0.00  0.00    +0.000 HD
ATOM     32  H   UNL     1      -8.545  -3.075  25.130  0.00  0.00    +0.000 HD
ATOM     33  H   UNL     1      -6.829  -4.267  21.431  0.00  0.00    +0.000 HD
ATOM     34  H   UNL     1      -8.441  -3.854  19.381  0.00  0.00    +0.000 HD
ATOM     35  H   UNL     1     -12.602   0.504  16.137  0.00  0.00    +0.000 HD
ATOM     36  H   UNL     1     -13.107  -0.381  13.894  0.00  0.00    +0.000 HD
ATOM     37  H   UNL     1     -12.466  -2.679  13.243  0.00  0.00    +0.000 HD
ATOM     38  H   UNL     1      -9.271  -4.689  17.123  0.00  0.00    +0.000 HD
ATOM     39  H   UNL     1     -12.125  -5.602  16.430  0.00  0.00    +0.000 HD
ATOM     40  H   UNL     1     -10.621  -6.369  15.927  0.00  0.00    +0.000 HD
ATOM     41  H   UNL     1     -11.753  -5.034  14.124  0.00  0.00    +0.000 HD
ATOM     42  H   UNL     1     -10.096  -4.477  14.449  0.00  0.00    +0.000 HD
ENDROOT
BRANCH  27  43
ATOM     43  C   UNL     1     -10.549  -5.661  18.571  0.00  0.00    +0.000 C 
ATOM     44  H   UNL     1     -11.072  -6.592  18.367  0.00  0.00    +0.000 HD
ATOM     45  H   UNL     1     -11.181  -5.134  19.296  0.00  0.00    +0.000 HD
BRANCH  43  46
ATOM     46  O   UNL     1      -9.338  -5.989  19.240  0.00  0.00    +0.000 OA
ATOM     47  H   UNL     1      -8.653  -5.368  18.934  0.00  0.00    +0.000 HD
ENDBRANCH  43  46
ENDBRANCH  27  43
TORSDOF 2
ENDMDL
