REMARK  Name = 
REMARK  6 active torsions:
REMARK  status: ('A' for Active; 'I' for Inactive)
REMARK    1  A    between atoms: C_1  and  N_2
REMARK    2  A    between atoms: N_2  and  C_3
REMARK    3  A    between atoms: N_2  and  C_4
REMARK    4  A    between atoms: C_4  and  C_5
REMARK    5  A    between atoms: C_5  and  C_6
REMARK    6  A    between atoms: C_6  and  N_7
REMARK                            x       y       z     vdW  Elec       q    Type
REMARK                         _______ _______ _______ _____ _____    ______ ____
ROOT
ATOM      1  N   UNL     1      -0.481   0.360  -1.833  0.00  0.00    +0.000 N 
ATOM      2  C   UNL     1       0.266  -0.102  -2.932  0.00  0.00    +0.000 A 
ATOM      3  C   UNL     1      -0.151  -0.536  -4.209  0.00  0.00    +0.000 A 
ATOM      4  C   UNL     1       0.812  -1.003  -5.106  0.00  0.00    +0.000 A 
ATOM      5  C   UNL     1       2.162  -1.008  -4.766  0.00  0.00    +0.000 A 
ATOM      6  C   UNL     1       2.571  -0.585  -3.509  0.00  0.00    +0.000 A 
ATOM      7  C   UNL     1       1.629  -0.142  -2.565  0.00  0.00    +0.000 A 
ATOM      8  C   UNL     1       1.604   0.264  -1.241  0.00  0.00    +0.000 A 
ATOM      9  C   UNL     1       2.711   0.378  -0.364  0.00  0.00    +0.000 A 
ATOM     10  C   UNL     1       2.451   0.555   1.026  0.00  0.00    +0.000 A 
ATOM     11  C   UNL     1       1.091   0.663   1.458  0.00  0.00    +0.000 A 
ATOM     12  C   UNL     1       0.746   1.164   2.703  0.00  0.00    +0.000 A 
ATOM     13  C   UNL     1       0.761   0.750   4.044  0.00  0.00    +0.000 A 
ATOM     14  C   UNL     1       0.340   1.660   5.018  0.00  0.00    +0.000 A 
ATOM     15  C   UNL     1       0.060   2.982   4.669  0.00  0.00    +0.000 A 
ATOM     16  C   UNL     1      -0.090   3.358   3.327  0.00  0.00    +0.000 A 
ATOM     17  C   UNL     1       0.057   2.339   2.381  0.00  0.00    +0.000 A 
ATOM     18  N   UNL     1      -0.414   2.173   1.073  0.00  0.00    +0.000 N 
ATOM     19  C   UNL     1       0.248   1.119   0.490  0.00  0.00    +0.000 A 
ATOM     20  C   UNL     1       0.378   0.657  -0.805  0.00  0.00    +0.000 A 
ATOM     21  C   UNL     1       3.700   0.745   1.698  0.00  0.00    +0.000 C 
ATOM     22  O   UNL     1       4.012   1.045   2.842  0.00  0.00    +0.000 OA
ATOM     23  N   UNL     1       4.621   0.582   0.693  0.00  0.00    +0.000 N 
ATOM     24  C   UNL     1       4.124   0.422  -0.572  0.00  0.00    +0.000 C 
ATOM     25  O   UNL     1       4.846   0.422  -1.565  0.00  0.00    +0.000 OA
ATOM     26  H   UNL     1      -1.198  -0.540  -4.495  0.00  0.00    +0.000 HD
ATOM     27  H   UNL     1       0.508  -1.373  -6.079  0.00  0.00    +0.000 HD
ATOM     28  H   UNL     1       2.903  -1.369  -5.474  0.00  0.00    +0.000 HD
ATOM     29  H   UNL     1       3.637  -0.626  -3.263  0.00  0.00    +0.000 HD
ATOM     30  H   UNL     1       0.986  -0.280   4.303  0.00  0.00    +0.000 HD
ATOM     31  H   UNL     1       0.246   1.339   6.052  0.00  0.00    +0.000 HD
ATOM     32  H   UNL     1      -0.113   3.714   5.455  0.00  0.00    +0.000 HD
ATOM     33  H   UNL     1      -0.361   4.372   3.056  0.00  0.00    +0.000 HD
ATOM     34  H   UNL     1      -1.036   2.817   0.609  0.00  0.00    +0.000 HD
ATOM     35  H   UNL     1       5.599   0.760   0.844  0.00  0.00    +0.000 HD
ENDROOT
BRANCH   1  36
ATOM     36  C   UNL     1      -1.937   0.315  -1.746  0.00  0.00    +0.000 C 
ATOM     37  H   UNL     1      -2.248   0.799  -0.815  0.00  0.00    +0.000 HD
ATOM     38  H   UNL     1      -2.308   0.940  -2.567  0.00  0.00    +0.000 HD
BRANCH  36  39
ATOM     39  C   UNL     1      -2.557  -1.090  -1.858  0.00  0.00    +0.000 C 
ATOM     40  H   UNL     1      -3.645  -0.986  -1.944  0.00  0.00    +0.000 HD
ATOM     41  H   UNL     1      -2.249  -1.574  -2.790  0.00  0.00    +0.000 HD
BRANCH  39  42
ATOM     42  C   UNL     1      -2.216  -2.053  -0.713  0.00  0.00    +0.000 C 
ATOM     43  H   UNL     1      -2.667  -3.031  -0.934  0.00  0.00    +0.000 HD
ATOM     44  H   UNL     1      -1.130  -2.211  -0.717  0.00  0.00    +0.000 HD
BRANCH  42  45
ATOM     45  N   UNL     1      -2.640  -1.590   0.617  0.00  0.00    +0.000 NA
BRANCH  45  46
ATOM     46  C   UNL     1      -4.096  -1.497   0.740  0.00  0.00    +0.000 C 
ATOM     47  H   UNL     1      -4.372  -1.155   1.744  0.00  0.00    +0.000 HD
ATOM     48  H   UNL     1      -4.592  -2.457   0.555  0.00  0.00    +0.000 HD
ATOM     49  H   UNL     1      -4.507  -0.754   0.051  0.00  0.00    +0.000 HD
ENDBRANCH  45  46
BRANCH  45  50
ATOM     50  C   UNL     1      -2.124  -2.506   1.642  0.00  0.00    +0.000 C 
ATOM     51  H   UNL     1      -2.395  -2.155   2.644  0.00  0.00    +0.000 HD
ATOM     52  H   UNL     1      -1.030  -2.549   1.610  0.00  0.00    +0.000 HD
ATOM     53  H   UNL     1      -2.513  -3.524   1.518  0.00  0.00    +0.000 HD
ENDBRANCH  45  50
ENDBRANCH  42  45
ENDBRANCH  39  42
ENDBRANCH  36  39
ENDBRANCH   1  36
TORSDOF 6
