MODEL 1
REMARK VINA RESULT:   -10.595      0.000      0.000
REMARK INTER + INTRA:         -19.635
REMARK INTER:                 -17.099
REMARK INTRA:                  -2.536
REMARK UNBOUND:                -2.536
REMARK  Name = 
REMARK  13 active torsions:
REMARK  status: ('A' for Active; 'I' for Inactive)
REMARK    1  A    between atoms: C_2  and  C_34
REMARK    2  A    between atoms: N_3  and  C_4
REMARK    3  A    between atoms: C_10  and  O_11
REMARK    4  A    between atoms: O_11  and  C_12
REMARK    5  A    between atoms: C_12  and  C_14
REMARK    6  A    between atoms: C_16  and  O_17
REMARK    7  A    between atoms: C_18  and  C_19
REMARK    8  A    between atoms: C_19  and  C_21
REMARK    9  A    between atoms: C_22  and  O_23
REMARK   10  A    between atoms: C_27  and  C_28
REMARK   11  A    between atoms: C_28  and  O_30
REMARK   12  A    between atoms: C_31  and  O_32
REMARK   13  A    between atoms: C_37  and  O_38
REMARK                            x       y       z     vdW  Elec       q    Type
REMARK                         _______ _______ _______ _____ _____    ______ ____
ROOT
ATOM      1  C   UNL     1      -9.127  -6.995  19.152  0.00  0.00    +0.000 C 
ATOM      2  C   UNL     1      -8.110  -6.720  20.288  0.00  0.00    +0.000 C 
ATOM      3  C   UNL     1      -6.669  -6.800  19.752  0.00  0.00    +0.000 C 
ATOM      4  C   UNL     1      -6.560  -5.545  18.874  0.00  0.00    +0.000 C 
ATOM      5  C   UNL     1      -7.944  -4.888  19.025  0.00  0.00    +0.000 C 
ATOM      6  C   UNL     1      -8.277  -5.214  20.483  0.00  0.00    +0.000 C 
ATOM      7  C   UNL     1      -8.975  -5.727  18.238  0.00  0.00    +0.000 C 
ATOM      8  H   UNL     1     -10.139  -7.049  19.576  0.00  0.00    +0.000 HD
ATOM      9  H   UNL     1      -8.273  -7.329  21.182  0.00  0.00    +0.000 HD
ATOM     10  H   UNL     1      -6.456  -7.711  19.186  0.00  0.00    +0.000 HD
ATOM     11  H   UNL     1      -5.947  -6.754  20.575  0.00  0.00    +0.000 HD
ATOM     12  H   UNL     1      -6.321  -5.792  17.835  0.00  0.00    +0.000 HD
ATOM     13  H   UNL     1      -5.771  -4.892  19.261  0.00  0.00    +0.000 HD
ATOM     14  H   UNL     1      -7.964  -3.823  18.784  0.00  0.00    +0.000 HD
ATOM     15  H   UNL     1      -9.291  -4.921  20.776  0.00  0.00    +0.000 HD
ATOM     16  H   UNL     1      -7.556  -4.792  21.191  0.00  0.00    +0.000 HD
ATOM     17  H   UNL     1      -8.613  -5.980  17.235  0.00  0.00    +0.000 HD
ENDROOT
BRANCH   1  20
ATOM     18  O   UNL     1     -10.764  -8.232  17.211  0.00  0.00    +0.000 OA
ATOM     19  C   UNL     1      -9.747  -8.801  17.572  0.00  0.00    +0.000 C 
ATOM     20  N   UNL     1      -8.873  -8.277  18.497  0.00  0.00    +0.000 N 
ATOM     21  H   UNL     1      -8.062  -8.808  18.762  0.00  0.00    +0.000 HD
BRANCH  19  22
ATOM     22  C   UNL     1      -9.402 -10.114  16.973  0.00  0.00    +0.000 A 
ATOM     23  C   UNL     1      -8.959 -11.140  17.821  0.00  0.00    +0.000 A 
ATOM     24  C   UNL     1      -8.552 -12.367  17.288  0.00  0.00    +0.000 A 
ATOM     25  C   UNL     1      -8.579 -12.553  15.910  0.00  0.00    +0.000 A 
ATOM     26  C   UNL     1      -9.011 -11.538  15.061  0.00  0.00    +0.000 A 
ATOM     27  C   UNL     1      -9.430 -10.316  15.591  0.00  0.00    +0.000 A 
ATOM     28  H   UNL     1      -8.914 -10.978  18.896  0.00  0.00    +0.000 HD
ATOM     29  H   UNL     1      -8.204 -13.149  17.957  0.00  0.00    +0.000 HD
ATOM     30  H   UNL     1      -8.997 -11.692  13.985  0.00  0.00    +0.000 HD
ATOM     31  H   UNL     1      -9.721  -9.521  14.913  0.00  0.00    +0.000 HD
BRANCH  25  32
ATOM     32  O   UNL     1      -8.175 -13.721  15.338  0.00  0.00    +0.000 OA
ATOM     33  H   UNL     1      -7.216 -13.821  15.465  0.00  0.00    +0.000 HD
ENDBRANCH  25  32
ENDBRANCH  19  22
ENDBRANCH   1  20
BRANCH   7  34
ATOM     34  O   UNL     1     -10.231  -5.028  18.150  0.00  0.00    +0.000 OA
BRANCH  34  35
ATOM     35  C   UNL     1     -10.150  -3.776  17.615  0.00  0.00    +0.000 C 
ATOM     36  O   UNL     1      -9.951  -3.519  16.434  0.00  0.00    +0.000 OA
BRANCH  35  37
ATOM     37  C   UNL     1     -10.422  -2.739  18.641  0.00  0.00    +0.000 A 
ATOM     38  C   UNL     1     -11.492  -2.894  19.533  0.00  0.00    +0.000 A 
ATOM     39  C   UNL     1     -11.682  -1.958  20.560  0.00  0.00    +0.000 A 
ATOM     40  C   UNL     1     -10.784  -0.884  20.740  0.00  0.00    +0.000 A 
ATOM     41  C   UNL     1      -9.711  -0.771  19.840  0.00  0.00    +0.000 A 
ATOM     42  C   UNL     1      -9.559  -1.658  18.784  0.00  0.00    +0.000 A 
ATOM     43  H   UNL     1     -12.166  -3.740  19.423  0.00  0.00    +0.000 HD
ATOM     44  H   UNL     1      -8.714  -1.527  18.117  0.00  0.00    +0.000 HD
BRANCH  39  45
ATOM     45  O   UNL     1     -12.786  -2.093  21.361  0.00  0.00    +0.000 OA
ATOM     46  H   UNL     1     -12.813  -1.363  22.001  0.00  0.00    +0.000 HD
ENDBRANCH  39  45
BRANCH  40  47
ATOM     47  C   UNL     1     -10.973   0.104  21.853  0.00  0.00    +0.000 C 
ATOM     48  O   UNL     1     -11.949   0.850  21.857  0.00  0.00    +0.000 OA
BRANCH  47  49
ATOM     49  C   UNL     1     -10.094   0.174  23.066  0.00  0.00    +0.000 A 
ATOM     50  C   UNL     1      -9.492   1.423  23.391  0.00  0.00    +0.000 A 
ATOM     51  C   UNL     1      -8.644   1.542  24.494  0.00  0.00    +0.000 A 
ATOM     52  C   UNL     1      -8.433   0.455  25.325  0.00  0.00    +0.000 A 
ATOM     53  C   UNL     1      -9.069  -0.758  25.074  0.00  0.00    +0.000 A 
ATOM     54  C   UNL     1      -9.872  -0.930  23.948  0.00  0.00    +0.000 A 
ATOM     55  H   UNL     1      -8.125   2.480  24.690  0.00  0.00    +0.000 HD
ATOM     56  H   UNL     1      -7.745   0.529  26.163  0.00  0.00    +0.000 HD
ATOM     57  H   UNL     1      -8.875  -1.580  25.748  0.00  0.00    +0.000 HD
BRANCH  50  58
ATOM     58  O   UNL     1      -9.667   2.600  22.708  0.00  0.00    +0.000 OA
ATOM     59  H   UNL     1      -9.921   2.414  21.777  0.00  0.00    +0.000 HD
ENDBRANCH  50  58
BRANCH  54  60
ATOM     60  C   UNL     1     -10.460  -2.311  23.752  0.00  0.00    +0.000 C 
ATOM     61  O   UNL     1     -11.553  -2.602  24.110  0.00  0.00    +0.000 OA
BRANCH  60  62
ATOM     62  O   UNL     1      -9.612  -3.259  23.262  0.00  0.00    +0.000 OA
ATOM     63  H   UNL     1      -8.671  -3.195  23.463  0.00  0.00    +0.000 HD
ENDBRANCH  60  62
ENDBRANCH  54  60
ENDBRANCH  47  49
ENDBRANCH  40  47
BRANCH  41  64
ATOM     64  O   UNL     1      -8.750   0.207  19.850  0.00  0.00    +0.000 OA
ATOM     65  H   UNL     1      -7.875  -0.178  19.949  0.00  0.00    +0.000 HD
ENDBRANCH  41  64
ENDBRANCH  35  37
ENDBRANCH  34  35
ENDBRANCH   7  34
TORSDOF 13
ENDMDL
MODEL 2
REMARK VINA RESULT:   -10.204      2.817     10.540
REMARK INTER + INTRA:         -19.003
REMARK INTER:                 -17.829
REMARK INTRA:                  -1.174
REMARK UNBOUND:                -2.536
REMARK  Name = 
REMARK  13 active torsions:
REMARK  status: ('A' for Active; 'I' for Inactive)
REMARK    1  A    between atoms: C_2  and  C_34
REMARK    2  A    between atoms: N_3  and  C_4
REMARK    3  A    between atoms: C_10  and  O_11
REMARK    4  A    between atoms: O_11  and  C_12
REMARK    5  A    between atoms: C_12  and  C_14
REMARK    6  A    between atoms: C_16  and  O_17
REMARK    7  A    between atoms: C_18  and  C_19
REMARK    8  A    between atoms: C_19  and  C_21
REMARK    9  A    between atoms: C_22  and  O_23
REMARK   10  A    between atoms: C_27  and  C_28
REMARK   11  A    between atoms: C_28  and  O_30
REMARK   12  A    between atoms: C_31  and  O_32
REMARK   13  A    between atoms: C_37  and  O_38
REMARK                            x       y       z     vdW  Elec       q    Type
REMARK                         _______ _______ _______ _____ _____    ______ ____
ROOT
ATOM      1  C   UNL     1      -7.981  -1.919  21.331  0.00  0.00    +0.000 C 
ATOM      2  C   UNL     1      -7.199  -1.781  22.661  0.00  0.00    +0.000 C 
ATOM      3  C   UNL     1      -8.068  -2.234  23.848  0.00  0.00    +0.000 C 
ATOM      4  C   UNL     1      -8.155  -3.754  23.649  0.00  0.00    +0.000 C 
ATOM      5  C   UNL     1      -7.311  -3.992  22.383  0.00  0.00    +0.000 C 
ATOM      6  C   UNL     1      -6.211  -2.940  22.550  0.00  0.00    +0.000 C 
ATOM      7  C   UNL     1      -8.101  -3.476  21.161  0.00  0.00    +0.000 C 
ATOM      8  H   UNL     1      -7.390  -1.484  20.514  0.00  0.00    +0.000 HD
ATOM      9  H   UNL     1      -6.749  -0.794  22.807  0.00  0.00    +0.000 HD
ATOM     10  H   UNL     1      -9.059  -1.771  23.874  0.00  0.00    +0.000 HD
ATOM     11  H   UNL     1      -7.578  -2.001  24.799  0.00  0.00    +0.000 HD
ATOM     12  H   UNL     1      -9.189  -4.095  23.537  0.00  0.00    +0.000 HD
ATOM     13  H   UNL     1      -7.718  -4.263  24.514  0.00  0.00    +0.000 HD
ATOM     14  H   UNL     1      -6.945  -5.015  22.274  0.00  0.00    +0.000 HD
ATOM     15  H   UNL     1      -5.543  -2.865  21.685  0.00  0.00    +0.000 HD
ATOM     16  H   UNL     1      -5.616  -3.084  23.459  0.00  0.00    +0.000 HD
ATOM     17  H   UNL     1      -9.143  -3.815  21.178  0.00  0.00    +0.000 HD
ENDROOT
BRANCH   1  20
ATOM     18  O   UNL     1      -9.230  -0.620  19.156  0.00  0.00    +0.000 OA
ATOM     19  C   UNL     1      -9.764  -0.576  20.251  0.00  0.00    +0.000 C 
ATOM     20  N   UNL     1      -9.248  -1.190  21.371  0.00  0.00    +0.000 N 
ATOM     21  H   UNL     1      -9.732  -1.099  22.247  0.00  0.00    +0.000 HD
BRANCH  19  22
ATOM     22  C   UNL     1     -11.051   0.146  20.401  0.00  0.00    +0.000 A 
ATOM     23  C   UNL     1     -11.445   1.028  19.383  0.00  0.00    +0.000 A 
ATOM     24  C   UNL     1     -12.613   1.785  19.521  0.00  0.00    +0.000 A 
ATOM     25  C   UNL     1     -13.371   1.661  20.681  0.00  0.00    +0.000 A 
ATOM     26  C   UNL     1     -12.984   0.794  21.698  0.00  0.00    +0.000 A 
ATOM     27  C   UNL     1     -11.825   0.027  21.558  0.00  0.00    +0.000 A 
ATOM     28  H   UNL     1     -10.833   1.139  18.490  0.00  0.00    +0.000 HD
ATOM     29  H   UNL     1     -12.901   2.469  18.729  0.00  0.00    +0.000 HD
ATOM     30  H   UNL     1     -13.573   0.734  22.609  0.00  0.00    +0.000 HD
ATOM     31  H   UNL     1     -11.514  -0.610  22.379  0.00  0.00    +0.000 HD
BRANCH  25  32
ATOM     32  O   UNL     1     -14.506   2.390  20.875  0.00  0.00    +0.000 OA
ATOM     33  H   UNL     1     -14.681   2.921  20.079  0.00  0.00    +0.000 HD
ENDBRANCH  25  32
ENDBRANCH  19  22
ENDBRANCH   1  20
BRANCH   7  34
ATOM     34  O   UNL     1      -7.464  -3.889  19.937  0.00  0.00    +0.000 OA
BRANCH  34  35
ATOM     35  C   UNL     1      -6.900  -5.130  19.981  0.00  0.00    +0.000 C 
ATOM     36  O   UNL     1      -5.875  -5.424  20.583  0.00  0.00    +0.000 OA
BRANCH  35  37
ATOM     37  C   UNL     1      -7.741  -6.123  19.269  0.00  0.00    +0.000 A 
ATOM     38  C   UNL     1      -7.789  -6.133  17.868  0.00  0.00    +0.000 A 
ATOM     39  C   UNL     1      -8.508  -7.135  17.202  0.00  0.00    +0.000 A 
ATOM     40  C   UNL     1      -9.150  -8.168  17.921  0.00  0.00    +0.000 A 
ATOM     41  C   UNL     1      -9.064  -8.140  19.323  0.00  0.00    +0.000 A 
ATOM     42  C   UNL     1      -8.409  -7.111  19.985  0.00  0.00    +0.000 A 
ATOM     43  H   UNL     1      -7.266  -5.362  17.308  0.00  0.00    +0.000 HD
ATOM     44  H   UNL     1      -8.372  -7.136  21.069  0.00  0.00    +0.000 HD
BRANCH  39  45
ATOM     45  O   UNL     1      -8.605  -7.065  15.837  0.00  0.00    +0.000 OA
ATOM     46  H   UNL     1      -9.160  -6.309  15.590  0.00  0.00    +0.000 HD
ENDBRANCH  39  45
BRANCH  40  47
ATOM     47  C   UNL     1      -9.900  -9.254  17.208  0.00  0.00    +0.000 C 
ATOM     48  O   UNL     1     -11.079  -9.092  16.903  0.00  0.00    +0.000 OA
BRANCH  47  49
ATOM     49  C   UNL     1      -9.267 -10.522  16.719  0.00  0.00    +0.000 A 
ATOM     50  C   UNL     1      -8.824 -11.471  17.685  0.00  0.00    +0.000 A 
ATOM     51  C   UNL     1      -8.205 -12.658  17.289  0.00  0.00    +0.000 A 
ATOM     52  C   UNL     1      -8.077 -12.956  15.943  0.00  0.00    +0.000 A 
ATOM     53  C   UNL     1      -8.569 -12.082  14.978  0.00  0.00    +0.000 A 
ATOM     54  C   UNL     1      -9.137 -10.860  15.336  0.00  0.00    +0.000 A 
ATOM     55  H   UNL     1      -7.797 -13.340  18.035  0.00  0.00    +0.000 HD
ATOM     56  H   UNL     1      -7.562 -13.860  15.627  0.00  0.00    +0.000 HD
ATOM     57  H   UNL     1      -8.448 -12.354  13.940  0.00  0.00    +0.000 HD
BRANCH  50  58
ATOM     58  O   UNL     1      -8.951 -11.348  19.046  0.00  0.00    +0.000 OA
ATOM     59  H   UNL     1      -9.874 -11.108  19.278  0.00  0.00    +0.000 HD
ENDBRANCH  50  58
BRANCH  54  60
ATOM     60  C   UNL     1      -9.581  -9.971  14.194  0.00  0.00    +0.000 C 
ATOM     61  O   UNL     1     -10.494 -10.241  13.486  0.00  0.00    +0.000 OA
BRANCH  60  62
ATOM     62  O   UNL     1      -8.786  -8.897  13.927  0.00  0.00    +0.000 OA
ATOM     63  H   UNL     1      -8.980  -8.351  13.156  0.00  0.00    +0.000 HD
ENDBRANCH  60  62
ENDBRANCH  54  60
ENDBRANCH  47  49
ENDBRANCH  40  47
BRANCH  41  64
ATOM     64  O   UNL     1      -9.631  -9.044  20.183  0.00  0.00    +0.000 OA
ATOM     65  H   UNL     1      -9.782  -9.884  19.741  0.00  0.00    +0.000 HD
ENDBRANCH  41  64
ENDBRANCH  35  37
ENDBRANCH  34  35
ENDBRANCH   7  34
TORSDOF 13
ENDMDL
MODEL 3
REMARK VINA RESULT:   -10.096      2.021      3.421
REMARK INTER + INTRA:         -18.830
REMARK INTER:                 -16.859
REMARK INTRA:                  -1.971
REMARK UNBOUND:                -2.536
REMARK  Name = 
REMARK  13 active torsions:
REMARK  status: ('A' for Active; 'I' for Inactive)
REMARK    1  A    between atoms: C_2  and  C_34
REMARK    2  A    between atoms: N_3  and  C_4
REMARK    3  A    between atoms: C_10  and  O_11
REMARK    4  A    between atoms: O_11  and  C_12
REMARK    5  A    between atoms: C_12  and  C_14
REMARK    6  A    between atoms: C_16  and  O_17
REMARK    7  A    between atoms: C_18  and  C_19
REMARK    8  A    between atoms: C_19  and  C_21
REMARK    9  A    between atoms: C_22  and  O_23
REMARK   10  A    between atoms: C_27  and  C_28
REMARK   11  A    between atoms: C_28  and  O_30
REMARK   12  A    between atoms: C_31  and  O_32
REMARK   13  A    between atoms: C_37  and  O_38
REMARK                            x       y       z     vdW  Elec       q    Type
REMARK                         _______ _______ _______ _____ _____    ______ ____
ROOT
ATOM      1  C   UNL     1      -8.967  -7.675  16.859  0.00  0.00    +0.000 C 
ATOM      2  C   UNL     1     -10.330  -7.223  16.278  0.00  0.00    +0.000 C 
ATOM      3  C   UNL     1     -11.490  -7.801  17.109  0.00  0.00    +0.000 C 
ATOM      4  C   UNL     1     -11.394  -7.016  18.424  0.00  0.00    +0.000 C 
ATOM      5  C   UNL     1     -10.202  -6.071  18.184  0.00  0.00    +0.000 C 
ATOM      6  C   UNL     1     -10.362  -5.754  16.695  0.00  0.00    +0.000 C 
ATOM      7  C   UNL     1      -8.900  -6.900  18.224  0.00  0.00    +0.000 C 
ATOM      8  H   UNL     1      -8.161  -7.351  16.188  0.00  0.00    +0.000 HD
ATOM      9  H   UNL     1     -10.434  -7.407  15.204  0.00  0.00    +0.000 HD
ATOM     10  H   UNL     1     -11.422  -8.880  17.273  0.00  0.00    +0.000 HD
ATOM     11  H   UNL     1     -12.451  -7.609  16.619  0.00  0.00    +0.000 HD
ATOM     12  H   UNL     1     -11.242  -7.675  19.285  0.00  0.00    +0.000 HD
ATOM     13  H   UNL     1     -12.317  -6.451  18.584  0.00  0.00    +0.000 HD
ATOM     14  H   UNL     1     -10.188  -5.193  18.834  0.00  0.00    +0.000 HD
ATOM     15  H   UNL     1      -9.538  -5.163  16.282  0.00  0.00    +0.000 HD
ATOM     16  H   UNL     1     -11.314  -5.263  16.462  0.00  0.00    +0.000 HD
ATOM     17  H   UNL     1      -8.876  -7.578  19.085  0.00  0.00    +0.000 HD
ENDROOT
BRANCH   1  20
ATOM     18  O   UNL     1      -8.770  -9.484  14.699  0.00  0.00    +0.000 OA
ATOM     19  C   UNL     1      -8.801  -9.927  15.835  0.00  0.00    +0.000 C 
ATOM     20  N   UNL     1      -8.878  -9.131  16.957  0.00  0.00    +0.000 N 
ATOM     21  H   UNL     1      -8.917  -9.563  17.863  0.00  0.00    +0.000 HD
BRANCH  19  22
ATOM     22  C   UNL     1      -8.724 -11.394  16.043  0.00  0.00    +0.000 A 
ATOM     23  C   UNL     1      -8.674 -12.227  14.916  0.00  0.00    +0.000 A 
ATOM     24  C   UNL     1      -8.678 -13.617  15.067  0.00  0.00    +0.000 A 
ATOM     25  C   UNL     1      -8.744 -14.162  16.346  0.00  0.00    +0.000 A 
ATOM     26  C   UNL     1      -8.800 -13.342  17.469  0.00  0.00    +0.000 A 
ATOM     27  C   UNL     1      -8.784 -11.954  17.322  0.00  0.00    +0.000 A 
ATOM     28  H   UNL     1      -8.650 -11.794  13.918  0.00  0.00    +0.000 HD
ATOM     29  H   UNL     1      -8.647 -14.249  14.185  0.00  0.00    +0.000 HD
ATOM     30  H   UNL     1      -8.882 -13.787  18.457  0.00  0.00    +0.000 HD
ATOM     31  H   UNL     1      -8.874 -11.331  18.204  0.00  0.00    +0.000 HD
BRANCH  25  32
ATOM     32  O   UNL     1      -8.771 -15.509  16.549  0.00  0.00    +0.000 OA
ATOM     33  H   UNL     1      -9.234 -15.932  15.806  0.00  0.00    +0.000 HD
ENDBRANCH  25  32
ENDBRANCH  19  22
ENDBRANCH   1  20
BRANCH   7  34
ATOM     34  O   UNL     1      -7.750  -6.033  18.243  0.00  0.00    +0.000 OA
BRANCH  34  35
ATOM     35  C   UNL     1      -7.173  -5.881  19.469  0.00  0.00    +0.000 C 
ATOM     36  O   UNL     1      -6.258  -6.563  19.913  0.00  0.00    +0.000 OA
BRANCH  35  37
ATOM     37  C   UNL     1      -7.738  -4.710  20.183  0.00  0.00    +0.000 A 
ATOM     38  C   UNL     1      -7.534  -4.558  21.561  0.00  0.00    +0.000 A 
ATOM     39  C   UNL     1      -7.989  -3.401  22.209  0.00  0.00    +0.000 A 
ATOM     40  C   UNL     1      -8.609  -2.359  21.485  0.00  0.00    +0.000 A 
ATOM     41  C   UNL     1      -8.778  -2.535  20.101  0.00  0.00    +0.000 A 
ATOM     42  C   UNL     1      -8.390  -3.708  19.471  0.00  0.00    +0.000 A 
ATOM     43  H   UNL     1      -7.024  -5.340  22.118  0.00  0.00    +0.000 HD
ATOM     44  H   UNL     1      -8.543  -3.795  18.401  0.00  0.00    +0.000 HD
BRANCH  39  45
ATOM     45  O   UNL     1      -7.849  -3.324  23.570  0.00  0.00    +0.000 OA
ATOM     46  H   UNL     1      -6.906  -3.285  23.797  0.00  0.00    +0.000 HD
ENDBRANCH  39  45
BRANCH  40  47
ATOM     47  C   UNL     1      -9.074  -1.110  22.174  0.00  0.00    +0.000 C 
ATOM     48  O   UNL     1      -8.267  -0.388  22.754  0.00  0.00    +0.000 OA
BRANCH  47  49
ATOM     49  C   UNL     1     -10.480  -0.594  22.106  0.00  0.00    +0.000 A 
ATOM     50  C   UNL     1     -10.763   0.477  21.210  0.00  0.00    +0.000 A 
ATOM     51  C   UNL     1     -12.049   1.014  21.122  0.00  0.00    +0.000 A 
ATOM     52  C   UNL     1     -13.081   0.462  21.861  0.00  0.00    +0.000 A 
ATOM     53  C   UNL     1     -12.849  -0.634  22.687  0.00  0.00    +0.000 A 
ATOM     54  C   UNL     1     -11.566  -1.156  22.846  0.00  0.00    +0.000 A 
ATOM     55  H   UNL     1     -12.239   1.884  20.495  0.00  0.00    +0.000 HD
ATOM     56  H   UNL     1     -14.076   0.898  21.827  0.00  0.00    +0.000 HD
ATOM     57  H   UNL     1     -13.683  -1.032  23.246  0.00  0.00    +0.000 HD
BRANCH  50  58
ATOM     58  O   UNL     1      -9.863   1.073  20.363  0.00  0.00    +0.000 OA
ATOM     59  H   UNL     1      -9.044   0.535  20.309  0.00  0.00    +0.000 HD
ENDBRANCH  50  58
BRANCH  54  60
ATOM     60  C   UNL     1     -11.431  -2.309  23.817  0.00  0.00    +0.000 C 
ATOM     61  O   UNL     1     -10.581  -2.358  24.644  0.00  0.00    +0.000 OA
BRANCH  60  62
ATOM     62  O   UNL     1     -12.260  -3.370  23.607  0.00  0.00    +0.000 OA
ATOM     63  H   UNL     1     -11.934  -4.128  23.107  0.00  0.00    +0.000 HD
ENDBRANCH  60  62
ENDBRANCH  54  60
ENDBRANCH  47  49
ENDBRANCH  40  47
BRANCH  41  64
ATOM     64  O   UNL     1      -9.367  -1.645  19.242  0.00  0.00    +0.000 OA
ATOM     65  H   UNL     1      -9.791  -2.106  18.513  0.00  0.00    +0.000 HD
ENDBRANCH  41  64
ENDBRANCH  35  37
ENDBRANCH  34  35
ENDBRANCH   7  34
TORSDOF 13
ENDMDL
MODEL 4
REMARK VINA RESULT:   -10.079      1.784      3.024
REMARK INTER + INTRA:         -18.803
REMARK INTER:                 -17.236
REMARK INTRA:                  -1.567
REMARK UNBOUND:                -2.536
REMARK  Name = 
REMARK  13 active torsions:
REMARK  status: ('A' for Active; 'I' for Inactive)
REMARK    1  A    between atoms: C_2  and  C_34
REMARK    2  A    between atoms: N_3  and  C_4
REMARK    3  A    between atoms: C_10  and  O_11
REMARK    4  A    between atoms: O_11  and  C_12
REMARK    5  A    between atoms: C_12  and  C_14
REMARK    6  A    between atoms: C_16  and  O_17
REMARK    7  A    between atoms: C_18  and  C_19
REMARK    8  A    between atoms: C_19  and  C_21
REMARK    9  A    between atoms: C_22  and  O_23
REMARK   10  A    between atoms: C_27  and  C_28
REMARK   11  A    between atoms: C_28  and  O_30
REMARK   12  A    between atoms: C_31  and  O_32
REMARK   13  A    between atoms: C_37  and  O_38
REMARK                            x       y       z     vdW  Elec       q    Type
REMARK                         _______ _______ _______ _____ _____    ______ ____
ROOT
ATOM      1  C   UNL     1      -8.938  -7.139  17.060  0.00  0.00    +0.000 C 
ATOM      2  C   UNL     1     -10.324  -6.734  16.501  0.00  0.00    +0.000 C 
ATOM      3  C   UNL     1     -11.450  -7.321  17.372  0.00  0.00    +0.000 C 
ATOM      4  C   UNL     1     -11.343  -6.504  18.667  0.00  0.00    +0.000 C 
ATOM      5  C   UNL     1     -10.181  -5.536  18.378  0.00  0.00    +0.000 C 
ATOM      6  C   UNL     1     -10.384  -5.256  16.886  0.00  0.00    +0.000 C 
ATOM      7  C   UNL     1      -8.858  -6.332  18.405  0.00  0.00    +0.000 C 
ATOM      8  H   UNL     1      -8.155  -6.810  16.363  0.00  0.00    +0.000 HD
ATOM      9  H   UNL     1     -10.448  -6.945  15.435  0.00  0.00    +0.000 HD
ATOM     10  H   UNL     1     -11.351  -8.394  17.559  0.00  0.00    +0.000 HD
ATOM     11  H   UNL     1     -12.426  -7.164  16.901  0.00  0.00    +0.000 HD
ATOM     12  H   UNL     1     -11.155  -7.140  19.538  0.00  0.00    +0.000 HD
ATOM     13  H   UNL     1     -12.276  -5.958  18.836  0.00  0.00    +0.000 HD
ATOM     14  H   UNL     1     -10.174  -4.643  19.008  0.00  0.00    +0.000 HD
ATOM     15  H   UNL     1      -9.584  -4.656  16.441  0.00  0.00    +0.000 HD
ATOM     16  H   UNL     1     -11.352  -4.795  16.665  0.00  0.00    +0.000 HD
ATOM     17  H   UNL     1      -8.798  -6.989  19.280  0.00  0.00    +0.000 HD
ENDROOT
BRANCH   1  20
ATOM     18  O   UNL     1      -8.981  -9.011  14.946  0.00  0.00    +0.000 OA
ATOM     19  C   UNL     1      -8.860  -9.419  16.089  0.00  0.00    +0.000 C 
ATOM     20  N   UNL     1      -8.809  -8.590  17.187  0.00  0.00    +0.000 N 
ATOM     21  H   UNL     1      -8.726  -8.994  18.104  0.00  0.00    +0.000 HD
BRANCH  19  22
ATOM     22  C   UNL     1      -8.730 -10.877  16.328  0.00  0.00    +0.000 A 
ATOM     23  C   UNL     1      -8.593 -11.727  15.220  0.00  0.00    +0.000 A 
ATOM     24  C   UNL     1      -8.545 -13.113  15.397  0.00  0.00    +0.000 A 
ATOM     25  C   UNL     1      -8.646 -13.638  16.681  0.00  0.00    +0.000 A 
ATOM     26  C   UNL     1      -8.788 -12.803  17.785  0.00  0.00    +0.000 A 
ATOM     27  C   UNL     1      -8.824 -11.418  17.613  0.00  0.00    +0.000 A 
ATOM     28  H   UNL     1      -8.542 -11.310  14.216  0.00  0.00    +0.000 HD
ATOM     29  H   UNL     1      -8.447 -13.758  14.529  0.00  0.00    +0.000 HD
ATOM     30  H   UNL     1      -8.896 -13.234  18.777  0.00  0.00    +0.000 HD
ATOM     31  H   UNL     1      -8.980 -10.784  18.478  0.00  0.00    +0.000 HD
BRANCH  25  32
ATOM     32  O   UNL     1      -8.624 -14.981  16.908  0.00  0.00    +0.000 OA
ATOM     33  H   UNL     1      -8.700 -15.142  17.864  0.00  0.00    +0.000 HD
ENDBRANCH  25  32
ENDBRANCH  19  22
ENDBRANCH   1  20
BRANCH   7  34
ATOM     34  O   UNL     1      -7.730  -5.437  18.378  0.00  0.00    +0.000 OA
BRANCH  34  35
ATOM     35  C   UNL     1      -7.105  -5.274  19.578  0.00  0.00    +0.000 C 
ATOM     36  O   UNL     1      -6.061  -5.820  19.916  0.00  0.00    +0.000 OA
BRANCH  35  37
ATOM     37  C   UNL     1      -7.806  -4.269  20.414  0.00  0.00    +0.000 A 
ATOM     38  C   UNL     1      -8.530  -3.232  19.810  0.00  0.00    +0.000 A 
ATOM     39  C   UNL     1      -9.269  -2.344  20.605  0.00  0.00    +0.000 A 
ATOM     40  C   UNL     1      -9.335  -2.507  22.007  0.00  0.00    +0.000 A 
ATOM     41  C   UNL     1      -8.615  -3.570  22.576  0.00  0.00    +0.000 A 
ATOM     42  C   UNL     1      -7.829  -4.408  21.798  0.00  0.00    +0.000 A 
ATOM     43  H   UNL     1      -8.514  -3.123  18.729  0.00  0.00    +0.000 HD
ATOM     44  H   UNL     1      -7.292  -5.213  22.286  0.00  0.00    +0.000 HD
BRANCH  39  45
ATOM     45  O   UNL     1      -9.896  -1.292  19.991  0.00  0.00    +0.000 OA
ATOM     46  H   UNL     1     -10.616  -0.969  20.555  0.00  0.00    +0.000 HD
ENDBRANCH  39  45
BRANCH  40  47
ATOM     47  C   UNL     1     -10.146  -1.572  22.856  0.00  0.00    +0.000 C 
ATOM     48  O   UNL     1     -11.360  -1.726  22.957  0.00  0.00    +0.000 OA
BRANCH  47  49
ATOM     49  C   UNL     1      -9.550  -0.498  23.715  0.00  0.00    +0.000 A 
ATOM     50  C   UNL     1      -9.329   0.785  23.135  0.00  0.00    +0.000 A 
ATOM     51  C   UNL     1      -8.755   1.817  23.880  0.00  0.00    +0.000 A 
ATOM     52  C   UNL     1      -8.455   1.620  25.217  0.00  0.00    +0.000 A 
ATOM     53  C   UNL     1      -8.730   0.402  25.830  0.00  0.00    +0.000 A 
ATOM     54  C   UNL     1      -9.246  -0.670  25.102  0.00  0.00    +0.000 A 
ATOM     55  H   UNL     1      -8.515   2.768  23.407  0.00  0.00    +0.000 HD
ATOM     56  H   UNL     1      -7.972   2.406  25.794  0.00  0.00    +0.000 HD
ATOM     57  H   UNL     1      -8.480   0.292  26.875  0.00  0.00    +0.000 HD
BRANCH  50  58
ATOM     58  O   UNL     1      -9.643   1.148  21.850  0.00  0.00    +0.000 OA
ATOM     59  H   UNL     1     -10.614   1.268  21.762  0.00  0.00    +0.000 HD
ENDBRANCH  50  58
BRANCH  54  60
ATOM     60  C   UNL     1      -9.447  -1.961  25.866  0.00  0.00    +0.000 C 
ATOM     61  O   UNL     1      -8.614  -2.427  26.572  0.00  0.00    +0.000 OA
BRANCH  60  62
ATOM     62  O   UNL     1     -10.593  -2.646  25.595  0.00  0.00    +0.000 OA
ATOM     63  H   UNL     1     -10.820  -3.412  26.135  0.00  0.00    +0.000 HD
ENDBRANCH  60  62
ENDBRANCH  54  60
ENDBRANCH  47  49
ENDBRANCH  40  47
BRANCH  41  64
ATOM     64  O   UNL     1      -8.548  -3.875  23.911  0.00  0.00    +0.000 OA
ATOM     65  H   UNL     1      -8.349  -4.807  24.036  0.00  0.00    +0.000 HD
ENDBRANCH  41  64
ENDBRANCH  35  37
ENDBRANCH  34  35
ENDBRANCH   7  34
TORSDOF 13
ENDMDL
MODEL 5
REMARK VINA RESULT:    -9.941      3.350      8.877
REMARK INTER + INTRA:         -18.580
REMARK INTER:                 -16.428
REMARK INTRA:                  -2.152
REMARK UNBOUND:                -2.536
REMARK  Name = 
REMARK  13 active torsions:
REMARK  status: ('A' for Active; 'I' for Inactive)
REMARK    1  A    between atoms: C_2  and  C_34
REMARK    2  A    between atoms: N_3  and  C_4
REMARK    3  A    between atoms: C_10  and  O_11
REMARK    4  A    between atoms: O_11  and  C_12
REMARK    5  A    between atoms: C_12  and  C_14
REMARK    6  A    between atoms: C_16  and  O_17
REMARK    7  A    between atoms: C_18  and  C_19
REMARK    8  A    between atoms: C_19  and  C_21
REMARK    9  A    between atoms: C_22  and  O_23
REMARK   10  A    between atoms: C_27  and  C_28
REMARK   11  A    between atoms: C_28  and  O_30
REMARK   12  A    between atoms: C_31  and  O_32
REMARK   13  A    between atoms: C_37  and  O_38
REMARK                            x       y       z     vdW  Elec       q    Type
REMARK                         _______ _______ _______ _____ _____    ______ ____
ROOT
ATOM      1  C   UNL     1     -11.131  -2.050  16.844  0.00  0.00    +0.000 C 
ATOM      2  C   UNL     1     -11.608  -0.583  16.978  0.00  0.00    +0.000 C 
ATOM      3  C   UNL     1     -10.422   0.387  16.830  0.00  0.00    +0.000 C 
ATOM      4  C   UNL     1     -10.067   0.270  15.342  0.00  0.00    +0.000 C 
ATOM      5  C   UNL     1     -11.102  -0.739  14.810  0.00  0.00    +0.000 C 
ATOM      6  C   UNL     1     -12.332  -0.380  15.648  0.00  0.00    +0.000 C 
ATOM      7  C   UNL     1     -10.729  -2.145  15.328  0.00  0.00    +0.000 C 
ATOM      8  H   UNL     1     -11.966  -2.727  17.067  0.00  0.00    +0.000 HD
ATOM      9  H   UNL     1     -12.210  -0.396  17.872  0.00  0.00    +0.000 HD
ATOM     10  H   UNL     1      -9.569   0.145  17.472  0.00  0.00    +0.000 HD
ATOM     11  H   UNL     1     -10.726   1.411  17.071  0.00  0.00    +0.000 HD
ATOM     12  H   UNL     1      -9.036  -0.065  15.191  0.00  0.00    +0.000 HD
ATOM     13  H   UNL     1     -10.184   1.244  14.857  0.00  0.00    +0.000 HD
ATOM     14  H   UNL     1     -11.261  -0.692  13.731  0.00  0.00    +0.000 HD
ATOM     15  H   UNL     1     -13.176  -1.061  15.500  0.00  0.00    +0.000 HD
ATOM     16  H   UNL     1     -12.667   0.652  15.497  0.00  0.00    +0.000 HD
ATOM     17  H   UNL     1      -9.662  -2.358  15.194  0.00  0.00    +0.000 HD
ENDROOT
BRANCH   1  20
ATOM     18  O   UNL     1     -11.238  -3.998  18.886  0.00  0.00    +0.000 OA
ATOM     19  C   UNL     1     -10.228  -3.324  18.769  0.00  0.00    +0.000 C 
ATOM     20  N   UNL     1     -10.067  -2.362  17.797  0.00  0.00    +0.000 N 
ATOM     21  H   UNL     1      -9.215  -1.830  17.769  0.00  0.00    +0.000 HD
BRANCH  19  22
ATOM     22  C   UNL     1      -9.091  -3.556  19.694  0.00  0.00    +0.000 A 
ATOM     23  C   UNL     1      -8.845  -2.612  20.702  0.00  0.00    +0.000 A 
ATOM     24  C   UNL     1      -7.740  -2.755  21.546  0.00  0.00    +0.000 A 
ATOM     25  C   UNL     1      -6.882  -3.836  21.366  0.00  0.00    +0.000 A 
ATOM     26  C   UNL     1      -7.115  -4.774  20.365  0.00  0.00    +0.000 A 
ATOM     27  C   UNL     1      -8.225  -4.640  19.529  0.00  0.00    +0.000 A 
ATOM     28  H   UNL     1      -9.505  -1.755  20.819  0.00  0.00    +0.000 HD
ATOM     29  H   UNL     1      -7.558  -2.012  22.316  0.00  0.00    +0.000 HD
ATOM     30  H   UNL     1      -6.417  -5.594  20.221  0.00  0.00    +0.000 HD
ATOM     31  H   UNL     1      -8.367  -5.355  18.725  0.00  0.00    +0.000 HD
BRANCH  25  32
ATOM     32  O   UNL     1      -5.780  -4.011  22.148  0.00  0.00    +0.000 OA
ATOM     33  H   UNL     1      -5.296  -4.797  21.841  0.00  0.00    +0.000 HD
ENDBRANCH  25  32
ENDBRANCH  19  22
ENDBRANCH   1  20
BRANCH   7  34
ATOM     34  O   UNL     1     -11.522  -3.151  14.669  0.00  0.00    +0.000 OA
BRANCH  34  35
ATOM     35  C   UNL     1     -10.814  -4.221  14.206  0.00  0.00    +0.000 C 
ATOM     36  O   UNL     1     -10.426  -4.371  13.054  0.00  0.00    +0.000 OA
BRANCH  35  37
ATOM     37  C   UNL     1     -10.486  -5.160  15.306  0.00  0.00    +0.000 A 
ATOM     38  C   UNL     1     -11.510  -5.830  15.990  0.00  0.00    +0.000 A 
ATOM     39  C   UNL     1     -11.187  -6.788  16.961  0.00  0.00    +0.000 A 
ATOM     40  C   UNL     1      -9.842  -7.126  17.230  0.00  0.00    +0.000 A 
ATOM     41  C   UNL     1      -8.842  -6.451  16.511  0.00  0.00    +0.000 A 
ATOM     42  C   UNL     1      -9.159  -5.455  15.598  0.00  0.00    +0.000 A 
ATOM     43  H   UNL     1     -12.548  -5.602  15.761  0.00  0.00    +0.000 HD
ATOM     44  H   UNL     1      -8.349  -4.963  15.069  0.00  0.00    +0.000 HD
BRANCH  39  45
ATOM     45  O   UNL     1     -12.210  -7.362  17.670  0.00  0.00    +0.000 OA
ATOM     46  H   UNL     1     -11.889  -8.164  18.111  0.00  0.00    +0.000 HD
ENDBRANCH  39  45
BRANCH  40  47
ATOM     47  C   UNL     1      -9.497  -8.169  18.252  0.00  0.00    +0.000 C 
ATOM     48  O   UNL     1      -9.578  -7.910  19.450  0.00  0.00    +0.000 OA
BRANCH  47  49
ATOM     49  C   UNL     1      -9.161  -9.590  17.913  0.00  0.00    +0.000 A 
ATOM     50  C   UNL     1      -8.572 -10.404  18.924  0.00  0.00    +0.000 A 
ATOM     51  C   UNL     1      -8.216 -11.727  18.658  0.00  0.00    +0.000 A 
ATOM     52  C   UNL     1      -8.495 -12.284  17.422  0.00  0.00    +0.000 A 
ATOM     53  C   UNL     1      -9.138 -11.535  16.441  0.00  0.00    +0.000 A 
ATOM     54  C   UNL     1      -9.453 -10.193  16.650  0.00  0.00    +0.000 A 
ATOM     55  H   UNL     1      -7.693 -12.317  19.411  0.00  0.00    +0.000 HD
ATOM     56  H   UNL     1      -8.186 -13.301  17.195  0.00  0.00    +0.000 HD
ATOM     57  H   UNL     1      -9.336 -12.010  15.491  0.00  0.00    +0.000 HD
BRANCH  50  58
ATOM     58  O   UNL     1      -8.306 -10.014  20.212  0.00  0.00    +0.000 OA
ATOM     59  H   UNL     1      -9.140  -9.771  20.670  0.00  0.00    +0.000 HD
ENDBRANCH  50  58
BRANCH  54  60
ATOM     60  C   UNL     1     -10.097  -9.470  15.487  0.00  0.00    +0.000 C 
ATOM     61  O   UNL     1     -11.270  -9.316  15.395  0.00  0.00    +0.000 OA
BRANCH  60  62
ATOM     62  O   UNL     1      -9.266  -9.118  14.465  0.00  0.00    +0.000 OA
ATOM     63  H   UNL     1      -8.442  -9.605  14.342  0.00  0.00    +0.000 HD
ENDBRANCH  60  62
ENDBRANCH  54  60
ENDBRANCH  47  49
ENDBRANCH  40  47
BRANCH  41  64
ATOM     64  O   UNL     1      -7.490  -6.634  16.645  0.00  0.00    +0.000 OA
ATOM     65  H   UNL     1      -7.219  -6.502  17.557  0.00  0.00    +0.000 HD
ENDBRANCH  41  64
ENDBRANCH  35  37
ENDBRANCH  34  35
ENDBRANCH   7  34
TORSDOF 13
ENDMDL
MODEL 6
REMARK VINA RESULT:    -9.845      0.910      2.205
REMARK INTER + INTRA:         -18.424
REMARK INTER:                 -16.066
REMARK INTRA:                  -2.359
REMARK UNBOUND:                -2.536
REMARK  Name = 
REMARK  13 active torsions:
REMARK  status: ('A' for Active; 'I' for Inactive)
REMARK    1  A    between atoms: C_2  and  C_34
REMARK    2  A    between atoms: N_3  and  C_4
REMARK    3  A    between atoms: C_10  and  O_11
REMARK    4  A    between atoms: O_11  and  C_12
REMARK    5  A    between atoms: C_12  and  C_14
REMARK    6  A    between atoms: C_16  and  O_17
REMARK    7  A    between atoms: C_18  and  C_19
REMARK    8  A    between atoms: C_19  and  C_21
REMARK    9  A    between atoms: C_22  and  O_23
REMARK   10  A    between atoms: C_27  and  C_28
REMARK   11  A    between atoms: C_28  and  O_30
REMARK   12  A    between atoms: C_31  and  O_32
REMARK   13  A    between atoms: C_37  and  O_38
REMARK                            x       y       z     vdW  Elec       q    Type
REMARK                         _______ _______ _______ _____ _____    ______ ____
ROOT
ATOM      1  C   UNL     1      -9.232  -7.440  18.715  0.00  0.00    +0.000 C 
ATOM      2  C   UNL     1      -8.352  -7.060  19.931  0.00  0.00    +0.000 C 
ATOM      3  C   UNL     1      -6.860  -7.098  19.551  0.00  0.00    +0.000 C 
ATOM      4  C   UNL     1      -6.713  -5.887  18.620  0.00  0.00    +0.000 C 
ATOM      5  C   UNL     1      -8.131  -5.289  18.591  0.00  0.00    +0.000 C 
ATOM      6  C   UNL     1      -8.601  -5.555  20.024  0.00  0.00    +0.000 C 
ATOM      7  C   UNL     1      -9.038  -6.215  17.751  0.00  0.00    +0.000 C 
ATOM      8  H   UNL     1     -10.280  -7.520  19.035  0.00  0.00    +0.000 HD
ATOM      9  H   UNL     1      -8.581  -7.629  20.837  0.00  0.00    +0.000 HD
ATOM     10  H   UNL     1      -6.552  -8.027  19.062  0.00  0.00    +0.000 HD
ATOM     11  H   UNL     1      -6.231  -6.976  20.439  0.00  0.00    +0.000 HD
ATOM     12  H   UNL     1      -6.356  -6.175  17.626  0.00  0.00    +0.000 HD
ATOM     13  H   UNL     1      -5.997  -5.178  19.048  0.00  0.00    +0.000 HD
ATOM     14  H   UNL     1      -8.170  -4.239  18.291  0.00  0.00    +0.000 HD
ATOM     15  H   UNL     1      -9.651  -5.295  20.195  0.00  0.00    +0.000 HD
ATOM     16  H   UNL     1      -7.976  -5.063  20.777  0.00  0.00    +0.000 HD
ATOM     17  H   UNL     1      -8.563  -6.501  16.807  0.00  0.00    +0.000 HD
ENDROOT
BRANCH   1  20
ATOM     18  O   UNL     1     -10.654  -8.893  16.754  0.00  0.00    +0.000 OA
ATOM     19  C   UNL     1      -9.633  -9.374  17.217  0.00  0.00    +0.000 C 
ATOM     20  N   UNL     1      -8.858  -8.741  18.162  0.00  0.00    +0.000 N 
ATOM     21  H   UNL     1      -8.037  -9.202  18.513  0.00  0.00    +0.000 HD
BRANCH  19  22
ATOM     22  C   UNL     1      -9.170 -10.696  16.728  0.00  0.00    +0.000 A 
ATOM     23  C   UNL     1      -9.104 -10.912  15.343  0.00  0.00    +0.000 A 
ATOM     24  C   UNL     1      -8.745 -12.167  14.843  0.00  0.00    +0.000 A 
ATOM     25  C   UNL     1      -8.468 -13.200  15.732  0.00  0.00    +0.000 A 
ATOM     26  C   UNL     1      -8.537 -12.997  17.108  0.00  0.00    +0.000 A 
ATOM     27  C   UNL     1      -8.883 -11.741  17.611  0.00  0.00    +0.000 A 
ATOM     28  H   UNL     1      -9.349 -10.107  14.654  0.00  0.00    +0.000 HD
ATOM     29  H   UNL     1      -8.707 -12.321  13.769  0.00  0.00    +0.000 HD
ATOM     30  H   UNL     1      -8.346 -13.824  17.786  0.00  0.00    +0.000 HD
ATOM     31  H   UNL     1      -8.976 -11.611  18.683  0.00  0.00    +0.000 HD
BRANCH  25  32
ATOM     32  O   UNL     1      -8.133 -14.447  15.298  0.00  0.00    +0.000 OA
ATOM     33  H   UNL     1      -8.043 -14.432  14.330  0.00  0.00    +0.000 HD
ENDBRANCH  25  32
ENDBRANCH  19  22
ENDBRANCH   1  20
BRANCH   7  34
ATOM     34  O   UNL     1     -10.307  -5.581  17.497  0.00  0.00    +0.000 OA
BRANCH  34  35
ATOM     35  C   UNL     1     -10.221  -4.289  17.068  0.00  0.00    +0.000 C 
ATOM     36  O   UNL     1      -9.904  -3.934  15.940  0.00  0.00    +0.000 OA
BRANCH  35  37
ATOM     37  C   UNL     1     -10.652  -3.346  18.129  0.00  0.00    +0.000 A 
ATOM     38  C   UNL     1     -11.601  -3.742  19.082  0.00  0.00    +0.000 A 
ATOM     39  C   UNL     1     -11.929  -2.879  20.137  0.00  0.00    +0.000 A 
ATOM     40  C   UNL     1     -11.282  -1.632  20.284  0.00  0.00    +0.000 A 
ATOM     41  C   UNL     1     -10.321  -1.277  19.323  0.00  0.00    +0.000 A 
ATOM     42  C   UNL     1     -10.044  -2.100  18.242  0.00  0.00    +0.000 A 
ATOM     43  H   UNL     1     -12.075  -4.716  18.996  0.00  0.00    +0.000 HD
ATOM     44  H   UNL     1      -9.293  -1.780  17.527  0.00  0.00    +0.000 HD
BRANCH  39  45
ATOM     45  O   UNL     1     -12.921  -3.261  21.001  0.00  0.00    +0.000 OA
ATOM     46  H   UNL     1     -13.003  -4.228  20.994  0.00  0.00    +0.000 HD
ENDBRANCH  39  45
BRANCH  40  47
ATOM     47  C   UNL     1     -11.615  -0.718  21.427  0.00  0.00    +0.000 C 
ATOM     48  O   UNL     1     -12.734  -0.218  21.511  0.00  0.00    +0.000 OA
BRANCH  47  49
ATOM     49  C   UNL     1     -10.693  -0.452  22.578  0.00  0.00    +0.000 A 
ATOM     50  C   UNL     1     -10.318  -1.547  23.409  0.00  0.00    +0.000 A 
ATOM     51  C   UNL     1      -9.481  -1.355  24.510  0.00  0.00    +0.000 A 
ATOM     52  C   UNL     1      -8.951  -0.102  24.765  0.00  0.00    +0.000 A 
ATOM     53  C   UNL     1      -9.238   0.970  23.926  0.00  0.00    +0.000 A 
ATOM     54  C   UNL     1     -10.119   0.829  22.854  0.00  0.00    +0.000 A 
ATOM     55  H   UNL     1      -9.265  -2.181  25.187  0.00  0.00    +0.000 HD
ATOM     56  H   UNL     1      -8.329   0.064  25.642  0.00  0.00    +0.000 HD
ATOM     57  H   UNL     1      -8.803   1.930  24.162  0.00  0.00    +0.000 HD
BRANCH  50  58
ATOM     58  O   UNL     1     -10.703  -2.852  23.237  0.00  0.00    +0.000 OA
ATOM     59  H   UNL     1     -11.643  -2.964  23.497  0.00  0.00    +0.000 HD
ENDBRANCH  50  58
BRANCH  54  60
ATOM     60  C   UNL     1     -10.399   2.080  22.050  0.00  0.00    +0.000 C 
ATOM     61  O   UNL     1     -11.184   2.902  22.392  0.00  0.00    +0.000 OA
BRANCH  60  62
ATOM     62  O   UNL     1      -9.799   2.155  20.829  0.00  0.00    +0.000 OA
ATOM     63  H   UNL     1     -10.338   2.060  20.035  0.00  0.00    +0.000 HD
ENDBRANCH  60  62
ENDBRANCH  54  60
ENDBRANCH  47  49
ENDBRANCH  40  47
BRANCH  41  64
ATOM     64  O   UNL     1      -9.604  -0.109  19.294  0.00  0.00    +0.000 OA
ATOM     65  H   UNL     1      -9.913   0.461  18.584  0.00  0.00    +0.000 HD
ENDBRANCH  41  64
ENDBRANCH  35  37
ENDBRANCH  34  35
ENDBRANCH   7  34
TORSDOF 13
ENDMDL
MODEL 7
REMARK VINA RESULT:    -9.717      0.633      2.382
REMARK INTER + INTRA:         -18.218
REMARK INTER:                 -16.611
REMARK INTRA:                  -1.608
REMARK UNBOUND:                -2.536
REMARK  Name = 
REMARK  13 active torsions:
REMARK  status: ('A' for Active; 'I' for Inactive)
REMARK    1  A    between atoms: C_2  and  C_34
REMARK    2  A    between atoms: N_3  and  C_4
REMARK    3  A    between atoms: C_10  and  O_11
REMARK    4  A    between atoms: O_11  and  C_12
REMARK    5  A    between atoms: C_12  and  C_14
REMARK    6  A    between atoms: C_16  and  O_17
REMARK    7  A    between atoms: C_18  and  C_19
REMARK    8  A    between atoms: C_19  and  C_21
REMARK    9  A    between atoms: C_22  and  O_23
REMARK   10  A    between atoms: C_27  and  C_28
REMARK   11  A    between atoms: C_28  and  O_30
REMARK   12  A    between atoms: C_31  and  O_32
REMARK   13  A    between atoms: C_37  and  O_38
REMARK                            x       y       z     vdW  Elec       q    Type
REMARK                         _______ _______ _______ _____ _____    ______ ____
ROOT
ATOM      1  C   UNL     1      -9.259  -7.331  18.779  0.00  0.00    +0.000 C 
ATOM      2  C   UNL     1      -8.318  -7.038  19.973  0.00  0.00    +0.000 C 
ATOM      3  C   UNL     1      -6.845  -7.110  19.530  0.00  0.00    +0.000 C 
ATOM      4  C   UNL     1      -6.691  -5.863  18.649  0.00  0.00    +0.000 C 
ATOM      5  C   UNL     1      -8.087  -5.216  18.706  0.00  0.00    +0.000 C 
ATOM      6  C   UNL     1      -8.509  -5.532  20.144  0.00  0.00    +0.000 C 
ATOM      7  C   UNL     1      -9.060  -6.070  17.864  0.00  0.00    +0.000 C 
ATOM      8  H   UNL     1     -10.295  -7.390  19.138  0.00  0.00    +0.000 HD
ATOM      9  H   UNL     1      -8.531  -7.641  20.861  0.00  0.00    +0.000 HD
ATOM     10  H   UNL     1      -6.590  -8.025  18.987  0.00  0.00    +0.000 HD
ATOM     11  H   UNL     1      -6.176  -7.051  20.395  0.00  0.00    +0.000 HD
ATOM     12  H   UNL     1      -6.385  -6.116  17.629  0.00  0.00    +0.000 HD
ATOM     13  H   UNL     1      -5.933  -5.200  19.078  0.00  0.00    +0.000 HD
ATOM     14  H   UNL     1      -8.100  -4.153  18.455  0.00  0.00    +0.000 HD
ATOM     15  H   UNL     1      -9.540  -5.245  20.370  0.00  0.00    +0.000 HD
ATOM     16  H   UNL     1      -7.837  -5.098  20.892  0.00  0.00    +0.000 HD
ATOM     17  H   UNL     1      -8.633  -6.329  16.888  0.00  0.00    +0.000 HD
ENDROOT
BRANCH   1  20
ATOM     18  O   UNL     1     -10.813  -8.645  16.820  0.00  0.00    +0.000 OA
ATOM     19  C   UNL     1      -9.791  -9.180  17.215  0.00  0.00    +0.000 C 
ATOM     20  N   UNL     1      -8.954  -8.617  18.153  0.00  0.00    +0.000 N 
ATOM     21  H   UNL     1      -8.136  -9.122  18.447  0.00  0.00    +0.000 HD
BRANCH  19  22
ATOM     22  C   UNL     1      -9.395 -10.493  16.649  0.00  0.00    +0.000 A 
ATOM     23  C   UNL     1      -8.999 -11.510  17.530  0.00  0.00    +0.000 A 
ATOM     24  C   UNL     1      -8.547 -12.736  17.032  0.00  0.00    +0.000 A 
ATOM     25  C   UNL     1      -8.484 -12.930  15.656  0.00  0.00    +0.000 A 
ATOM     26  C   UNL     1      -8.869 -11.925  14.775  0.00  0.00    +0.000 A 
ATOM     27  C   UNL     1      -9.333 -10.704  15.269  0.00  0.00    +0.000 A 
ATOM     28  H   UNL     1      -9.025 -11.342  18.605  0.00  0.00    +0.000 HD
ATOM     29  H   UNL     1      -8.235 -13.511  17.727  0.00  0.00    +0.000 HD
ATOM     30  H   UNL     1      -8.784 -12.085  13.703  0.00  0.00    +0.000 HD
ATOM     31  H   UNL     1      -9.587  -9.916  14.568  0.00  0.00    +0.000 HD
BRANCH  25  32
ATOM     32  O   UNL     1      -8.032 -14.098  15.119  0.00  0.00    +0.000 OA
ATOM     33  H   UNL     1      -8.669 -14.407  14.452  0.00  0.00    +0.000 HD
ENDBRANCH  25  32
ENDBRANCH  19  22
ENDBRANCH   1  20
BRANCH   7  34
ATOM     34  O   UNL     1     -10.314  -5.383  17.691  0.00  0.00    +0.000 OA
BRANCH  34  35
ATOM     35  C   UNL     1     -10.199  -4.074  17.325  0.00  0.00    +0.000 C 
ATOM     36  O   UNL     1     -10.030  -3.669  16.181  0.00  0.00    +0.000 OA
BRANCH  35  37
ATOM     37  C   UNL     1     -10.394  -3.175  18.488  0.00  0.00    +0.000 A 
ATOM     38  C   UNL     1      -9.588  -2.040  18.646  0.00  0.00    +0.000 A 
ATOM     39  C   UNL     1      -9.843  -1.145  19.695  0.00  0.00    +0.000 A 
ATOM     40  C   UNL     1     -10.933  -1.344  20.571  0.00  0.00    +0.000 A 
ATOM     41  C   UNL     1     -11.734  -2.480  20.370  0.00  0.00    +0.000 A 
ATOM     42  C   UNL     1     -11.442  -3.402  19.375  0.00  0.00    +0.000 A 
ATOM     43  H   UNL     1      -8.770  -1.862  17.953  0.00  0.00    +0.000 HD
ATOM     44  H   UNL     1     -12.091  -4.264  19.263  0.00  0.00    +0.000 HD
BRANCH  39  45
ATOM     45  O   UNL     1      -8.984  -0.092  19.871  0.00  0.00    +0.000 OA
ATOM     46  H   UNL     1      -8.952   0.147  20.810  0.00  0.00    +0.000 HD
ENDBRANCH  39  45
BRANCH  40  47
ATOM     47  C   UNL     1     -11.221  -0.373  21.678  0.00  0.00    +0.000 C 
ATOM     48  O   UNL     1     -12.216   0.345  21.626  0.00  0.00    +0.000 OA
BRANCH  47  49
ATOM     49  C   UNL     1     -10.423  -0.293  22.945  0.00  0.00    +0.000 A 
ATOM     50  C   UNL     1     -10.178  -1.498  23.665  0.00  0.00    +0.000 A 
ATOM     51  C   UNL     1      -9.463  -1.481  24.864  0.00  0.00    +0.000 A 
ATOM     52  C   UNL     1      -8.924  -0.294  25.331  0.00  0.00    +0.000 A 
ATOM     53  C   UNL     1      -9.082   0.885  24.608  0.00  0.00    +0.000 A 
ATOM     54  C   UNL     1      -9.843   0.917  23.440  0.00  0.00    +0.000 A 
ATOM     55  H   UNL     1      -9.349  -2.393  25.449  0.00  0.00    +0.000 HD
ATOM     56  H   UNL     1      -8.398  -0.266  26.282  0.00  0.00    +0.000 HD
ATOM     57  H   UNL     1      -8.645   1.787  25.010  0.00  0.00    +0.000 HD
BRANCH  50  58
ATOM     58  O   UNL     1     -10.584  -2.753  23.289  0.00  0.00    +0.000 OA
ATOM     59  H   UNL     1     -11.427  -2.699  22.789  0.00  0.00    +0.000 HD
ENDBRANCH  50  58
BRANCH  54  60
ATOM     60  C   UNL     1      -9.991   2.269  22.777  0.00  0.00    +0.000 C 
ATOM     61  O   UNL     1     -10.434   3.216  23.339  0.00  0.00    +0.000 OA
BRANCH  60  62
ATOM     62  O   UNL     1      -9.717   2.315  21.443  0.00  0.00    +0.000 OA
ATOM     63  H   UNL     1      -9.429   3.149  21.052  0.00  0.00    +0.000 HD
ENDBRANCH  60  62
ENDBRANCH  54  60
ENDBRANCH  47  49
ENDBRANCH  40  47
BRANCH  41  64
ATOM     64  O   UNL     1     -12.820  -2.844  21.124  0.00  0.00    +0.000 OA
ATOM     65  H   UNL     1     -13.093  -3.741  20.913  0.00  0.00    +0.000 HD
ENDBRANCH  41  64
ENDBRANCH  35  37
ENDBRANCH  34  35
ENDBRANCH   7  34
TORSDOF 13
ENDMDL
MODEL 8
REMARK VINA RESULT:    -9.594      2.629      9.513
REMARK INTER + INTRA:         -18.020
REMARK INTER:                 -16.461
REMARK INTRA:                  -1.559
REMARK UNBOUND:                -2.536
REMARK  Name = 
REMARK  13 active torsions:
REMARK  status: ('A' for Active; 'I' for Inactive)
REMARK    1  A    between atoms: C_2  and  C_34
REMARK    2  A    between atoms: N_3  and  C_4
REMARK    3  A    between atoms: C_10  and  O_11
REMARK    4  A    between atoms: O_11  and  C_12
REMARK    5  A    between atoms: C_12  and  C_14
REMARK    6  A    between atoms: C_16  and  O_17
REMARK    7  A    between atoms: C_18  and  C_19
REMARK    8  A    between atoms: C_19  and  C_21
REMARK    9  A    between atoms: C_22  and  O_23
REMARK   10  A    between atoms: C_27  and  C_28
REMARK   11  A    between atoms: C_28  and  O_30
REMARK   12  A    between atoms: C_31  and  O_32
REMARK   13  A    between atoms: C_37  and  O_38
REMARK                            x       y       z     vdW  Elec       q    Type
REMARK                         _______ _______ _______ _____ _____    ______ ____
ROOT
ATOM      1  C   UNL     1     -11.485  -0.341  19.295  0.00  0.00    +0.000 C 
ATOM      2  C   UNL     1     -11.030   1.068  18.840  0.00  0.00    +0.000 C 
ATOM      3  C   UNL     1      -9.496   1.128  18.722  0.00  0.00    +0.000 C 
ATOM      4  C   UNL     1      -9.212   0.255  17.492  0.00  0.00    +0.000 C 
ATOM      5  C   UNL     1     -10.616  -0.188  17.042  0.00  0.00    +0.000 C 
ATOM      6  C   UNL     1     -11.445   1.057  17.369  0.00  0.00    +0.000 C 
ATOM      7  C   UNL     1     -11.149  -1.233  18.046  0.00  0.00    +0.000 C 
ATOM      8  H   UNL     1     -12.567  -0.330  19.484  0.00  0.00    +0.000 HD
ATOM      9  H   UNL     1     -11.449   1.881  19.439  0.00  0.00    +0.000 HD
ATOM     10  H   UNL     1      -8.969   0.765  19.609  0.00  0.00    +0.000 HD
ATOM     11  H   UNL     1      -9.161   2.156  18.546  0.00  0.00    +0.000 HD
ATOM     12  H   UNL     1      -8.560  -0.591  17.732  0.00  0.00    +0.000 HD
ATOM     13  H   UNL     1      -8.722   0.855  16.719  0.00  0.00    +0.000 HD
ATOM     14  H   UNL     1     -10.673  -0.507  15.998  0.00  0.00    +0.000 HD
ATOM     15  H   UNL     1     -12.521   0.918  17.219  0.00  0.00    +0.000 HD
ATOM     16  H   UNL     1     -11.113   1.948  16.824  0.00  0.00    +0.000 HD
ATOM     17  H   UNL     1     -10.398  -1.998  18.273  0.00  0.00    +0.000 HD
ENDROOT
BRANCH   1  20
ATOM     18  O   UNL     1     -12.673  -0.352  21.857  0.00  0.00    +0.000 OA
ATOM     19  C   UNL     1     -11.507  -0.692  21.749  0.00  0.00    +0.000 C 
ATOM     20  N   UNL     1     -10.840  -0.740  20.545  0.00  0.00    +0.000 N 
ATOM     21  H   UNL     1      -9.873  -1.013  20.530  0.00  0.00    +0.000 HD
BRANCH  19  22
ATOM     22  C   UNL     1     -10.759  -1.108  22.961  0.00  0.00    +0.000 A 
ATOM     23  C   UNL     1     -11.204  -2.235  23.668  0.00  0.00    +0.000 A 
ATOM     24  C   UNL     1     -10.573  -2.615  24.856  0.00  0.00    +0.000 A 
ATOM     25  C   UNL     1      -9.509  -1.856  25.334  0.00  0.00    +0.000 A 
ATOM     26  C   UNL     1      -9.065  -0.733  24.642  0.00  0.00    +0.000 A 
ATOM     27  C   UNL     1      -9.685  -0.359  23.448  0.00  0.00    +0.000 A 
ATOM     28  H   UNL     1     -12.055  -2.807  23.302  0.00  0.00    +0.000 HD
ATOM     29  H   UNL     1     -10.934  -3.484  25.397  0.00  0.00    +0.000 HD
ATOM     30  H   UNL     1      -8.252  -0.137  25.047  0.00  0.00    +0.000 HD
ATOM     31  H   UNL     1      -9.355   0.544  22.945  0.00  0.00    +0.000 HD
BRANCH  25  32
ATOM     32  O   UNL     1      -8.872  -2.171  26.496  0.00  0.00    +0.000 OA
ATOM     33  H   UNL     1      -8.442  -3.037  26.398  0.00  0.00    +0.000 HD
ENDBRANCH  25  32
ENDBRANCH  19  22
ENDBRANCH   1  20
BRANCH   7  34
ATOM     34  O   UNL     1     -12.349  -1.850  17.542  0.00  0.00    +0.000 OA
BRANCH  34  35
ATOM     35  C   UNL     1     -12.211  -2.453  16.327  0.00  0.00    +0.000 C 
ATOM     36  O   UNL     1     -12.674  -2.039  15.272  0.00  0.00    +0.000 OA
BRANCH  35  37
ATOM     37  C   UNL     1     -11.343  -3.652  16.422  0.00  0.00    +0.000 A 
ATOM     38  C   UNL     1     -10.496  -3.996  15.360  0.00  0.00    +0.000 A 
ATOM     39  C   UNL     1      -9.609  -5.072  15.497  0.00  0.00    +0.000 A 
ATOM     40  C   UNL     1      -9.519  -5.791  16.710  0.00  0.00    +0.000 A 
ATOM     41  C   UNL     1     -10.368  -5.405  17.761  0.00  0.00    +0.000 A 
ATOM     42  C   UNL     1     -11.293  -4.384  17.604  0.00  0.00    +0.000 A 
ATOM     43  H   UNL     1     -10.533  -3.423  14.436  0.00  0.00    +0.000 HD
ATOM     44  H   UNL     1     -11.925  -4.125  18.447  0.00  0.00    +0.000 HD
BRANCH  39  45
ATOM     45  O   UNL     1      -8.857  -5.434  14.410  0.00  0.00    +0.000 OA
ATOM     46  H   UNL     1      -9.265  -5.085  13.602  0.00  0.00    +0.000 HD
ENDBRANCH  39  45
BRANCH  40  47
ATOM     47  C   UNL     1      -8.553  -6.928  16.866  0.00  0.00    +0.000 C 
ATOM     48  O   UNL     1      -7.376  -6.705  17.136  0.00  0.00    +0.000 OA
BRANCH  47  49
ATOM     49  C   UNL     1      -8.953  -8.372  16.830  0.00  0.00    +0.000 A 
ATOM     50  C   UNL     1      -9.171  -8.981  15.561  0.00  0.00    +0.000 A 
ATOM     51  C   UNL     1      -9.568 -10.316  15.467  0.00  0.00    +0.000 A 
ATOM     52  C   UNL     1      -9.689 -11.084  16.613  0.00  0.00    +0.000 A 
ATOM     53  C   UNL     1      -9.408 -10.536  17.861  0.00  0.00    +0.000 A 
ATOM     54  C   UNL     1      -9.069  -9.190  17.997  0.00  0.00    +0.000 A 
ATOM     55  H   UNL     1      -9.811 -10.751  14.498  0.00  0.00    +0.000 HD
ATOM     56  H   UNL     1     -10.034 -12.113  16.552  0.00  0.00    +0.000 HD
ATOM     57  H   UNL     1      -9.515 -11.171  18.729  0.00  0.00    +0.000 HD
BRANCH  50  58
ATOM     58  O   UNL     1      -9.018  -8.370  14.342  0.00  0.00    +0.000 OA
ATOM     59  H   UNL     1      -9.192  -9.011  13.619  0.00  0.00    +0.000 HD
ENDBRANCH  50  58
BRANCH  54  60
ATOM     60  C   UNL     1      -8.845  -8.698  19.411  0.00  0.00    +0.000 C 
ATOM     61  O   UNL     1      -8.166  -7.759  19.665  0.00  0.00    +0.000 OA
BRANCH  60  62
ATOM     62  O   UNL     1      -9.356  -9.478  20.405  0.00  0.00    +0.000 OA
ATOM     63  H   UNL     1      -8.874  -9.552  21.238  0.00  0.00    +0.000 HD
ENDBRANCH  60  62
ENDBRANCH  54  60
ENDBRANCH  47  49
ENDBRANCH  40  47
BRANCH  41  64
ATOM     64  O   UNL     1     -10.432  -5.990  19.000  0.00  0.00    +0.000 OA
ATOM     65  H   UNL     1     -11.334  -6.253  19.204  0.00  0.00    +0.000 HD
ENDBRANCH  41  64
ENDBRANCH  35  37
ENDBRANCH  34  35
ENDBRANCH   7  34
TORSDOF 13
ENDMDL
MODEL 9
REMARK VINA RESULT:    -9.396      2.618      9.634
REMARK INTER + INTRA:         -17.699
REMARK INTER:                 -16.796
REMARK INTRA:                  -0.903
REMARK UNBOUND:                -2.536
REMARK  Name = 
REMARK  13 active torsions:
REMARK  status: ('A' for Active; 'I' for Inactive)
REMARK    1  A    between atoms: C_2  and  C_34
REMARK    2  A    between atoms: N_3  and  C_4
REMARK    3  A    between atoms: C_10  and  O_11
REMARK    4  A    between atoms: O_11  and  C_12
REMARK    5  A    between atoms: C_12  and  C_14
REMARK    6  A    between atoms: C_16  and  O_17
REMARK    7  A    between atoms: C_18  and  C_19
REMARK    8  A    between atoms: C_19  and  C_21
REMARK    9  A    between atoms: C_22  and  O_23
REMARK   10  A    between atoms: C_27  and  C_28
REMARK   11  A    between atoms: C_28  and  O_30
REMARK   12  A    between atoms: C_31  and  O_32
REMARK   13  A    between atoms: C_37  and  O_38
REMARK                            x       y       z     vdW  Elec       q    Type
REMARK                         _______ _______ _______ _____ _____    ______ ____
ROOT
ATOM      1  C   UNL     1     -11.455  -1.398  18.841  0.00  0.00    +0.000 C 
ATOM      2  C   UNL     1     -11.168   0.064  18.418  0.00  0.00    +0.000 C 
ATOM      3  C   UNL     1      -9.651   0.321  18.362  0.00  0.00    +0.000 C 
ATOM      4  C   UNL     1      -9.211  -0.491  17.136  0.00  0.00    +0.000 C 
ATOM      5  C   UNL     1     -10.528  -1.102  16.626  0.00  0.00    +0.000 C 
ATOM      6  C   UNL     1     -11.522   0.022  16.933  0.00  0.00    +0.000 C 
ATOM      7  C   UNL     1     -10.961  -2.221  17.599  0.00  0.00    +0.000 C 
ATOM      8  H   UNL     1     -12.536  -1.529  18.988  0.00  0.00    +0.000 HD
ATOM      9  H   UNL     1     -11.711   0.808  19.008  0.00  0.00    +0.000 HD
ATOM     10  H   UNL     1      -9.116   0.015  19.266  0.00  0.00    +0.000 HD
ATOM     11  H   UNL     1      -9.444   1.386  18.209  0.00  0.00    +0.000 HD
ATOM     12  H   UNL     1      -8.465  -1.250  17.393  0.00  0.00    +0.000 HD
ATOM     13  H   UNL     1      -8.773   0.179  16.389  0.00  0.00    +0.000 HD
ATOM     14  H   UNL     1     -10.505  -1.410  15.578  0.00  0.00    +0.000 HD
ATOM     15  H   UNL     1     -12.565  -0.252  16.739  0.00  0.00    +0.000 HD
ATOM     16  H   UNL     1     -11.287   0.955  16.410  0.00  0.00    +0.000 HD
ATOM     17  H   UNL     1     -10.126  -2.887  17.847  0.00  0.00    +0.000 HD
ENDROOT
BRANCH   1  20
ATOM     18  O   UNL     1     -12.495  -0.898  21.419  0.00  0.00    +0.000 OA
ATOM     19  C   UNL     1     -11.400  -1.426  21.320  0.00  0.00    +0.000 C 
ATOM     20  N   UNL     1     -10.812  -1.730  20.112  0.00  0.00    +0.000 N 
ATOM     21  H   UNL     1      -9.899  -2.149  20.103  0.00  0.00    +0.000 HD
BRANCH  19  22
ATOM     22  C   UNL     1     -10.660  -1.795  22.552  0.00  0.00    +0.000 A 
ATOM     23  C   UNL     1     -11.383  -2.313  23.637  0.00  0.00    +0.000 A 
ATOM     24  C   UNL     1     -10.735  -2.602  24.841  0.00  0.00    +0.000 A 
ATOM     25  C   UNL     1      -9.370  -2.358  24.954  0.00  0.00    +0.000 A 
ATOM     26  C   UNL     1      -8.646  -1.839  23.884  0.00  0.00    +0.000 A 
ATOM     27  C   UNL     1      -9.288  -1.561  22.676  0.00  0.00    +0.000 A 
ATOM     28  H   UNL     1     -12.456  -2.475  23.550  0.00  0.00    +0.000 HD
ATOM     29  H   UNL     1     -11.309  -2.994  25.675  0.00  0.00    +0.000 HD
ATOM     30  H   UNL     1      -7.586  -1.628  24.002  0.00  0.00    +0.000 HD
ATOM     31  H   UNL     1      -8.719  -1.116  21.868  0.00  0.00    +0.000 HD
BRANCH  25  32
ATOM     32  O   UNL     1      -8.693  -2.603  26.111  0.00  0.00    +0.000 OA
ATOM     33  H   UNL     1      -8.720  -3.557  26.298  0.00  0.00    +0.000 HD
ENDBRANCH  25  32
ENDBRANCH  19  22
ENDBRANCH   1  20
BRANCH   7  34
ATOM     34  O   UNL     1     -12.052  -2.979  17.042  0.00  0.00    +0.000 OA
BRANCH  34  35
ATOM     35  C   UNL     1     -11.698  -3.833  16.039  0.00  0.00    +0.000 C 
ATOM     36  O   UNL     1     -11.867  -3.633  14.843  0.00  0.00    +0.000 OA
BRANCH  35  37
ATOM     37  C   UNL     1     -10.990  -5.021  16.575  0.00  0.00    +0.000 A 
ATOM     38  C   UNL     1      -9.610  -5.169  16.380  0.00  0.00    +0.000 A 
ATOM     39  C   UNL     1      -8.934  -6.244  16.973  0.00  0.00    +0.000 A 
ATOM     40  C   UNL     1      -9.614  -7.160  17.806  0.00  0.00    +0.000 A 
ATOM     41  C   UNL     1     -10.993  -6.970  17.998  0.00  0.00    +0.000 A 
ATOM     42  C   UNL     1     -11.675  -5.945  17.358  0.00  0.00    +0.000 A 
ATOM     43  H   UNL     1      -9.074  -4.446  15.770  0.00  0.00    +0.000 HD
ATOM     44  H   UNL     1     -12.740  -5.842  17.539  0.00  0.00    +0.000 HD
BRANCH  39  45
ATOM     45  O   UNL     1      -7.603  -6.406  16.692  0.00  0.00    +0.000 OA
ATOM     46  H   UNL     1      -7.480  -7.201  16.148  0.00  0.00    +0.000 HD
ENDBRANCH  39  45
BRANCH  40  47
ATOM     47  C   UNL     1      -8.886  -8.297  18.461  0.00  0.00    +0.000 C 
ATOM     48  O   UNL     1      -8.329  -8.132  19.543  0.00  0.00    +0.000 OA
BRANCH  47  49
ATOM     49  C   UNL     1      -8.887  -9.700  17.934  0.00  0.00    +0.000 A 
ATOM     50  C   UNL     1      -8.582 -10.760  18.836  0.00  0.00    +0.000 A 
ATOM     51  C   UNL     1      -8.544 -12.085  18.397  0.00  0.00    +0.000 A 
ATOM     52  C   UNL     1      -8.869 -12.388  17.086  0.00  0.00    +0.000 A 
ATOM     53  C   UNL     1      -9.245 -11.381  16.201  0.00  0.00    +0.000 A 
ATOM     54  C   UNL     1      -9.234 -10.041  16.589  0.00  0.00    +0.000 A 
ATOM     55  H   UNL     1      -8.231 -12.879  19.073  0.00  0.00    +0.000 HD
ATOM     56  H   UNL     1      -8.805 -13.412  16.726  0.00  0.00    +0.000 HD
ATOM     57  H   UNL     1      -9.490 -11.662  15.188  0.00  0.00    +0.000 HD
BRANCH  50  58
ATOM     58  O   UNL     1      -8.314 -10.621  20.175  0.00  0.00    +0.000 OA
ATOM     59  H   UNL     1      -7.896 -11.439  20.521  0.00  0.00    +0.000 HD
ENDBRANCH  50  58
BRANCH  54  60
ATOM     60  C   UNL     1      -9.604  -9.035  15.521  0.00  0.00    +0.000 C 
ATOM     61  O   UNL     1      -8.795  -8.413  14.915  0.00  0.00    +0.000 OA
BRANCH  60  62
ATOM     62  O   UNL     1     -10.934  -8.770  15.382  0.00  0.00    +0.000 OA
ATOM     63  H   UNL     1     -11.502  -8.801  16.161  0.00  0.00    +0.000 HD
ENDBRANCH  60  62
ENDBRANCH  54  60
ENDBRANCH  47  49
ENDBRANCH  40  47
BRANCH  41  64
ATOM     64  O   UNL     1     -11.817  -7.759  18.757  0.00  0.00    +0.000 OA
ATOM     65  H   UNL     1     -12.657  -7.318  18.915  0.00  0.00    +0.000 HD
ENDBRANCH  41  64
ENDBRANCH  35  37
ENDBRANCH  34  35
ENDBRANCH   7  34
TORSDOF 13
ENDMDL
