REMARK  Name = 
REMARK  7 active torsions:
REMARK  status: ('A' for Active; 'I' for Inactive)
REMARK    1  A    between atoms: C_2  and  C_3
REMARK    2  A    between atoms: C_6  and  C_7
REMARK    3  A    between atoms: C_7  and  N_8
REMARK    4  A    between atoms: C_11  and  O_12
REMARK    5  A    between atoms: C_13  and  O_14
REMARK    6  A    between atoms: C_21  and  O_22
REMARK    7  A    between atoms: C_23  and  O_24
REMARK                            x       y       z     vdW  Elec       q    Type
REMARK                         _______ _______ _______ _____ _____    ______ ____
ROOT
ATOM      1  N   UNL     1      -0.744  -0.210   0.259  0.00  0.00    +0.000 N 
ATOM      2  C   UNL     1      -0.043  -0.793   1.306  0.00  0.00    +0.000 A 
ATOM      3  C   UNL     1       0.367  -0.271   2.553  0.00  0.00    +0.000 A 
ATOM      4  C   UNL     1       1.070  -1.106   3.418  0.00  0.00    +0.000 A 
ATOM      5  C   UNL     1       1.340  -2.419   3.075  0.00  0.00    +0.000 A 
ATOM      6  C   UNL     1       0.923  -2.943   1.857  0.00  0.00    +0.000 A 
ATOM      7  C   UNL     1       0.219  -2.122   0.942  0.00  0.00    +0.000 A 
ATOM      8  C   UNL     1      -0.359  -2.344  -0.358  0.00  0.00    +0.000 A 
ATOM      9  C   UNL     1      -0.478  -3.460  -1.234  0.00  0.00    +0.000 A 
ATOM     10 BR   UNL     1       0.213  -5.174  -0.795  0.00  0.00    +0.000 Br
ATOM     11  C   UNL     1      -1.143  -3.351  -2.463  0.00  0.00    +0.000 A 
ATOM     12  C   UNL     1      -1.683  -2.137  -2.832  0.00  0.00    +0.000 A 
ATOM     13  C   UNL     1      -1.590  -1.022  -2.001  0.00  0.00    +0.000 A 
ATOM     14  C   UNL     1      -0.936  -1.126  -0.763  0.00  0.00    +0.000 A 
ATOM     15  H   UNL     1       0.137   0.745   2.839  0.00  0.00    +0.000 HD
ATOM     16  H   UNL     1       1.147  -3.980   1.638  0.00  0.00    +0.000 HD
ATOM     17  H   UNL     1      -1.238  -4.219  -3.107  0.00  0.00    +0.000 HD
ENDROOT
BRANCH   1  18
ATOM     18  C   UNL     1      -1.339   1.130   0.300  0.00  0.00    +0.000 C 
ATOM     19  H   UNL     1      -2.270   1.127  -0.274  0.00  0.00    +0.000 HD
ATOM     20  H   UNL     1      -1.649   1.320   1.335  0.00  0.00    +0.000 HD
BRANCH  18  24
ATOM     21  C   UNL     1       1.415   4.186  -1.051  0.00  0.00    +0.000 A 
ATOM     22  C   UNL     1       0.552   3.574  -1.960  0.00  0.00    +0.000 A 
ATOM     23  C   UNL     1      -0.350   2.602  -1.521  0.00  0.00    +0.000 A 
ATOM     24  C   UNL     1      -0.396   2.215  -0.174  0.00  0.00    +0.000 A 
ATOM     25  C   UNL     1       0.455   2.863   0.730  0.00  0.00    +0.000 A 
ATOM     26  C   UNL     1       1.359   3.836   0.298  0.00  0.00    +0.000 A 
ATOM     27  H   UNL     1       0.574   3.844  -3.014  0.00  0.00    +0.000 HD
ATOM     28  H   UNL     1      -1.018   2.156  -2.252  0.00  0.00    +0.000 HD
ATOM     29  H   UNL     1       0.427   2.624   1.788  0.00  0.00    +0.000 HD
ATOM     30  H   UNL     1       2.015   4.315   1.021  0.00  0.00    +0.000 HD
BRANCH  21  32
ATOM     31  N   UNL     1       3.110   5.979  -1.857  0.00  0.00    +0.000 NA
ATOM     32  C   UNL     1       2.353   5.173  -1.496  0.00  0.00    +0.000 C 
ENDBRANCH  21  32
ENDBRANCH  18  24
ENDBRANCH   1  18
BRANCH   4  33
ATOM     33  O   UNL     1       1.516  -0.668   4.636  0.00  0.00    +0.000 OA
ATOM     34  H   UNL     1       1.282   0.271   4.729  0.00  0.00    +0.000 HD
ENDBRANCH   4  33
BRANCH   5  35
ATOM     35  O   UNL     1       2.020  -3.224   3.946  0.00  0.00    +0.000 OA
ATOM     36  H   UNL     1       2.208  -2.650   4.715  0.00  0.00    +0.000 HD
ENDBRANCH   5  35
BRANCH  12  37
ATOM     37  O   UNL     1      -2.352  -1.969  -4.013  0.00  0.00    +0.000 OA
ATOM     38  H   UNL     1      -2.383  -2.828  -4.474  0.00  0.00    +0.000 HD
ENDBRANCH  12  37
BRANCH  13  39
ATOM     39  O   UNL     1      -2.183   0.141  -2.432  0.00  0.00    +0.000 OA
ATOM     40  H   UNL     1      -2.545  -0.086  -3.314  0.00  0.00    +0.000 HD
ENDBRANCH  13  39
TORSDOF 7
