REMARK  Name = 
REMARK  13 active torsions:
REMARK  status: ('A' for Active; 'I' for Inactive)
REMARK    1  A    between atoms: C_2  and  C_36
REMARK    2  A    between atoms: N_3  and  C_4
REMARK    3  A    between atoms: C_12  and  O_13
REMARK    4  A    between atoms: O_13  and  C_14
REMARK    5  A    between atoms: C_14  and  C_16
REMARK    6  A    between atoms: C_18  and  O_19
REMARK    7  A    between atoms: C_20  and  C_21
REMARK    8  A    between atoms: C_21  and  C_23
REMARK    9  A    between atoms: C_24  and  O_25
REMARK   10  A    between atoms: C_29  and  C_30
REMARK   11  A    between atoms: C_30  and  O_32
REMARK   12  A    between atoms: C_33  and  O_34
REMARK   13  A    between atoms: C_39  and  O_40
REMARK                            x       y       z     vdW  Elec       q    Type
REMARK                         _______ _______ _______ _____ _____    ______ ____
ROOT
ATOM      1  C   UNL     1       2.539   0.026   2.991  0.00  0.00    +0.000 C 
ATOM      2  C   UNL     1       2.067  -1.340   3.419  0.00  0.00    +0.000 A 
ATOM      3  C   UNL     1       2.787  -2.524   3.496  0.00  0.00    +0.000 A 
ATOM      4  C   UNL     1       2.161  -3.653   4.030  0.00  0.00    +0.000 A 
ATOM      5  C   UNL     1       0.839  -3.585   4.495  0.00  0.00    +0.000 A 
ATOM      6  C   UNL     1       0.126  -2.386   4.434  0.00  0.00    +0.000 A 
ATOM      7  C   UNL     1       0.750  -1.274   3.890  0.00  0.00    +0.000 A 
ATOM      8  C   UNL     1       0.210   0.125   3.791  0.00  0.00    +0.000 C 
ATOM      9  C   UNL     1       1.195   0.787   2.799  0.00  0.00    +0.000 C 
ATOM     10  H   UNL     1       3.079   0.462   3.842  0.00  0.00    +0.000 HD
ATOM     11  H   UNL     1       3.823  -2.573   3.173  0.00  0.00    +0.000 HD
ATOM     12  H   UNL     1       2.709  -4.590   4.108  0.00  0.00    +0.000 HD
ATOM     13  H   UNL     1       0.373  -4.469   4.924  0.00  0.00    +0.000 HD
ATOM     14  H   UNL     1      -0.887  -2.328   4.819  0.00  0.00    +0.000 HD
ATOM     15  H   UNL     1       0.260   0.599   4.776  0.00  0.00    +0.000 HD
ATOM     16  H   UNL     1      -0.819   0.123   3.417  0.00  0.00    +0.000 HD
ATOM     17  H   UNL     1       1.303   1.855   3.019  0.00  0.00    +0.000 HD
ENDROOT
BRANCH   1  20
ATOM     18  O   UNL     1       4.660   1.782   2.513  0.00  0.00    +0.000 OA
ATOM     19  C   UNL     1       4.382   0.945   1.663  0.00  0.00    +0.000 C 
ATOM     20  N   UNL     1       3.388   0.006   1.823  0.00  0.00    +0.000 N 
ATOM     21  H   UNL     1       3.204  -0.695   1.120  0.00  0.00    +0.000 HD
BRANCH  19  22
ATOM     22  C   UNL     1       5.171   0.878   0.401  0.00  0.00    +0.000 A 
ATOM     23  C   UNL     1       6.502   1.323   0.423  0.00  0.00    +0.000 A 
ATOM     24  C   UNL     1       7.276   1.299  -0.741  0.00  0.00    +0.000 A 
ATOM     25  C   UNL     1       6.710   0.836  -1.924  0.00  0.00    +0.000 A 
ATOM     26  C   UNL     1       5.390   0.397  -1.961  0.00  0.00    +0.000 A 
ATOM     27  C   UNL     1       4.614   0.419  -0.799  0.00  0.00    +0.000 A 
ATOM     28  H   UNL     1       6.937   1.694   1.350  0.00  0.00    +0.000 HD
ATOM     29  H   UNL     1       8.304   1.647  -0.704  0.00  0.00    +0.000 HD
ATOM     30  H   UNL     1       4.961   0.054  -2.899  0.00  0.00    +0.000 HD
ATOM     31  H   UNL     1       3.577   0.109  -0.858  0.00  0.00    +0.000 HD
BRANCH  25  32
ATOM     32  O   UNL     1       7.418   0.805  -3.088  0.00  0.00    +0.000 OA
ATOM     33  H   UNL     1       8.301   1.178  -2.928  0.00  0.00    +0.000 HD
ENDBRANCH  25  32
ENDBRANCH  19  22
ENDBRANCH   1  20
BRANCH   9  34
ATOM     34  O   UNL     1       0.628   0.595   1.475  0.00  0.00    +0.000 OA
BRANCH  34  35
ATOM     35  C   UNL     1       0.504   1.689   0.681  0.00  0.00    +0.000 C 
ATOM     36  O   UNL     1       1.068   2.765   0.838  0.00  0.00    +0.000 OA
BRANCH  35  37
ATOM     37  C   UNL     1      -0.509   1.451  -0.379  0.00  0.00    +0.000 A 
ATOM     38  C   UNL     1      -0.900   2.515  -1.206  0.00  0.00    +0.000 A 
ATOM     39  C   UNL     1      -1.955   2.349  -2.112  0.00  0.00    +0.000 A 
ATOM     40  C   UNL     1      -2.613   1.109  -2.256  0.00  0.00    +0.000 A 
ATOM     41  C   UNL     1      -2.153   0.029  -1.474  0.00  0.00    +0.000 A 
ATOM     42  C   UNL     1      -1.148   0.210  -0.527  0.00  0.00    +0.000 A 
ATOM     43  H   UNL     1      -0.395   3.473  -1.111  0.00  0.00    +0.000 HD
ATOM     44  H   UNL     1      -0.882  -0.627   0.112  0.00  0.00    +0.000 HD
BRANCH  39  45
ATOM     45  O   UNL     1      -2.376   3.445  -2.824  0.00  0.00    +0.000 OA
ATOM     46  H   UNL     1      -1.896   4.237  -2.535  0.00  0.00    +0.000 HD
ENDBRANCH  39  45
BRANCH  40  47
ATOM     47  C   UNL     1      -3.761   0.967  -3.189  0.00  0.00    +0.000 C 
ATOM     48  O   UNL     1      -3.690   1.503  -4.302  0.00  0.00    +0.000 OA
BRANCH  47  49
ATOM     49  C   UNL     1      -4.938   0.064  -2.964  0.00  0.00    +0.000 A 
ATOM     50  C   UNL     1      -5.462  -0.574  -4.113  0.00  0.00    +0.000 A 
ATOM     51  C   UNL     1      -6.516  -1.484  -4.035  0.00  0.00    +0.000 A 
ATOM     52  C   UNL     1      -7.068  -1.795  -2.802  0.00  0.00    +0.000 A 
ATOM     53  C   UNL     1      -6.571  -1.190  -1.649  0.00  0.00    +0.000 A 
ATOM     54  C   UNL     1      -5.510  -0.259  -1.711  0.00  0.00    +0.000 A 
ATOM     55  H   UNL     1      -6.904  -1.943  -4.942  0.00  0.00    +0.000 HD
ATOM     56  H   UNL     1      -7.897  -2.498  -2.741  0.00  0.00    +0.000 HD
ATOM     57  H   UNL     1      -7.052  -1.436  -0.705  0.00  0.00    +0.000 HD
BRANCH  50  58
ATOM     58  O   UNL     1      -4.960  -0.394  -5.379  0.00  0.00    +0.000 OA
ATOM     59  H   UNL     1      -4.378   0.403  -5.371  0.00  0.00    +0.000 HD
ENDBRANCH  50  58
BRANCH  54  60
ATOM     60  C   UNL     1      -5.081   0.380  -0.439  0.00  0.00    +0.000 C 
ATOM     61  O   UNL     1      -4.716   1.539  -0.371  0.00  0.00    +0.000 OA
BRANCH  60  62
ATOM     62  O   UNL     1      -5.113  -0.430   0.644  0.00  0.00    +0.000 OA
ATOM     63  H   UNL     1      -5.346  -1.366   0.507  0.00  0.00    +0.000 HD
ENDBRANCH  60  62
ENDBRANCH  54  60
ENDBRANCH  47  49
ENDBRANCH  40  47
BRANCH  41  64
ATOM     64  O   UNL     1      -2.654  -1.244  -1.535  0.00  0.00    +0.000 OA
ATOM     65  H   UNL     1      -3.066  -1.410  -2.398  0.00  0.00    +0.000 HD
ENDBRANCH  41  64
ENDBRANCH  35  37
ENDBRANCH  34  35
ENDBRANCH   9  34
TORSDOF 13
