
 OpenBabel01112422303D

 48 51  0  0  1  0  0  0  0  0999 V2000
    4.8111    2.4341   -1.7712 C   0  0  0  0  0  0  0  0  0  0  0  0
    4.3431    1.3108   -0.9580 N   0  0  0  0  0  0  0  0  0  0  0  0
    4.9988    0.0501   -1.3067 C   0  0  0  0  0  0  0  0  0  0  0  0
    4.5459   -0.5551   -2.6436 C   0  0  0  0  0  0  0  0  0  0  0  0
    3.0092   -0.6490   -2.7668 C   0  0  2  0  0  0  0  0  0  0  0  0
    2.5118   -1.1793   -4.1227 C   0  0  0  0  0  0  0  0  0  0  0  0
    2.7656   -0.4993   -5.3227 C   0  0  0  0  0  0  0  0  0  0  0  0
    3.5234    0.6388   -5.3408 O   0  0  0  0  0  0  0  0  0  0  0  0
    2.2071   -0.8797   -6.5402 C   0  0  0  0  0  0  0  0  0  0  0  0
    1.3831   -1.9971   -6.5995 C   0  0  0  0  0  0  0  0  0  0  0  0
    0.8353   -2.3422   -7.8005 O   0  0  0  0  0  0  0  0  0  0  0  0
    1.1252   -2.7376   -5.4413 C   0  0  0  0  0  0  0  0  0  0  0  0
    0.2395   -3.9313   -5.4566 C   0  0  0  0  0  0  0  0  0  0  0  0
   -0.2787   -4.4037   -6.4609 O   0  0  0  0  0  0  0  0  0  0  0  0
   -0.0047   -4.5881   -4.1708 C   0  0  0  0  0  0  0  0  0  0  0  0
    0.6164   -4.1234   -3.0836 C   0  0  0  0  0  0  0  0  0  0  0  0
    0.4355   -4.7729   -1.7759 C   0  0  0  0  0  0  0  0  0  0  0  0
    1.2241   -5.8940   -1.4688 C   0  0  0  0  0  0  0  0  0  0  0  0
    1.1473   -6.4921   -0.2094 C   0  0  0  0  0  0  0  0  0  0  0  0
    0.2813   -5.9804    0.7543 C   0  0  0  0  0  0  0  0  0  0  0  0
   -0.5302   -4.8877    0.4513 C   0  0  0  0  0  0  0  0  0  0  0  0
   -0.4606   -4.2881   -0.8104 C   0  0  0  0  0  0  0  0  0  0  0  0
   -1.5096   -2.9509   -1.1307 Cl  0  0  0  0  0  0  0  0  0  0  0  0
    1.4630   -3.0386   -3.0524 O   0  0  0  0  0  0  0  0  0  0  0  0
    1.6912   -2.3313   -4.2149 C   0  0  0  0  0  0  0  0  0  0  0  0
    2.2899    0.6580   -2.3154 C   0  0  2  0  0  0  0  0  0  0  0  0
    2.3270    1.7537   -3.2334 O   0  0  0  0  0  0  0  0  0  0  0  0
    2.8750    1.1645   -0.9810 C   0  0  0  0  0  0  0  0  0  0  0  0
    5.8462    2.6781   -1.5065 H   0  0  0  0  0  0  0  0  0  0  0  0
    4.2227    3.3384   -1.5776 H   0  0  0  0  0  0  0  0  0  0  0  0
    4.7858    2.2385   -2.8477 H   0  0  0  0  0  0  0  0  0  0  0  0
    4.8063   -0.6718   -0.5027 H   0  0  0  0  0  0  0  0  0  0  0  0
    6.0882    0.1863   -1.3174 H   0  0  0  0  0  0  0  0  0  0  0  0
    4.9757   -1.5618   -2.7339 H   0  0  0  0  0  0  0  0  0  0  0  0
    4.9913    0.0303   -3.4487 H   0  0  0  0  0  0  0  0  0  0  0  0
    2.7324   -1.3904   -2.0049 H   0  0  0  0  0  0  0  0  0  0  0  0
    4.4554    0.3514   -5.3294 H   0  0  0  0  0  0  0  0  0  0  0  0
    2.4055   -0.2831   -7.4248 H   0  0  0  0  0  0  0  0  0  0  0  0
    1.0283   -1.6693   -8.4720 H   0  0  0  0  0  0  0  0  0  0  0  0
   -0.6790   -5.4358   -4.1681 H   0  0  0  0  0  0  0  0  0  0  0  0
    1.9146   -6.3007   -2.2060 H   0  0  0  0  0  0  0  0  0  0  0  0
    1.7727   -7.3527    0.0232 H   0  0  0  0  0  0  0  0  0  0  0  0
    0.2359   -6.4333    1.7419 H   0  0  0  0  0  0  0  0  0  0  0  0
   -1.2134   -4.5011    1.2047 H   0  0  0  0  0  0  0  0  0  0  0  0
    1.2265    0.4339   -2.1672 H   0  0  0  0  0  0  0  0  0  0  0  0
    2.7624    1.4714   -4.0581 H   0  0  0  0  0  0  0  0  0  0  0  0
    2.5953    0.4649   -0.1832 H   0  0  0  0  0  0  0  0  0  0  0  0
    2.4153    2.1247   -0.7141 H   0  0  0  0  0  0  0  0  0  0  0  0
  1  2  1  0  0  0  0
  1 29  1  0  0  0  0
  1 30  1  0  0  0  0
  1 31  1  0  0  0  0
  2  3  1  0  0  0  0
  2 28  1  0  0  0  0
  3  4  1  0  0  0  0
  3 32  1  0  0  0  0
  3 33  1  0  0  0  0
  4  5  1  0  0  0  0
  4 34  1  0  0  0  0
  4 35  1  0  0  0  0
  5 26  1  0  0  0  0
  5  6  1  0  0  0  0
  5 36  1  1  0  0  0
  6  7  1  0  0  0  0
  6 25  2  0  0  0  0
  7  8  1  0  0  0  0
  7  9  2  0  0  0  0
  8 37  1  0  0  0  0
  9 10  1  0  0  0  0
  9 38  1  0  0  0  0
 10 11  1  0  0  0  0
 10 12  2  0  0  0  0
 11 39  1  0  0  0  0
 12 13  1  0  0  0  0
 12 25  1  0  0  0  0
 13 14  2  0  0  0  0
 13 15  1  0  0  0  0
 15 16  2  0  0  0  0
 15 40  1  0  0  0  0
 16 17  1  0  0  0  0
 16 24  1  0  0  0  0
 17 18  1  0  0  0  0
 17 22  2  0  0  0  0
 18 19  2  0  0  0  0
 18 41  1  0  0  0  0
 19 20  1  0  0  0  0
 19 42  1  0  0  0  0
 20 21  2  0  0  0  0
 20 43  1  0  0  0  0
 21 22  1  0  0  0  0
 21 44  1  0  0  0  0
 22 23  1  0  0  0  0
 24 25  1  0  0  0  0
 26 28  1  0  0  0  0
 26 27  1  0  0  0  0
 26 45  1  1  0  0  0
 27 46  1  0  0  0  0
 28 47  1  0  0  0  0
 28 48  1  0  0  0  0
M  END
$$$$
