MODEL 1
REMARK VINA RESULT:   -11.259      0.000      0.000
REMARK INTER + INTRA:         -17.065
REMARK INTER:                 -16.196
REMARK INTRA:                  -0.869
REMARK UNBOUND:                -0.869
REMARK  Name = 
REMARK  8 active torsions:
REMARK  status: ('A' for Active; 'I' for Inactive)
REMARK    1  A    between atoms: C_2  and  C_3
REMARK    2  A    between atoms: C_9  and  C_10
REMARK    3  A    between atoms: C_14  and  O_15
REMARK    4  A    between atoms: O_15  and  C_16
REMARK    5  A    between atoms: C_16  and  C_17
REMARK    6  A    between atoms: C_17  and  N_18
REMARK    7  A    between atoms: C_17  and  C_19
REMARK    8  A    between atoms: C_19  and  C_20
REMARK                            x       y       z     vdW  Elec       q    Type
REMARK                         _______ _______ _______ _____ _____    ______ ____
ROOT
ATOM      1  C   UNL     1      -8.806  -6.233  18.374  0.00  0.00    +0.000 A 
ATOM      2  C   UNL     1      -9.955  -5.470  18.181  0.00  0.00    +0.000 A 
ATOM      3  N   UNL     1     -11.077  -5.914  17.560  0.00  0.00    +0.000 NA
ATOM      4  C   UNL     1     -11.050  -7.185  17.088  0.00  0.00    +0.000 A 
ATOM      5  C   UNL     1      -9.971  -8.039  17.239  0.00  0.00    +0.000 A 
ATOM      6  C   UNL     1      -8.858  -7.554  17.910  0.00  0.00    +0.000 A 
ATOM      7  H   UNL     1     -10.008  -4.443  18.538  0.00  0.00    +0.000 HD
ATOM      8  H   UNL     1     -11.962  -7.483  16.585  0.00  0.00    +0.000 HD
ATOM      9  H   UNL     1      -8.008  -8.222  18.029  0.00  0.00    +0.000 HD
ENDROOT
BRANCH   1  16
ATOM     10  C   UNL     1      -6.134  -3.551  21.754  0.00  0.00    +0.000 A 
ATOM     11  N   UNL     1      -4.806  -3.391  21.810  0.00  0.00    +0.000 NA
ATOM     12  N   UNL     1      -4.334  -4.140  20.802  0.00  0.00    +0.000 N 
ATOM     13  C   UNL     1      -5.301  -4.778  20.083  0.00  0.00    +0.000 A 
ATOM     14  C   UNL     1      -5.248  -5.644  19.004  0.00  0.00    +0.000 A 
ATOM     15  N   UNL     1      -6.413  -6.088  18.473  0.00  0.00    +0.000 NA
ATOM     16  C   UNL     1      -7.601  -5.694  19.004  0.00  0.00    +0.000 A 
ATOM     17  C   UNL     1      -7.691  -4.849  20.106  0.00  0.00    +0.000 A 
ATOM     18  C   UNL     1      -6.497  -4.386  20.659  0.00  0.00    +0.000 A 
ATOM     19  H   UNL     1      -3.333  -4.170  20.658  0.00  0.00    +0.000 HD
ATOM     20  H   UNL     1      -4.330  -5.988  18.543  0.00  0.00    +0.000 HD
ATOM     21  H   UNL     1      -8.644  -4.536  20.513  0.00  0.00    +0.000 HD
BRANCH  10  23
ATOM     22  C   UNL     1      -7.320  -1.671  22.800  0.00  0.00    +0.000 C 
ATOM     23  C   UNL     1      -7.070  -2.978  22.679  0.00  0.00    +0.000 C 
ATOM     24  H   UNL     1      -8.021  -1.301  23.541  0.00  0.00    +0.000 HD
ATOM     25  H   UNL     1      -6.810  -0.941  22.176  0.00  0.00    +0.000 HD
ATOM     26  H   UNL     1      -7.602  -3.660  23.341  0.00  0.00    +0.000 HD
ENDBRANCH  10  23
ENDBRANCH   1  16
BRANCH   5  27
ATOM     27  O   UNL     1      -9.875  -9.333  16.832  0.00  0.00    +0.000 OA
BRANCH  27  28
ATOM     28  C   UNL     1     -10.602  -9.676  15.649  0.00  0.00    +0.000 C 
ATOM     29  H   UNL     1     -11.087  -8.780  15.243  0.00  0.00    +0.000 HD
ATOM     30  H   UNL     1     -11.359 -10.437  15.869  0.00  0.00    +0.000 HD
BRANCH  28  31
ATOM     31  C   UNL     1      -9.591 -10.233  14.622  0.00  0.00    +0.000 C 
ATOM     32  H   UNL     1     -10.091 -11.018  14.040  0.00  0.00    +0.000 HD
BRANCH  31  33
ATOM     33  N   UNL     1      -9.203  -9.183  13.659  0.00  0.00    +0.000 NA
ATOM     34  H   UNL     1      -8.237  -9.316  13.365  0.00  0.00    +0.000 HD
ATOM     35  H   UNL     1      -9.234  -8.282  14.138  0.00  0.00    +0.000 HD
ENDBRANCH  31  33
BRANCH  31  36
ATOM     36  C   UNL     1      -8.368 -10.826  15.354  0.00  0.00    +0.000 C 
ATOM     37  H   UNL     1      -8.126 -10.202  16.225  0.00  0.00    +0.000 HD
ATOM     38  H   UNL     1      -7.491 -10.777  14.696  0.00  0.00    +0.000 HD
BRANCH  36  39
ATOM     39  C   UNL     1      -8.558 -12.244  15.846  0.00  0.00    +0.000 A 
ATOM     40  C   UNL     1      -8.600 -12.520  17.220  0.00  0.00    +0.000 A 
ATOM     41  C   UNL     1      -8.759 -13.830  17.674  0.00  0.00    +0.000 A 
ATOM     42  C   UNL     1      -8.884 -14.876  16.761  0.00  0.00    +0.000 A 
ATOM     43  C   UNL     1      -8.858 -14.611  15.394  0.00  0.00    +0.000 A 
ATOM     44  C   UNL     1      -8.700 -13.302  14.938  0.00  0.00    +0.000 A 
ATOM     45  H   UNL     1      -8.499 -11.719  17.948  0.00  0.00    +0.000 HD
ATOM     46  H   UNL     1      -8.780 -14.036  18.740  0.00  0.00    +0.000 HD
ATOM     47  H   UNL     1      -9.000 -15.896  17.115  0.00  0.00    +0.000 HD
ATOM     48  H   UNL     1      -8.956 -15.424  14.679  0.00  0.00    +0.000 HD
ATOM     49  H   UNL     1      -8.676 -13.115  13.867  0.00  0.00    +0.000 HD
ENDBRANCH  36  39
ENDBRANCH  31  36
ENDBRANCH  28  31
ENDBRANCH  27  28
ENDBRANCH   5  27
TORSDOF 8
ENDMDL
MODEL 2
REMARK VINA RESULT:   -10.823      1.888      9.354
REMARK INTER + INTRA:         -16.438
REMARK INTER:                 -15.795
REMARK INTRA:                  -0.643
REMARK UNBOUND:                -0.869
REMARK  Name = 
REMARK  8 active torsions:
REMARK  status: ('A' for Active; 'I' for Inactive)
REMARK    1  A    between atoms: C_2  and  C_3
REMARK    2  A    between atoms: C_9  and  C_10
REMARK    3  A    between atoms: C_14  and  O_15
REMARK    4  A    between atoms: O_15  and  C_16
REMARK    5  A    between atoms: C_16  and  C_17
REMARK    6  A    between atoms: C_17  and  N_18
REMARK    7  A    between atoms: C_17  and  C_19
REMARK    8  A    between atoms: C_19  and  C_20
REMARK                            x       y       z     vdW  Elec       q    Type
REMARK                         _______ _______ _______ _____ _____    ______ ____
ROOT
ATOM      1  C   UNL     1      -9.402  -7.490  17.182  0.00  0.00    +0.000 A 
ATOM      2  C   UNL     1     -10.292  -6.540  16.690  0.00  0.00    +0.000 A 
ATOM      3  N   UNL     1     -10.523  -5.332  17.265  0.00  0.00    +0.000 NA
ATOM      4  C   UNL     1      -9.841  -5.060  18.406  0.00  0.00    +0.000 A 
ATOM      5  C   UNL     1      -8.918  -5.921  18.974  0.00  0.00    +0.000 A 
ATOM      6  C   UNL     1      -8.689  -7.130  18.334  0.00  0.00    +0.000 A 
ATOM      7  H   UNL     1     -10.864  -6.728  15.783  0.00  0.00    +0.000 HD
ATOM      8  H   UNL     1     -10.076  -4.093  18.834  0.00  0.00    +0.000 HD
ATOM      9  H   UNL     1      -7.966  -7.810  18.779  0.00  0.00    +0.000 HD
ENDROOT
BRANCH   1  16
ATOM     10  C   UNL     1      -8.562 -12.493  17.035  0.00  0.00    +0.000 A 
ATOM     11  N   UNL     1      -8.468 -13.278  15.955  0.00  0.00    +0.000 NA
ATOM     12  N   UNL     1      -8.696 -12.456  14.920  0.00  0.00    +0.000 N 
ATOM     13  C   UNL     1      -8.929 -11.161  15.279  0.00  0.00    +0.000 A 
ATOM     14  C   UNL     1      -9.222 -10.024  14.546  0.00  0.00    +0.000 A 
ATOM     15  N   UNL     1      -9.361  -8.848  15.204  0.00  0.00    +0.000 NA
ATOM     16  C   UNL     1      -9.224  -8.800  16.556  0.00  0.00    +0.000 A 
ATOM     17  C   UNL     1      -8.958  -9.927  17.327  0.00  0.00    +0.000 A 
ATOM     18  C   UNL     1      -8.813 -11.143  16.659  0.00  0.00    +0.000 A 
ATOM     19  H   UNL     1      -8.677 -12.847  13.987  0.00  0.00    +0.000 HD
ATOM     20  H   UNL     1      -9.341 -10.007  13.469  0.00  0.00    +0.000 HD
ATOM     21  H   UNL     1      -8.843  -9.873  18.402  0.00  0.00    +0.000 HD
BRANCH  10  23
ATOM     22  C   UNL     1      -8.813 -14.154  18.828  0.00  0.00    +0.000 C 
ATOM     23  C   UNL     1      -8.446 -12.946  18.393  0.00  0.00    +0.000 C 
ATOM     24  H   UNL     1      -8.723 -14.424  19.875  0.00  0.00    +0.000 HD
ATOM     25  H   UNL     1      -9.233 -14.893  18.148  0.00  0.00    +0.000 HD
ATOM     26  H   UNL     1      -8.043 -12.244  19.122  0.00  0.00    +0.000 HD
ENDBRANCH  10  23
ENDBRANCH   1  16
BRANCH   5  27
ATOM     27  O   UNL     1      -8.167  -5.712  20.088  0.00  0.00    +0.000 OA
BRANCH  27  28
ATOM     28  C   UNL     1      -7.676  -4.381  20.277  0.00  0.00    +0.000 C 
ATOM     29  H   UNL     1      -8.426  -3.787  20.813  0.00  0.00    +0.000 HD
ATOM     30  H   UNL     1      -7.455  -3.912  19.312  0.00  0.00    +0.000 HD
BRANCH  28  31
ATOM     31  C   UNL     1      -6.382  -4.473  21.117  0.00  0.00    +0.000 C 
ATOM     32  H   UNL     1      -6.528  -5.242  21.886  0.00  0.00    +0.000 HD
BRANCH  31  33
ATOM     33  N   UNL     1      -5.255  -4.929  20.278  0.00  0.00    +0.000 NA
ATOM     34  H   UNL     1      -5.227  -5.947  20.252  0.00  0.00    +0.000 HD
ATOM     35  H   UNL     1      -4.385  -4.631  20.722  0.00  0.00    +0.000 HD
ENDBRANCH  31  33
BRANCH  31  36
ATOM     36  C   UNL     1      -6.091  -3.113  21.787  0.00  0.00    +0.000 C 
ATOM     37  H   UNL     1      -6.039  -2.331  21.019  0.00  0.00    +0.000 HD
ATOM     38  H   UNL     1      -5.098  -3.144  22.254  0.00  0.00    +0.000 HD
BRANCH  36  39
ATOM     39  C   UNL     1      -7.121  -2.684  22.808  0.00  0.00    +0.000 A 
ATOM     40  C   UNL     1      -7.511  -1.341  22.903  0.00  0.00    +0.000 A 
ATOM     41  C   UNL     1      -8.449  -0.942  23.857  0.00  0.00    +0.000 A 
ATOM     42  C   UNL     1      -9.013  -1.882  24.718  0.00  0.00    +0.000 A 
ATOM     43  C   UNL     1      -8.644  -3.221  24.623  0.00  0.00    +0.000 A 
ATOM     44  C   UNL     1      -7.706  -3.622  23.670  0.00  0.00    +0.000 A 
ATOM     45  H   UNL     1      -7.079  -0.592  22.244  0.00  0.00    +0.000 HD
ATOM     46  H   UNL     1      -8.738   0.103  23.930  0.00  0.00    +0.000 HD
ATOM     47  H   UNL     1      -9.737  -1.569  25.464  0.00  0.00    +0.000 HD
ATOM     48  H   UNL     1      -9.081  -3.956  25.293  0.00  0.00    +0.000 HD
ATOM     49  H   UNL     1      -7.426  -4.671  23.615  0.00  0.00    +0.000 HD
ENDBRANCH  36  39
ENDBRANCH  31  36
ENDBRANCH  28  31
ENDBRANCH  27  28
ENDBRANCH   5  27
TORSDOF 8
ENDMDL
MODEL 3
REMARK VINA RESULT:   -10.692      2.634      9.382
REMARK INTER + INTRA:         -16.249
REMARK INTER:                 -15.413
REMARK INTRA:                  -0.836
REMARK UNBOUND:                -0.869
REMARK  Name = 
REMARK  8 active torsions:
REMARK  status: ('A' for Active; 'I' for Inactive)
REMARK    1  A    between atoms: C_2  and  C_3
REMARK    2  A    between atoms: C_9  and  C_10
REMARK    3  A    between atoms: C_14  and  O_15
REMARK    4  A    between atoms: O_15  and  C_16
REMARK    5  A    between atoms: C_16  and  C_17
REMARK    6  A    between atoms: C_17  and  N_18
REMARK    7  A    between atoms: C_17  and  C_19
REMARK    8  A    between atoms: C_19  and  C_20
REMARK                            x       y       z     vdW  Elec       q    Type
REMARK                         _______ _______ _______ _____ _____    ______ ____
ROOT
ATOM      1  C   UNL     1      -9.293  -6.813  18.704  0.00  0.00    +0.000 A 
ATOM      2  C   UNL     1     -10.321  -6.259  17.946  0.00  0.00    +0.000 A 
ATOM      3  N   UNL     1     -10.619  -4.935  17.907  0.00  0.00    +0.000 NA
ATOM      4  C   UNL     1      -9.863  -4.117  18.682  0.00  0.00    +0.000 A 
ATOM      5  C   UNL     1      -8.805  -4.555  19.459  0.00  0.00    +0.000 A 
ATOM      6  C   UNL     1      -8.514  -5.911  19.442  0.00  0.00    +0.000 A 
ATOM      7  H   UNL     1     -10.954  -6.886  17.321  0.00  0.00    +0.000 HD
ATOM      8  H   UNL     1     -10.154  -3.075  18.629  0.00  0.00    +0.000 HD
ATOM      9  H   UNL     1      -7.685  -6.259  20.054  0.00  0.00    +0.000 HD
ENDROOT
BRANCH   1  16
ATOM     10  C   UNL     1      -8.916 -11.528  16.865  0.00  0.00    +0.000 A 
ATOM     11  N   UNL     1      -8.617 -12.649  17.535  0.00  0.00    +0.000 NA
ATOM     12  N   UNL     1      -8.389 -12.240  18.792  0.00  0.00    +0.000 N 
ATOM     13  C   UNL     1      -8.535 -10.897  18.975  0.00  0.00    +0.000 A 
ATOM     14  C   UNL     1      -8.375 -10.080  20.081  0.00  0.00    +0.000 A 
ATOM     15  N   UNL     1      -8.640  -8.757  19.951  0.00  0.00    +0.000 NA
ATOM     16  C   UNL     1      -9.042  -8.253  18.753  0.00  0.00    +0.000 A 
ATOM     17  C   UNL     1      -9.184  -9.040  17.615  0.00  0.00    +0.000 A 
ATOM     18  C   UNL     1      -8.914 -10.403  17.737  0.00  0.00    +0.000 A 
ATOM     19  H   UNL     1      -8.138 -12.937  19.482  0.00  0.00    +0.000 HD
ATOM     20  H   UNL     1      -8.059 -10.429  21.056  0.00  0.00    +0.000 HD
ATOM     21  H   UNL     1      -9.512  -8.628  16.670  0.00  0.00    +0.000 HD
BRANCH  10  23
ATOM     22  C   UNL     1      -8.441 -10.790  14.571  0.00  0.00    +0.000 C 
ATOM     23  C   UNL     1      -9.183 -11.459  15.457  0.00  0.00    +0.000 C 
ATOM     24  H   UNL     1      -8.715 -10.756  13.521  0.00  0.00    +0.000 HD
ATOM     25  H   UNL     1      -7.554 -10.243  14.880  0.00  0.00    +0.000 HD
ATOM     26  H   UNL     1     -10.068 -11.979  15.089  0.00  0.00    +0.000 HD
ENDBRANCH  10  23
ENDBRANCH   1  16
BRANCH   5  27
ATOM     27  O   UNL     1      -7.976  -3.802  20.230  0.00  0.00    +0.000 OA
BRANCH  27  28
ATOM     28  C   UNL     1      -6.798  -4.455  20.713  0.00  0.00    +0.000 C 
ATOM     29  H   UNL     1      -6.103  -4.618  19.881  0.00  0.00    +0.000 HD
ATOM     30  H   UNL     1      -7.053  -5.415  21.175  0.00  0.00    +0.000 HD
BRANCH  28  31
ATOM     31  C   UNL     1      -6.146  -3.530  21.765  0.00  0.00    +0.000 C 
ATOM     32  H   UNL     1      -6.117  -4.067  22.722  0.00  0.00    +0.000 HD
BRANCH  31  33
ATOM     33  N   UNL     1      -4.743  -3.247  21.403  0.00  0.00    +0.000 NA
ATOM     34  H   UNL     1      -4.360  -4.016  20.856  0.00  0.00    +0.000 HD
ATOM     35  H   UNL     1      -4.192  -3.206  22.262  0.00  0.00    +0.000 HD
ENDBRANCH  31  33
BRANCH  31  36
ATOM     36  C   UNL     1      -6.977  -2.237  21.917  0.00  0.00    +0.000 C 
ATOM     37  H   UNL     1      -7.691  -2.163  21.087  0.00  0.00    +0.000 HD
ATOM     38  H   UNL     1      -6.314  -1.367  21.823  0.00  0.00    +0.000 HD
BRANCH  36  39
ATOM     39  C   UNL     1      -7.760  -2.143  23.207  0.00  0.00    +0.000 A 
ATOM     40  C   UNL     1      -8.007  -3.291  23.974  0.00  0.00    +0.000 A 
ATOM     41  C   UNL     1      -8.745  -3.207  25.156  0.00  0.00    +0.000 A 
ATOM     42  C   UNL     1      -9.237  -1.976  25.586  0.00  0.00    +0.000 A 
ATOM     43  C   UNL     1      -8.986  -0.828  24.840  0.00  0.00    +0.000 A 
ATOM     44  C   UNL     1      -8.248  -0.910  23.659  0.00  0.00    +0.000 A 
ATOM     45  H   UNL     1      -7.636  -4.261  23.652  0.00  0.00    +0.000 HD
ATOM     46  H   UNL     1      -8.940  -4.103  25.738  0.00  0.00    +0.000 HD
ATOM     47  H   UNL     1      -9.817  -1.913  26.502  0.00  0.00    +0.000 HD
ATOM     48  H   UNL     1      -9.368   0.133  25.173  0.00  0.00    +0.000 HD
ATOM     49  H   UNL     1      -8.067  -0.003  23.086  0.00  0.00    +0.000 HD
ENDBRANCH  36  39
ENDBRANCH  31  36
ENDBRANCH  28  31
ENDBRANCH  27  28
ENDBRANCH   5  27
TORSDOF 8
ENDMDL
MODEL 4
REMARK VINA RESULT:   -10.409      2.636      8.082
REMARK INTER + INTRA:         -15.842
REMARK INTER:                 -14.686
REMARK INTRA:                  -1.156
REMARK UNBOUND:                -0.869
REMARK  Name = 
REMARK  8 active torsions:
REMARK  status: ('A' for Active; 'I' for Inactive)
REMARK    1  A    between atoms: C_2  and  C_3
REMARK    2  A    between atoms: C_9  and  C_10
REMARK    3  A    between atoms: C_14  and  O_15
REMARK    4  A    between atoms: O_15  and  C_16
REMARK    5  A    between atoms: C_16  and  C_17
REMARK    6  A    between atoms: C_17  and  N_18
REMARK    7  A    between atoms: C_17  and  C_19
REMARK    8  A    between atoms: C_19  and  C_20
REMARK                            x       y       z     vdW  Elec       q    Type
REMARK                         _______ _______ _______ _____ _____    ______ ____
ROOT
ATOM      1  C   UNL     1     -10.265  -6.173  17.810  0.00  0.00    +0.000 A 
ATOM      2  C   UNL     1     -11.312  -6.011  16.908  0.00  0.00    +0.000 A 
ATOM      3  N   UNL     1     -11.836  -4.812  16.546  0.00  0.00    +0.000 NA
ATOM      4  C   UNL     1     -11.299  -3.711  17.129  0.00  0.00    +0.000 A 
ATOM      5  C   UNL     1     -10.244  -3.752  18.024  0.00  0.00    +0.000 A 
ATOM      6  C   UNL     1      -9.718  -4.996  18.339  0.00  0.00    +0.000 A 
ATOM      7  H   UNL     1     -11.773  -6.872  16.428  0.00  0.00    +0.000 HD
ATOM      8  H   UNL     1     -11.765  -2.783  16.821  0.00  0.00    +0.000 HD
ATOM      9  H   UNL     1      -8.891  -5.033  19.045  0.00  0.00    +0.000 HD
ENDROOT
BRANCH   1  16
ATOM     10  C   UNL     1      -8.914 -11.021  17.156  0.00  0.00    +0.000 A 
ATOM     11  N   UNL     1      -8.477 -11.884  18.082  0.00  0.00    +0.000 NA
ATOM     12  N   UNL     1      -8.425 -11.166  19.214  0.00  0.00    +0.000 N 
ATOM     13  C   UNL     1      -8.820  -9.868  19.068  0.00  0.00    +0.000 A 
ATOM     14  C   UNL     1      -8.896  -8.807  19.954  0.00  0.00    +0.000 A 
ATOM     15  N   UNL     1      -9.380  -7.623  19.505  0.00  0.00    +0.000 NA
ATOM     16  C   UNL     1      -9.767  -7.490  18.208  0.00  0.00    +0.000 A 
ATOM     17  C   UNL     1      -9.677  -8.526  17.284  0.00  0.00    +0.000 A 
ATOM     18  C   UNL     1      -9.181  -9.749  17.736  0.00  0.00    +0.000 A 
ATOM     19  H   UNL     1      -8.111 -11.627  20.058  0.00  0.00    +0.000 HD
ATOM     20  H   UNL     1      -8.602  -8.860  20.995  0.00  0.00    +0.000 HD
ATOM     21  H   UNL     1      -9.997  -8.408  16.257  0.00  0.00    +0.000 HD
BRANCH  10  23
ATOM     22  C   UNL     1      -8.394 -12.263  15.102  0.00  0.00    +0.000 C 
ATOM     23  C   UNL     1      -9.077 -11.325  15.763  0.00  0.00    +0.000 C 
ATOM     24  H   UNL     1      -8.546 -12.424  14.039  0.00  0.00    +0.000 HD
ATOM     25  H   UNL     1      -7.649 -12.876  15.605  0.00  0.00    +0.000 HD
ATOM     26  H   UNL     1      -9.800 -10.734  15.202  0.00  0.00    +0.000 HD
ENDBRANCH  10  23
ENDBRANCH   1  16
BRANCH   5  27
ATOM     27  O   UNL     1      -9.625  -2.700  18.623  0.00  0.00    +0.000 OA
BRANCH  27  28
ATOM     28  C   UNL     1      -9.851  -2.553  20.029  0.00  0.00    +0.000 C 
ATOM     29  H   UNL     1     -10.200  -3.505  20.445  0.00  0.00    +0.000 HD
ATOM     30  H   UNL     1     -10.595  -1.772  20.218  0.00  0.00    +0.000 HD
BRANCH  28  31
ATOM     31  C   UNL     1      -8.507  -2.158  20.681  0.00  0.00    +0.000 C 
ATOM     32  H   UNL     1      -7.779  -1.974  19.881  0.00  0.00    +0.000 HD
BRANCH  31  33
ATOM     33  N   UNL     1      -8.647  -0.886  21.418  0.00  0.00    +0.000 NA
ATOM     34  H   UNL     1      -9.403  -0.955  22.097  0.00  0.00    +0.000 HD
ATOM     35  H   UNL     1      -8.925  -0.160  20.755  0.00  0.00    +0.000 HD
ENDBRANCH  31  33
BRANCH  31  36
ATOM     36  C   UNL     1      -8.006  -3.301  21.590  0.00  0.00    +0.000 C 
ATOM     37  H   UNL     1      -8.822  -4.014  21.763  0.00  0.00    +0.000 HD
ATOM     38  H   UNL     1      -7.748  -2.893  22.576  0.00  0.00    +0.000 HD
BRANCH  36  39
ATOM     39  C   UNL     1      -6.831  -4.074  21.035  0.00  0.00    +0.000 A 
ATOM     40  C   UNL     1      -5.519  -3.714  21.373  0.00  0.00    +0.000 A 
ATOM     41  C   UNL     1      -4.434  -4.417  20.848  0.00  0.00    +0.000 A 
ATOM     42  C   UNL     1      -4.649  -5.491  19.986  0.00  0.00    +0.000 A 
ATOM     43  C   UNL     1      -5.948  -5.867  19.655  0.00  0.00    +0.000 A 
ATOM     44  C   UNL     1      -7.034  -5.165  20.179  0.00  0.00    +0.000 A 
ATOM     45  H   UNL     1      -5.330  -2.875  22.040  0.00  0.00    +0.000 HD
ATOM     46  H   UNL     1      -3.420  -4.124  21.108  0.00  0.00    +0.000 HD
ATOM     47  H   UNL     1      -3.804  -6.033  19.572  0.00  0.00    +0.000 HD
ATOM     48  H   UNL     1      -6.119  -6.704  18.983  0.00  0.00    +0.000 HD
ATOM     49  H   UNL     1      -8.041  -5.470  19.904  0.00  0.00    +0.000 HD
ENDBRANCH  36  39
ENDBRANCH  31  36
ENDBRANCH  28  31
ENDBRANCH  27  28
ENDBRANCH   5  27
TORSDOF 8
ENDMDL
MODEL 5
REMARK VINA RESULT:   -10.383      2.661      4.168
REMARK INTER + INTRA:         -15.804
REMARK INTER:                 -15.100
REMARK INTRA:                  -0.704
REMARK UNBOUND:                -0.869
REMARK  Name = 
REMARK  8 active torsions:
REMARK  status: ('A' for Active; 'I' for Inactive)
REMARK    1  A    between atoms: C_2  and  C_3
REMARK    2  A    between atoms: C_9  and  C_10
REMARK    3  A    between atoms: C_14  and  O_15
REMARK    4  A    between atoms: O_15  and  C_16
REMARK    5  A    between atoms: C_16  and  C_17
REMARK    6  A    between atoms: C_17  and  N_18
REMARK    7  A    between atoms: C_17  and  C_19
REMARK    8  A    between atoms: C_19  and  C_20
REMARK                            x       y       z     vdW  Elec       q    Type
REMARK                         _______ _______ _______ _____ _____    ______ ____
ROOT
ATOM      1  C   UNL     1      -8.110  -4.034  20.252  0.00  0.00    +0.000 A 
ATOM      2  C   UNL     1      -6.964  -4.751  20.583  0.00  0.00    +0.000 A 
ATOM      3  N   UNL     1      -6.534  -5.859  19.926  0.00  0.00    +0.000 NA
ATOM      4  C   UNL     1      -7.299  -6.289  18.891  0.00  0.00    +0.000 A 
ATOM      5  C   UNL     1      -8.446  -5.644  18.462  0.00  0.00    +0.000 A 
ATOM      6  C   UNL     1      -8.829  -4.497  19.141  0.00  0.00    +0.000 A 
ATOM      7  H   UNL     1      -6.332  -4.441  21.413  0.00  0.00    +0.000 HD
ATOM      8  H   UNL     1      -6.923  -7.185  18.414  0.00  0.00    +0.000 HD
ATOM      9  H   UNL     1      -9.732  -3.989  18.809  0.00  0.00    +0.000 HD
ENDROOT
BRANCH   1  16
ATOM     10  C   UNL     1      -9.243  -1.389  24.432  0.00  0.00    +0.000 A 
ATOM     11  N   UNL     1      -9.735  -0.146  24.509  0.00  0.00    +0.000 NA
ATOM     12  N   UNL     1      -9.814   0.265  23.235  0.00  0.00    +0.000 N 
ATOM     13  C   UNL     1      -9.400  -0.663  22.325  0.00  0.00    +0.000 A 
ATOM     14  C   UNL     1      -9.299  -0.641  20.945  0.00  0.00    +0.000 A 
ATOM     15  N   UNL     1      -8.882  -1.763  20.308  0.00  0.00    +0.000 NA
ATOM     16  C   UNL     1      -8.561  -2.875  21.022  0.00  0.00    +0.000 A 
ATOM     17  C   UNL     1      -8.623  -2.923  22.411  0.00  0.00    +0.000 A 
ATOM     18  C   UNL     1      -9.052  -1.774  23.076  0.00  0.00    +0.000 A 
ATOM     19  H   UNL     1     -10.163   1.197  23.055  0.00  0.00    +0.000 HD
ATOM     20  H   UNL     1      -9.542   0.216  20.329  0.00  0.00    +0.000 HD
ATOM     21  H   UNL     1      -8.373  -3.818  22.966  0.00  0.00    +0.000 HD
BRANCH  10  23
ATOM     22  C   UNL     1      -8.953  -1.817  26.834  0.00  0.00    +0.000 C 
ATOM     23  C   UNL     1      -8.931  -2.220  25.561  0.00  0.00    +0.000 C 
ATOM     24  H   UNL     1      -8.679  -2.490  27.640  0.00  0.00    +0.000 HD
ATOM     25  H   UNL     1      -9.225  -0.797  27.096  0.00  0.00    +0.000 HD
ATOM     26  H   UNL     1      -8.638  -3.249  25.359  0.00  0.00    +0.000 HD
ENDBRANCH  10  23
ENDBRANCH   1  16
BRANCH   5  27
ATOM     27  O   UNL     1      -9.245  -5.983  17.416  0.00  0.00    +0.000 OA
BRANCH  27  28
ATOM     28  C   UNL     1      -8.779  -7.054  16.589  0.00  0.00    +0.000 C 
ATOM     29  H   UNL     1      -7.912  -7.531  17.061  0.00  0.00    +0.000 HD
ATOM     30  H   UNL     1      -8.500  -6.680  15.597  0.00  0.00    +0.000 HD
BRANCH  28  31
ATOM     31  C   UNL     1      -9.929  -8.076  16.452  0.00  0.00    +0.000 C 
ATOM     32  H   UNL     1     -10.071  -8.565  17.425  0.00  0.00    +0.000 HD
BRANCH  31  33
ATOM     33  N   UNL     1     -11.198  -7.386  16.144  0.00  0.00    +0.000 NA
ATOM     34  H   UNL     1     -11.435  -7.509  15.161  0.00  0.00    +0.000 HD
ATOM     35  H   UNL     1     -11.059  -6.383  16.280  0.00  0.00    +0.000 HD
ENDBRANCH  31  33
BRANCH  31  36
ATOM     36  C   UNL     1      -9.572  -9.132  15.384  0.00  0.00    +0.000 C 
ATOM     37  H   UNL     1      -8.743  -8.761  14.767  0.00  0.00    +0.000 HD
ATOM     38  H   UNL     1     -10.422  -9.260  14.701  0.00  0.00    +0.000 HD
BRANCH  36  39
ATOM     39  C   UNL     1      -9.162 -10.476  15.944  0.00  0.00    +0.000 A 
ATOM     40  C   UNL     1      -8.741 -11.503  15.089  0.00  0.00    +0.000 A 
ATOM     41  C   UNL     1      -8.378 -12.750  15.603  0.00  0.00    +0.000 A 
ATOM     42  C   UNL     1      -8.426 -12.978  16.977  0.00  0.00    +0.000 A 
ATOM     43  C   UNL     1      -8.828 -11.959  17.837  0.00  0.00    +0.000 A 
ATOM     44  C   UNL     1      -9.191 -10.714  17.325  0.00  0.00    +0.000 A 
ATOM     45  H   UNL     1      -8.702 -11.347  14.013  0.00  0.00    +0.000 HD
ATOM     46  H   UNL     1      -8.062 -13.543  14.932  0.00  0.00    +0.000 HD
ATOM     47  H   UNL     1      -8.150 -13.949  17.377  0.00  0.00    +0.000 HD
ATOM     48  H   UNL     1      -8.866 -12.134  18.909  0.00  0.00    +0.000 HD
ATOM     49  H   UNL     1      -9.508  -9.932  18.012  0.00  0.00    +0.000 HD
ENDBRANCH  36  39
ENDBRANCH  31  36
ENDBRANCH  28  31
ENDBRANCH  27  28
ENDBRANCH   5  27
TORSDOF 8
ENDMDL
MODEL 6
REMARK VINA RESULT:   -10.370      2.709      4.524
REMARK INTER + INTRA:         -15.786
REMARK INTER:                 -15.038
REMARK INTRA:                  -0.747
REMARK UNBOUND:                -0.869
REMARK  Name = 
REMARK  8 active torsions:
REMARK  status: ('A' for Active; 'I' for Inactive)
REMARK    1  A    between atoms: C_2  and  C_3
REMARK    2  A    between atoms: C_9  and  C_10
REMARK    3  A    between atoms: C_14  and  O_15
REMARK    4  A    between atoms: O_15  and  C_16
REMARK    5  A    between atoms: C_16  and  C_17
REMARK    6  A    between atoms: C_17  and  N_18
REMARK    7  A    between atoms: C_17  and  C_19
REMARK    8  A    between atoms: C_19  and  C_20
REMARK                            x       y       z     vdW  Elec       q    Type
REMARK                         _______ _______ _______ _____ _____    ______ ____
ROOT
ATOM      1  C   UNL     1      -7.010  -4.313  20.714  0.00  0.00    +0.000 A 
ATOM      2  C   UNL     1      -5.632  -4.373  20.894  0.00  0.00    +0.000 A 
ATOM      3  N   UNL     1      -4.783  -5.079  20.104  0.00  0.00    +0.000 NA
ATOM      4  C   UNL     1      -5.341  -5.784  19.087  0.00  0.00    +0.000 A 
ATOM      5  C   UNL     1      -6.696  -5.782  18.804  0.00  0.00    +0.000 A 
ATOM      6  C   UNL     1      -7.521  -5.019  19.616  0.00  0.00    +0.000 A 
ATOM      7  H   UNL     1      -5.151  -3.828  21.705  0.00  0.00    +0.000 HD
ATOM      8  H   UNL     1      -4.624  -6.345  18.501  0.00  0.00    +0.000 HD
ATOM      9  H   UNL     1      -8.587  -5.018  19.397  0.00  0.00    +0.000 HD
ENDROOT
BRANCH   1  16
ATOM     10  C   UNL     1      -8.827  -2.784  25.199  0.00  0.00    +0.000 A 
ATOM     11  N   UNL     1      -9.865  -1.970  25.431  0.00  0.00    +0.000 NA
ATOM     12  N   UNL     1     -10.286  -1.606  24.210  0.00  0.00    +0.000 N 
ATOM     13  C   UNL     1      -9.571  -2.157  23.188  0.00  0.00    +0.000 A 
ATOM     14  C   UNL     1      -9.655  -2.031  21.812  0.00  0.00    +0.000 A 
ATOM     15  N   UNL     1      -8.808  -2.757  21.043  0.00  0.00    +0.000 NA
ATOM     16  C   UNL     1      -7.891  -3.578  21.622  0.00  0.00    +0.000 A 
ATOM     17  C   UNL     1      -7.759  -3.706  23.001  0.00  0.00    +0.000 A 
ATOM     18  C   UNL     1      -8.627  -2.964  23.802  0.00  0.00    +0.000 A 
ATOM     19  H   UNL     1     -11.075  -0.976  24.146  0.00  0.00    +0.000 HD
ATOM     20  H   UNL     1     -10.366  -1.394  21.301  0.00  0.00    +0.000 HD
ATOM     21  H   UNL     1      -7.030  -4.370  23.448  0.00  0.00    +0.000 HD
BRANCH  10  23
ATOM     22  C   UNL     1      -7.973  -2.992  27.493  0.00  0.00    +0.000 C 
ATOM     23  C   UNL     1      -8.011  -3.384  26.217  0.00  0.00    +0.000 C 
ATOM     24  H   UNL     1      -7.312  -3.473  28.208  0.00  0.00    +0.000 HD
ATOM     25  H   UNL     1      -8.587  -2.167  27.847  0.00  0.00    +0.000 HD
ATOM     26  H   UNL     1      -7.364  -4.208  25.919  0.00  0.00    +0.000 HD
ENDBRANCH  10  23
ENDBRANCH   1  16
BRANCH   5  27
ATOM     27  O   UNL     1      -7.329  -6.426  17.787  0.00  0.00    +0.000 OA
BRANCH  27  28
ATOM     28  C   UNL     1      -8.715  -6.716  17.992  0.00  0.00    +0.000 C 
ATOM     29  H   UNL     1      -9.273  -6.505  17.071  0.00  0.00    +0.000 HD
ATOM     30  H   UNL     1      -9.117  -6.113  18.813  0.00  0.00    +0.000 HD
BRANCH  28  31
ATOM     31  C   UNL     1      -8.834  -8.216  18.343  0.00  0.00    +0.000 C 
ATOM     32  H   UNL     1      -7.834  -8.663  18.275  0.00  0.00    +0.000 HD
BRANCH  31  33
ATOM     33  N   UNL     1      -9.272  -8.383  19.743  0.00  0.00    +0.000 NA
ATOM     34  H   UNL     1     -10.072  -9.012  19.787  0.00  0.00    +0.000 HD
ATOM     35  H   UNL     1      -9.601  -7.480  20.086  0.00  0.00    +0.000 HD
ENDBRANCH  31  33
BRANCH  31  36
ATOM     36  C   UNL     1      -9.787  -8.916  17.351  0.00  0.00    +0.000 C 
ATOM     37  H   UNL     1      -9.934  -8.274  16.472  0.00  0.00    +0.000 HD
ATOM     38  H   UNL     1     -10.776  -9.025  17.813  0.00  0.00    +0.000 HD
BRANCH  36  39
ATOM     39  C   UNL     1      -9.303 -10.262  16.860  0.00  0.00    +0.000 A 
ATOM     40  C   UNL     1      -9.030 -11.293  17.768  0.00  0.00    +0.000 A 
ATOM     41  C   UNL     1      -8.567 -12.531  17.317  0.00  0.00    +0.000 A 
ATOM     42  C   UNL     1      -8.379 -12.751  15.954  0.00  0.00    +0.000 A 
ATOM     43  C   UNL     1      -8.661 -11.738  15.041  0.00  0.00    +0.000 A 
ATOM     44  C   UNL     1      -9.124 -10.501  15.490  0.00  0.00    +0.000 A 
ATOM     45  H   UNL     1      -9.164 -11.140  18.837  0.00  0.00    +0.000 HD
ATOM     46  H   UNL     1      -8.348 -13.321  18.029  0.00  0.00    +0.000 HD
ATOM     47  H   UNL     1      -8.013 -13.711  15.603  0.00  0.00    +0.000 HD
ATOM     48  H   UNL     1      -8.516 -11.907  13.977  0.00  0.00    +0.000 HD
ATOM     49  H   UNL     1      -9.333  -9.720  14.763  0.00  0.00    +0.000 HD
ENDBRANCH  36  39
ENDBRANCH  31  36
ENDBRANCH  28  31
ENDBRANCH  27  28
ENDBRANCH   5  27
TORSDOF 8
ENDMDL
MODEL 7
REMARK VINA RESULT:   -10.194      2.357      3.184
REMARK INTER + INTRA:         -15.532
REMARK INTER:                 -14.736
REMARK INTRA:                  -0.797
REMARK UNBOUND:                -0.869
REMARK  Name = 
REMARK  8 active torsions:
REMARK  status: ('A' for Active; 'I' for Inactive)
REMARK    1  A    between atoms: C_2  and  C_3
REMARK    2  A    between atoms: C_9  and  C_10
REMARK    3  A    between atoms: C_14  and  O_15
REMARK    4  A    between atoms: O_15  and  C_16
REMARK    5  A    between atoms: C_16  and  C_17
REMARK    6  A    between atoms: C_17  and  N_18
REMARK    7  A    between atoms: C_17  and  C_19
REMARK    8  A    between atoms: C_19  and  C_20
REMARK                            x       y       z     vdW  Elec       q    Type
REMARK                         _______ _______ _______ _____ _____    ______ ____
ROOT
ATOM      1  C   UNL     1      -8.645  -6.576  19.304  0.00  0.00    +0.000 A 
ATOM      2  C   UNL     1      -8.514  -7.641  20.191  0.00  0.00    +0.000 A 
ATOM      3  N   UNL     1      -8.620  -8.949  19.842  0.00  0.00    +0.000 NA
ATOM      4  C   UNL     1      -8.891  -9.212  18.539  0.00  0.00    +0.000 A 
ATOM      5  C   UNL     1      -9.022  -8.235  17.568  0.00  0.00    +0.000 A 
ATOM      6  C   UNL     1      -8.871  -6.914  17.963  0.00  0.00    +0.000 A 
ATOM      7  H   UNL     1      -8.307  -7.466  21.245  0.00  0.00    +0.000 HD
ATOM      8  H   UNL     1      -8.985 -10.268  18.318  0.00  0.00    +0.000 HD
ATOM      9  H   UNL     1      -8.977  -6.143  17.203  0.00  0.00    +0.000 HD
ENDROOT
BRANCH   1  16
ATOM     10  C   UNL     1      -9.782  -1.631  19.244  0.00  0.00    +0.000 A 
ATOM     11  N   UNL     1      -9.270  -0.661  20.012  0.00  0.00    +0.000 NA
ATOM     12  N   UNL     1      -8.425  -1.296  20.838  0.00  0.00    +0.000 N 
ATOM     13  C   UNL     1      -8.358  -2.643  20.636  0.00  0.00    +0.000 A 
ATOM     14  C   UNL     1      -7.647  -3.650  21.267  0.00  0.00    +0.000 A 
ATOM     15  N   UNL     1      -7.764  -4.916  20.796  0.00  0.00    +0.000 NA
ATOM     16  C   UNL     1      -8.572  -5.180  19.736  0.00  0.00    +0.000 A 
ATOM     17  C   UNL     1      -9.323  -4.198  19.097  0.00  0.00    +0.000 A 
ATOM     18  C   UNL     1      -9.210  -2.892  19.573  0.00  0.00    +0.000 A 
ATOM     19  H   UNL     1      -7.921  -0.745  21.521  0.00  0.00    +0.000 HD
ATOM     20  H   UNL     1      -6.990  -3.494  22.113  0.00  0.00    +0.000 HD
ATOM     21  H   UNL     1      -9.956  -4.421  18.248  0.00  0.00    +0.000 HD
BRANCH  10  23
ATOM     22  C   UNL     1     -10.536  -1.262  16.935  0.00  0.00    +0.000 C 
ATOM     23  C   UNL     1     -10.785  -1.436  18.236  0.00  0.00    +0.000 C 
ATOM     24  H   UNL     1     -11.341  -1.092  16.228  0.00  0.00    +0.000 HD
ATOM     25  H   UNL     1      -9.518  -1.264  16.552  0.00  0.00    +0.000 HD
ATOM     26  H   UNL     1     -11.824  -1.412  18.561  0.00  0.00    +0.000 HD
ENDBRANCH  10  23
ENDBRANCH   1  16
BRANCH   5  27
ATOM     27  O   UNL     1      -9.254  -8.413  16.240  0.00  0.00    +0.000 OA
BRANCH  27  28
ATOM     28  C   UNL     1     -10.143  -9.479  15.893  0.00  0.00    +0.000 C 
ATOM     29  H   UNL     1     -11.131  -9.069  15.655  0.00  0.00    +0.000 HD
ATOM     30  H   UNL     1     -10.228 -10.193  16.720  0.00  0.00    +0.000 HD
BRANCH  28  31
ATOM     31  C   UNL     1      -9.559 -10.191  14.652  0.00  0.00    +0.000 C 
ATOM     32  H   UNL     1     -10.307 -10.905  14.284  0.00  0.00    +0.000 HD
BRANCH  31  33
ATOM     33  N   UNL     1      -9.334  -9.222  13.561  0.00  0.00    +0.000 NA
ATOM     34  H   UNL     1      -8.533  -8.631  13.776  0.00  0.00    +0.000 HD
ATOM     35  H   UNL     1     -10.142  -8.600  13.513  0.00  0.00    +0.000 HD
ENDBRANCH  31  33
BRANCH  31  36
ATOM     36  C   UNL     1      -8.265 -10.942  15.034  0.00  0.00    +0.000 C 
ATOM     37  H   UNL     1      -7.672 -10.321  15.718  0.00  0.00    +0.000 HD
ATOM     38  H   UNL     1      -7.647 -11.079  14.138  0.00  0.00    +0.000 HD
BRANCH  36  39
ATOM     39  C   UNL     1      -8.491 -12.277  15.707  0.00  0.00    +0.000 A 
ATOM     40  C   UNL     1      -8.673 -13.437  14.941  0.00  0.00    +0.000 A 
ATOM     41  C   UNL     1      -8.898 -14.667  15.561  0.00  0.00    +0.000 A 
ATOM     42  C   UNL     1      -8.935 -14.752  16.951  0.00  0.00    +0.000 A 
ATOM     43  C   UNL     1      -8.740 -13.609  17.722  0.00  0.00    +0.000 A 
ATOM     44  C   UNL     1      -8.515 -12.378  17.104  0.00  0.00    +0.000 A 
ATOM     45  H   UNL     1      -8.653 -13.391  13.854  0.00  0.00    +0.000 HD
ATOM     46  H   UNL     1      -9.048 -15.559  14.959  0.00  0.00    +0.000 HD
ATOM     47  H   UNL     1      -9.117 -15.708  17.433  0.00  0.00    +0.000 HD
ATOM     48  H   UNL     1      -8.769 -13.672  18.807  0.00  0.00    +0.000 HD
ATOM     49  H   UNL     1      -8.371 -11.496  17.723  0.00  0.00    +0.000 HD
ENDBRANCH  36  39
ENDBRANCH  31  36
ENDBRANCH  28  31
ENDBRANCH  27  28
ENDBRANCH   5  27
TORSDOF 8
ENDMDL
MODEL 8
REMARK VINA RESULT:   -10.151      3.195      9.618
REMARK INTER + INTRA:         -15.471
REMARK INTER:                 -14.827
REMARK INTRA:                  -0.644
REMARK UNBOUND:                -0.869
REMARK  Name = 
REMARK  8 active torsions:
REMARK  status: ('A' for Active; 'I' for Inactive)
REMARK    1  A    between atoms: C_2  and  C_3
REMARK    2  A    between atoms: C_9  and  C_10
REMARK    3  A    between atoms: C_14  and  O_15
REMARK    4  A    between atoms: O_15  and  C_16
REMARK    5  A    between atoms: C_16  and  C_17
REMARK    6  A    between atoms: C_17  and  N_18
REMARK    7  A    between atoms: C_17  and  C_19
REMARK    8  A    between atoms: C_19  and  C_20
REMARK                            x       y       z     vdW  Elec       q    Type
REMARK                         _______ _______ _______ _____ _____    ______ ____
ROOT
ATOM      1  C   UNL     1     -10.045  -6.529  17.936  0.00  0.00    +0.000 A 
ATOM      2  C   UNL     1     -11.024  -6.288  16.977  0.00  0.00    +0.000 A 
ATOM      3  N   UNL     1     -11.520  -5.061  16.675  0.00  0.00    +0.000 NA
ATOM      4  C   UNL     1     -11.026  -4.014  17.382  0.00  0.00    +0.000 A 
ATOM      5  C   UNL     1     -10.038  -4.133  18.344  0.00  0.00    +0.000 A 
ATOM      6  C   UNL     1      -9.536  -5.401  18.595  0.00  0.00    +0.000 A 
ATOM      7  H   UNL     1     -11.451  -7.106  16.398  0.00  0.00    +0.000 HD
ATOM      8  H   UNL     1     -11.468  -3.061  17.117  0.00  0.00    +0.000 HD
ATOM      9  H   UNL     1      -8.761  -5.499  19.352  0.00  0.00    +0.000 HD
ENDROOT
BRANCH   1  16
ATOM     10  C   UNL     1      -8.853 -11.378  17.031  0.00  0.00    +0.000 A 
ATOM     11  N   UNL     1      -8.421 -12.295  17.907  0.00  0.00    +0.000 NA
ATOM     12  N   UNL     1      -8.323 -11.631  19.068  0.00  0.00    +0.000 N 
ATOM     13  C   UNL     1      -8.682 -10.318  18.990  0.00  0.00    +0.000 A 
ATOM     14  C   UNL     1      -8.706  -9.297  19.925  0.00  0.00    +0.000 A 
ATOM     15  N   UNL     1      -9.165  -8.080  19.542  0.00  0.00    +0.000 NA
ATOM     16  C   UNL     1      -9.577  -7.876  18.262  0.00  0.00    +0.000 A 
ATOM     17  C   UNL     1      -9.539  -8.871  17.290  0.00  0.00    +0.000 A 
ATOM     18  C   UNL     1      -9.069 -10.127  17.675  0.00  0.00    +0.000 A 
ATOM     19  H   UNL     1      -8.003 -12.139  19.883  0.00  0.00    +0.000 HD
ATOM     20  H   UNL     1      -8.391  -9.406  20.955  0.00  0.00    +0.000 HD
ATOM     21  H   UNL     1      -9.878  -8.697  16.278  0.00  0.00    +0.000 HD
BRANCH  10  23
ATOM     22  C   UNL     1      -8.545 -12.640  14.947  0.00  0.00    +0.000 C 
ATOM     23  C   UNL     1      -9.057 -11.613  15.630  0.00  0.00    +0.000 C 
ATOM     24  H   UNL     1      -8.715 -12.745  13.880  0.00  0.00    +0.000 HD
ATOM     25  H   UNL     1      -7.925 -13.388  15.436  0.00  0.00    +0.000 HD
ATOM     26  H   UNL     1      -9.659 -10.889  15.083  0.00  0.00    +0.000 HD
ENDBRANCH  10  23
ENDBRANCH   1  16
BRANCH   5  27
ATOM     27  O   UNL     1      -9.462  -3.136  19.067  0.00  0.00    +0.000 OA
BRANCH  27  28
ATOM     28  C   UNL     1     -10.352  -2.155  19.608  0.00  0.00    +0.000 C 
ATOM     29  H   UNL     1     -11.214  -2.655  20.066  0.00  0.00    +0.000 HD
ATOM     30  H   UNL     1     -10.696  -1.472  18.823  0.00  0.00    +0.000 HD
BRANCH  28  31
ATOM     31  C   UNL     1      -9.578  -1.360  20.683  0.00  0.00    +0.000 C 
ATOM     32  H   UNL     1      -8.848  -2.036  21.149  0.00  0.00    +0.000 HD
BRANCH  31  33
ATOM     33  N   UNL     1      -8.798  -0.273  20.058  0.00  0.00    +0.000 NA
ATOM     34  H   UNL     1      -8.059   0.036  20.687  0.00  0.00    +0.000 HD
ATOM     35  H   UNL     1      -9.416   0.530  19.929  0.00  0.00    +0.000 HD
ENDBRANCH  31  33
BRANCH  31  36
ATOM     36  C   UNL     1     -10.555  -0.830  21.754  0.00  0.00    +0.000 C 
ATOM     37  H   UNL     1     -11.561  -1.226  21.558  0.00  0.00    +0.000 HD
ATOM     38  H   UNL     1     -10.639   0.261  21.660  0.00  0.00    +0.000 HD
BRANCH  36  39
ATOM     39  C   UNL     1     -10.188  -1.193  23.174  0.00  0.00    +0.000 A 
ATOM     40  C   UNL     1     -10.754  -2.318  23.790  0.00  0.00    +0.000 A 
ATOM     41  C   UNL     1     -10.427  -2.644  25.107  0.00  0.00    +0.000 A 
ATOM     42  C   UNL     1      -9.527  -1.855  25.819  0.00  0.00    +0.000 A 
ATOM     43  C   UNL     1      -8.947  -0.743  25.213  0.00  0.00    +0.000 A 
ATOM     44  C   UNL     1      -9.272  -0.416  23.897  0.00  0.00    +0.000 A 
ATOM     45  H   UNL     1     -11.463  -2.944  23.253  0.00  0.00    +0.000 HD
ATOM     46  H   UNL     1     -10.879  -3.513  25.579  0.00  0.00    +0.000 HD
ATOM     47  H   UNL     1      -9.278  -2.105  26.846  0.00  0.00    +0.000 HD
ATOM     48  H   UNL     1      -8.244  -0.125  25.766  0.00  0.00    +0.000 HD
ATOM     49  H   UNL     1      -8.813   0.460  23.442  0.00  0.00    +0.000 HD
ENDBRANCH  36  39
ENDBRANCH  31  36
ENDBRANCH  28  31
ENDBRANCH  27  28
ENDBRANCH   5  27
TORSDOF 8
ENDMDL
MODEL 9
REMARK VINA RESULT:   -10.102      2.243      3.449
REMARK INTER + INTRA:         -15.400
REMARK INTER:                 -14.455
REMARK INTRA:                  -0.945
REMARK UNBOUND:                -0.869
REMARK  Name = 
REMARK  8 active torsions:
REMARK  status: ('A' for Active; 'I' for Inactive)
REMARK    1  A    between atoms: C_2  and  C_3
REMARK    2  A    between atoms: C_9  and  C_10
REMARK    3  A    between atoms: C_14  and  O_15
REMARK    4  A    between atoms: O_15  and  C_16
REMARK    5  A    between atoms: C_16  and  C_17
REMARK    6  A    between atoms: C_17  and  N_18
REMARK    7  A    between atoms: C_17  and  C_19
REMARK    8  A    between atoms: C_19  and  C_20
REMARK                            x       y       z     vdW  Elec       q    Type
REMARK                         _______ _______ _______ _____ _____    ______ ____
ROOT
ATOM      1  C   UNL     1     -10.454  -3.647  18.368  0.00  0.00    +0.000 A 
ATOM      2  C   UNL     1     -11.652  -3.312  17.744  0.00  0.00    +0.000 A 
ATOM      3  N   UNL     1     -12.204  -4.006  16.717  0.00  0.00    +0.000 NA
ATOM      4  C   UNL     1     -11.515  -5.087  16.271  0.00  0.00    +0.000 A 
ATOM      5  C   UNL     1     -10.325  -5.523  16.828  0.00  0.00    +0.000 A 
ATOM      6  C   UNL     1      -9.816  -4.804  17.899  0.00  0.00    +0.000 A 
ATOM      7  H   UNL     1     -12.226  -2.446  18.069  0.00  0.00    +0.000 HD
ATOM      8  H   UNL     1     -11.988  -5.593  15.439  0.00  0.00    +0.000 HD
ATOM      9  H   UNL     1      -8.880  -5.142  18.337  0.00  0.00    +0.000 HD
ENDROOT
BRANCH   1  16
ATOM     10  C   UNL     1      -7.203  -2.530  22.102  0.00  0.00    +0.000 A 
ATOM     11  N   UNL     1      -7.195  -1.445  22.886  0.00  0.00    +0.000 NA
ATOM     12  N   UNL     1      -8.208  -0.692  22.431  0.00  0.00    +0.000 N 
ATOM     13  C   UNL     1      -8.885  -1.246  21.384  0.00  0.00    +0.000 A 
ATOM     14  C   UNL     1      -9.953  -0.805  20.622  0.00  0.00    +0.000 A 
ATOM     15  N   UNL     1     -10.438  -1.621  19.655  0.00  0.00    +0.000 NA
ATOM     16  C   UNL     1      -9.872  -2.839  19.440  0.00  0.00    +0.000 A 
ATOM     17  C   UNL     1      -8.780  -3.302  20.167  0.00  0.00    +0.000 A 
ATOM     18  C   UNL     1      -8.273  -2.469  21.166  0.00  0.00    +0.000 A 
ATOM     19  H   UNL     1      -8.385   0.195  22.885  0.00  0.00    +0.000 HD
ATOM     20  H   UNL     1     -10.440   0.154  20.752  0.00  0.00    +0.000 HD
ATOM     21  H   UNL     1      -8.345  -4.277  19.992  0.00  0.00    +0.000 HD
BRANCH  10  23
ATOM     22  C   UNL     1      -5.104  -3.655  21.502  0.00  0.00    +0.000 C 
ATOM     23  C   UNL     1      -6.255  -3.605  22.178  0.00  0.00    +0.000 C 
ATOM     24  H   UNL     1      -4.442  -4.512  21.584  0.00  0.00    +0.000 HD
ATOM     25  H   UNL     1      -4.808  -2.849  20.835  0.00  0.00    +0.000 HD
ATOM     26  H   UNL     1      -6.504  -4.448  22.821  0.00  0.00    +0.000 HD
ENDBRANCH  10  23
ENDBRANCH   1  16
BRANCH   5  27
ATOM     27  O   UNL     1      -9.594  -6.612  16.470  0.00  0.00    +0.000 OA
BRANCH  27  28
ATOM     28  C   UNL     1      -8.557  -7.000  17.377  0.00  0.00    +0.000 C 
ATOM     29  H   UNL     1      -8.479  -6.260  18.182  0.00  0.00    +0.000 HD
ATOM     30  H   UNL     1      -7.598  -7.080  16.854  0.00  0.00    +0.000 HD
BRANCH  28  31
ATOM     31  C   UNL     1      -8.941  -8.376  17.967  0.00  0.00    +0.000 C 
ATOM     32  H   UNL     1      -8.016  -8.931  18.171  0.00  0.00    +0.000 HD
BRANCH  31  33
ATOM     33  N   UNL     1      -9.621  -8.207  19.267  0.00  0.00    +0.000 NA
ATOM     34  H   UNL     1     -10.611  -8.429  19.177  0.00  0.00    +0.000 HD
ATOM     35  H   UNL     1      -9.573  -7.220  19.528  0.00  0.00    +0.000 HD
ENDBRANCH  31  33
BRANCH  31  36
ATOM     36  C   UNL     1      -9.809  -9.159  16.959  0.00  0.00    +0.000 C 
ATOM     37  H   UNL     1      -9.840  -8.615  16.005  0.00  0.00    +0.000 HD
ATOM     38  H   UNL     1     -10.844  -9.193  17.320  0.00  0.00    +0.000 HD
BRANCH  36  39
ATOM     39  C   UNL     1      -9.323 -10.561  16.670  0.00  0.00    +0.000 A 
ATOM     40  C   UNL     1      -8.958 -11.417  17.719  0.00  0.00    +0.000 A 
ATOM     41  C   UNL     1      -8.493 -12.706  17.452  0.00  0.00    +0.000 A 
ATOM     42  C   UNL     1      -8.397 -13.155  16.136  0.00  0.00    +0.000 A 
ATOM     43  C   UNL     1      -8.771 -12.319  15.088  0.00  0.00    +0.000 A 
ATOM     44  C   UNL     1      -9.235 -11.030  15.352  0.00  0.00    +0.000 A 
ATOM     45  H   UNL     1      -9.021 -11.084  18.752  0.00  0.00    +0.000 HD
ATOM     46  H   UNL     1      -8.203 -13.359  18.271  0.00  0.00    +0.000 HD
ATOM     47  H   UNL     1      -8.029 -14.156  15.929  0.00  0.00    +0.000 HD
ATOM     48  H   UNL     1      -8.697 -12.667  14.060  0.00  0.00    +0.000 HD
ATOM     49  H   UNL     1      -9.517 -10.390  14.520  0.00  0.00    +0.000 HD
ENDBRANCH  36  39
ENDBRANCH  31  36
ENDBRANCH  28  31
ENDBRANCH  27  28
ENDBRANCH   5  27
TORSDOF 8
ENDMDL
