MODEL 1
REMARK VINA RESULT:   -11.875      0.000      0.000
REMARK INTER + INTRA:         -11.875
REMARK INTER:                 -11.875
REMARK INTRA:                   0.000
REMARK UNBOUND:                 0.000
REMARK  Name = 
REMARK  0 active torsions:
REMARK  status: ('A' for Active; 'I' for Inactive)
REMARK                            x       y       z     vdW  Elec       q    Type
REMARK                         _______ _______ _______ _____ _____    ______ ____
ROOT
ATOM      1  O   UNL     1      -8.071 -10.749  20.102  0.00  0.00    +0.000 OA
ATOM      2  C   UNL     1      -8.408  -9.651  19.680  0.00  0.00    +0.000 C 
ATOM      3  N   UNL     1      -8.442  -8.542  20.482  0.00  0.00    +0.000 N 
ATOM      4  C   UNL     1      -8.834  -7.369  19.896  0.00  0.00    +0.000 C 
ATOM      5  O   UNL     1      -8.897  -6.320  20.523  0.00  0.00    +0.000 OA
ATOM      6  C   UNL     1      -9.092  -7.749  18.540  0.00  0.00    +0.000 A 
ATOM      7  C   UNL     1      -8.830  -9.151  18.407  0.00  0.00    +0.000 A 
ATOM      8  C   UNL     1      -9.015  -9.770  17.143  0.00  0.00    +0.000 A 
ATOM      9  C   UNL     1      -8.818 -11.107  16.799  0.00  0.00    +0.000 A 
ATOM     10  C   UNL     1      -8.412 -12.313  17.405  0.00  0.00    +0.000 A 
ATOM     11  C   UNL     1      -8.352 -13.490  16.646  0.00  0.00    +0.000 A 
ATOM     12  C   UNL     1      -8.689 -13.489  15.297  0.00  0.00    +0.000 A 
ATOM     13  C   UNL     1      -9.095 -12.314  14.663  0.00  0.00    +0.000 A 
ATOM     14  C   UNL     1      -9.152 -11.141  15.428  0.00  0.00    +0.000 A 
ATOM     15  N   UNL     1      -9.522  -9.859  15.033  0.00  0.00    +0.000 N 
ATOM     16  C   UNL     1      -9.435  -9.011  16.096  0.00  0.00    +0.000 A 
ATOM     17  C   UNL     1      -9.686  -7.668  16.224  0.00  0.00    +0.000 A 
ATOM     18  N   UNL     1     -10.106  -6.726  15.333  0.00  0.00    +0.000 N 
ATOM     19  C   UNL     1     -10.206  -5.493  15.973  0.00  0.00    +0.000 A 
ATOM     20  C   UNL     1     -10.598  -4.257  15.444  0.00  0.00    +0.000 A 
ATOM     21  C   UNL     1     -10.616  -3.155  16.301  0.00  0.00    +0.000 A 
ATOM     22  C   UNL     1     -10.256  -3.285  17.638  0.00  0.00    +0.000 A 
ATOM     23  C   UNL     1      -9.866  -4.526  18.159  0.00  0.00    +0.000 A 
ATOM     24  C   UNL     1      -9.835  -5.660  17.324  0.00  0.00    +0.000 A 
ATOM     25  C   UNL     1      -9.530  -7.017  17.406  0.00  0.00    +0.000 A 
ATOM     26  H   UNL     1      -8.190  -8.585  21.454  0.00  0.00    +0.000 HD
ATOM     27  H   UNL     1      -8.142 -12.359  18.454  0.00  0.00    +0.000 HD
ATOM     28  H   UNL     1      -8.037 -14.415  17.124  0.00  0.00    +0.000 HD
ATOM     29  H   UNL     1      -8.634 -14.414  14.729  0.00  0.00    +0.000 HD
ATOM     30  H   UNL     1      -9.358 -12.317  13.609  0.00  0.00    +0.000 HD
ATOM     31  H   UNL     1      -9.807  -9.613  14.096  0.00  0.00    +0.000 HD
ATOM     32  H   UNL     1     -10.316  -6.879  14.358  0.00  0.00    +0.000 HD
ATOM     33  H   UNL     1     -10.880  -4.149  14.401  0.00  0.00    +0.000 HD
ATOM     34  H   UNL     1     -10.916  -2.182  15.918  0.00  0.00    +0.000 HD
ATOM     35  H   UNL     1     -10.277  -2.417  18.291  0.00  0.00    +0.000 HD
ATOM     36  H   UNL     1      -9.595  -4.581  19.206  0.00  0.00    +0.000 HD
ENDROOT
TORSDOF 0
ENDMDL
MODEL 2
REMARK VINA RESULT:   -11.873      0.051      6.090
REMARK INTER + INTRA:         -11.873
REMARK INTER:                 -11.873
REMARK INTRA:                   0.000
REMARK UNBOUND:                 0.000
REMARK  Name = 
REMARK  0 active torsions:
REMARK  status: ('A' for Active; 'I' for Inactive)
REMARK                            x       y       z     vdW  Elec       q    Type
REMARK                         _______ _______ _______ _____ _____    ______ ____
ROOT
ATOM      1  O   UNL     1      -8.888  -6.324  20.551  0.00  0.00    +0.000 OA
ATOM      2  C   UNL     1      -8.824  -7.376  19.928  0.00  0.00    +0.000 C 
ATOM      3  N   UNL     1      -8.423  -8.546  20.515  0.00  0.00    +0.000 N 
ATOM      4  C   UNL     1      -8.392  -9.657  19.718  0.00  0.00    +0.000 C 
ATOM      5  O   UNL     1      -8.052 -10.753  20.143  0.00  0.00    +0.000 OA
ATOM      6  C   UNL     1      -8.824  -9.162  18.446  0.00  0.00    +0.000 A 
ATOM      7  C   UNL     1      -9.090  -7.760  18.575  0.00  0.00    +0.000 A 
ATOM      8  C   UNL     1      -9.536  -7.035  17.438  0.00  0.00    +0.000 A 
ATOM      9  C   UNL     1      -9.848  -5.678  17.347  0.00  0.00    +0.000 A 
ATOM     10  C   UNL     1      -9.881  -4.537  18.172  0.00  0.00    +0.000 A 
ATOM     11  C   UNL     1     -10.281  -3.303  17.641  0.00  0.00    +0.000 A 
ATOM     12  C   UNL     1     -10.649  -3.185  16.305  0.00  0.00    +0.000 A 
ATOM     13  C   UNL     1     -10.629  -4.294  15.458  0.00  0.00    +0.000 A 
ATOM     14  C   UNL     1     -10.229  -5.524  15.997  0.00  0.00    +0.000 A 
ATOM     15  N   UNL     1     -10.126  -6.761  15.366  0.00  0.00    +0.000 N 
ATOM     16  C   UNL     1      -9.698  -7.695  16.262  0.00  0.00    +0.000 A 
ATOM     17  C   UNL     1      -9.443  -9.038  16.138  0.00  0.00    +0.000 A 
ATOM     18  N   UNL     1      -9.533  -9.894  15.081  0.00  0.00    +0.000 N 
ATOM     19  C   UNL     1      -9.157 -11.172  15.485  0.00  0.00    +0.000 A 
ATOM     20  C   UNL     1      -9.099 -12.351  14.731  0.00  0.00    +0.000 A 
ATOM     21  C   UNL     1      -8.686 -13.519  15.374  0.00  0.00    +0.000 A 
ATOM     22  C   UNL     1      -8.342 -13.508  16.721  0.00  0.00    +0.000 A 
ATOM     23  C   UNL     1      -8.401 -12.323  17.468  0.00  0.00    +0.000 A 
ATOM     24  C   UNL     1      -8.815 -11.126  16.853  0.00  0.00    +0.000 A 
ATOM     25  C   UNL     1      -9.014  -9.787  17.186  0.00  0.00    +0.000 A 
ATOM     26  H   UNL     1      -8.165  -8.589  21.486  0.00  0.00    +0.000 HD
ATOM     27  H   UNL     1      -9.602  -4.583  19.220  0.00  0.00    +0.000 HD
ATOM     28  H   UNL     1     -10.303  -2.427  18.287  0.00  0.00    +0.000 HD
ATOM     29  H   UNL     1     -10.957  -2.218  15.916  0.00  0.00    +0.000 HD
ATOM     30  H   UNL     1     -10.917  -4.198  14.416  0.00  0.00    +0.000 HD
ATOM     31  H   UNL     1     -10.342  -6.922  14.393  0.00  0.00    +0.000 HD
ATOM     32  H   UNL     1      -9.825  -9.656  14.144  0.00  0.00    +0.000 HD
ATOM     33  H   UNL     1      -9.367 -12.367  13.679  0.00  0.00    +0.000 HD
ATOM     34  H   UNL     1      -8.632 -14.450  14.815  0.00  0.00    +0.000 HD
ATOM     35  H   UNL     1      -8.021 -14.426  17.206  0.00  0.00    +0.000 HD
ATOM     36  H   UNL     1      -8.123 -12.360  18.514  0.00  0.00    +0.000 HD
ENDROOT
TORSDOF 0
ENDMDL
MODEL 3
REMARK VINA RESULT:   -11.858      1.324      6.349
REMARK INTER + INTRA:         -11.858
REMARK INTER:                 -11.858
REMARK INTRA:                   0.000
REMARK UNBOUND:                 0.000
REMARK  Name = 
REMARK  0 active torsions:
REMARK  status: ('A' for Active; 'I' for Inactive)
REMARK                            x       y       z     vdW  Elec       q    Type
REMARK                         _______ _______ _______ _____ _____    ______ ____
ROOT
ATOM      1  O   UNL     1      -9.086  -3.796  19.760  0.00  0.00    +0.000 OA
ATOM      2  C   UNL     1      -9.030  -4.963  19.396  0.00  0.00    +0.000 C 
ATOM      3  N   UNL     1      -8.486  -5.944  20.180  0.00  0.00    +0.000 N 
ATOM      4  C   UNL     1      -8.481  -7.212  19.666  0.00  0.00    +0.000 C 
ATOM      5  O   UNL     1      -8.020  -8.162  20.285  0.00  0.00    +0.000 OA
ATOM      6  C   UNL     1      -9.096  -7.050  18.383  0.00  0.00    +0.000 A 
ATOM      7  C   UNL     1      -9.434  -5.668  18.217  0.00  0.00    +0.000 A 
ATOM      8  C   UNL     1     -10.061  -5.251  17.014  0.00  0.00    +0.000 A 
ATOM      9  C   UNL     1     -10.470  -3.967  16.653  0.00  0.00    +0.000 A 
ATOM     10  C   UNL     1     -10.475  -2.663  17.186  0.00  0.00    +0.000 A 
ATOM     11  C   UNL     1     -11.017  -1.606  16.441  0.00  0.00    +0.000 A 
ATOM     12  C   UNL     1     -11.552  -1.824  15.176  0.00  0.00    +0.000 A 
ATOM     13  C   UNL     1     -11.563  -3.102  14.616  0.00  0.00    +0.000 A 
ATOM     14  C   UNL     1     -11.021  -4.153  15.366  0.00  0.00    +0.000 A 
ATOM     15  N   UNL     1     -10.916  -5.500  15.033  0.00  0.00    +0.000 N 
ATOM     16  C   UNL     1     -10.322  -6.178  16.055  0.00  0.00    +0.000 A 
ATOM     17  C   UNL     1      -9.998  -7.502  16.214  0.00  0.00    +0.000 A 
ATOM     18  N   UNL     1     -10.161  -8.588  15.407  0.00  0.00    +0.000 N 
ATOM     19  C   UNL     1      -9.656  -9.719  16.042  0.00  0.00    +0.000 A 
ATOM     20  C   UNL     1      -9.615 -11.042  15.583  0.00  0.00    +0.000 A 
ATOM     21  C   UNL     1      -9.051 -12.008  16.418  0.00  0.00    +0.000 A 
ATOM     22  C   UNL     1      -8.547 -11.663  17.667  0.00  0.00    +0.000 A 
ATOM     23  C   UNL     1      -8.592 -10.337  18.119  0.00  0.00    +0.000 A 
ATOM     24  C   UNL     1      -9.154  -9.336  17.304  0.00  0.00    +0.000 A 
ATOM     25  C   UNL     1      -9.397  -7.964  17.340  0.00  0.00    +0.000 A 
ATOM     26  H   UNL     1      -8.110  -5.746  21.091  0.00  0.00    +0.000 HD
ATOM     27  H   UNL     1     -10.068  -2.448  18.168  0.00  0.00    +0.000 HD
ATOM     28  H   UNL     1     -11.016  -0.603  16.863  0.00  0.00    +0.000 HD
ATOM     29  H   UNL     1     -11.966  -0.988  14.617  0.00  0.00    +0.000 HD
ATOM     30  H   UNL     1     -11.982  -3.267  13.627  0.00  0.00    +0.000 HD
ATOM     31  H   UNL     1     -11.238  -5.896  14.162  0.00  0.00    +0.000 HD
ATOM     32  H   UNL     1     -10.579  -8.591  14.488  0.00  0.00    +0.000 HD
ATOM     33  H   UNL     1     -10.008 -11.318  14.609  0.00  0.00    +0.000 HD
ATOM     34  H   UNL     1      -9.006 -13.043  16.089  0.00  0.00    +0.000 HD
ATOM     35  H   UNL     1      -8.111 -12.427  18.305  0.00  0.00    +0.000 HD
ATOM     36  H   UNL     1      -8.186 -10.114  19.099  0.00  0.00    +0.000 HD
ENDROOT
TORSDOF 0
ENDMDL
MODEL 4
REMARK VINA RESULT:   -11.855      1.320      2.019
REMARK INTER + INTRA:         -11.855
REMARK INTER:                 -11.855
REMARK INTRA:                   0.000
REMARK UNBOUND:                 0.000
REMARK  Name = 
REMARK  0 active torsions:
REMARK  status: ('A' for Active; 'I' for Inactive)
REMARK                            x       y       z     vdW  Elec       q    Type
REMARK                         _______ _______ _______ _____ _____    ______ ____
ROOT
ATOM      1  O   UNL     1      -8.011  -8.146  20.285  0.00  0.00    +0.000 OA
ATOM      2  C   UNL     1      -8.472  -7.203  19.655  0.00  0.00    +0.000 C 
ATOM      3  N   UNL     1      -8.482  -5.929  20.155  0.00  0.00    +0.000 N 
ATOM      4  C   UNL     1      -9.023  -4.958  19.358  0.00  0.00    +0.000 C 
ATOM      5  O   UNL     1      -9.079  -3.787  19.708  0.00  0.00    +0.000 OA
ATOM      6  C   UNL     1      -9.422  -5.678  18.187  0.00  0.00    +0.000 A 
ATOM      7  C   UNL     1      -9.083  -7.058  18.369  0.00  0.00    +0.000 A 
ATOM      8  C   UNL     1      -9.382  -7.984  17.335  0.00  0.00    +0.000 A 
ATOM      9  C   UNL     1      -9.139  -9.357  17.309  0.00  0.00    +0.000 A 
ATOM     10  C   UNL     1      -8.579 -10.354  18.132  0.00  0.00    +0.000 A 
ATOM     11  C   UNL     1      -8.534 -11.682  17.686  0.00  0.00    +0.000 A 
ATOM     12  C   UNL     1      -9.036 -12.036  16.438  0.00  0.00    +0.000 A 
ATOM     13  C   UNL     1      -9.597 -11.075  15.596  0.00  0.00    +0.000 A 
ATOM     14  C   UNL     1      -9.638  -9.750  16.048  0.00  0.00    +0.000 A 
ATOM     15  N   UNL     1     -10.141  -8.624  15.403  0.00  0.00    +0.000 N 
ATOM     16  C   UNL     1      -9.980  -7.531  16.202  0.00  0.00    +0.000 A 
ATOM     17  C   UNL     1     -10.304  -6.209  16.027  0.00  0.00    +0.000 A 
ATOM     18  N   UNL     1     -10.895  -5.539  14.997  0.00  0.00    +0.000 N 
ATOM     19  C   UNL     1     -10.999  -4.189  15.320  0.00  0.00    +0.000 A 
ATOM     20  C   UNL     1     -11.538  -3.142  14.562  0.00  0.00    +0.000 A 
ATOM     21  C   UNL     1     -11.524  -1.859  15.113  0.00  0.00    +0.000 A 
ATOM     22  C   UNL     1     -10.992  -1.633  16.378  0.00  0.00    +0.000 A 
ATOM     23  C   UNL     1     -10.456  -2.687  17.131  0.00  0.00    +0.000 A 
ATOM     24  C   UNL     1     -10.452  -3.993  16.606  0.00  0.00    +0.000 A 
ATOM     25  C   UNL     1     -10.046  -5.274  16.978  0.00  0.00    +0.000 A 
ATOM     26  H   UNL     1      -8.108  -5.714  21.064  0.00  0.00    +0.000 HD
ATOM     27  H   UNL     1      -8.177 -10.123  19.112  0.00  0.00    +0.000 HD
ATOM     28  H   UNL     1      -8.099 -12.445  18.330  0.00  0.00    +0.000 HD
ATOM     29  H   UNL     1      -8.989 -13.073  16.115  0.00  0.00    +0.000 HD
ATOM     30  H   UNL     1      -9.988 -11.356  14.623  0.00  0.00    +0.000 HD
ATOM     31  H   UNL     1     -10.556  -8.634  14.483  0.00  0.00    +0.000 HD
ATOM     32  H   UNL     1     -11.214  -5.942  14.129  0.00  0.00    +0.000 HD
ATOM     33  H   UNL     1     -11.954  -3.312  13.573  0.00  0.00    +0.000 HD
ATOM     34  H   UNL     1     -11.934  -1.027  14.548  0.00  0.00    +0.000 HD
ATOM     35  H   UNL     1     -10.990  -0.629  16.793  0.00  0.00    +0.000 HD
ATOM     36  H   UNL     1     -10.053  -2.465  18.112  0.00  0.00    +0.000 HD
ENDROOT
TORSDOF 0
ENDMDL
MODEL 5
REMARK VINA RESULT:   -11.743      2.289      3.834
REMARK INTER + INTRA:         -11.743
REMARK INTER:                 -11.743
REMARK INTRA:                   0.000
REMARK UNBOUND:                 0.000
REMARK  Name = 
REMARK  0 active torsions:
REMARK  status: ('A' for Active; 'I' for Inactive)
REMARK                            x       y       z     vdW  Elec       q    Type
REMARK                         _______ _______ _______ _____ _____    ______ ____
ROOT
ATOM      1  O   UNL     1      -9.331 -10.619  13.919  0.00  0.00    +0.000 OA
ATOM      2  C   UNL     1      -9.199  -9.722  14.742  0.00  0.00    +0.000 C 
ATOM      3  N   UNL     1      -9.232  -8.400  14.388  0.00  0.00    +0.000 N 
ATOM      4  C   UNL     1      -9.074  -7.489  15.396  0.00  0.00    +0.000 C 
ATOM      5  O   UNL     1      -9.090  -6.283  15.190  0.00  0.00    +0.000 OA
ATOM      6  C   UNL     1      -8.915  -8.308  16.559  0.00  0.00    +0.000 A 
ATOM      7  C   UNL     1      -8.992  -9.681  16.158  0.00  0.00    +0.000 A 
ATOM      8  C   UNL     1      -8.861 -10.696  17.142  0.00  0.00    +0.000 A 
ATOM      9  C   UNL     1      -8.905 -12.079  16.967  0.00  0.00    +0.000 A 
ATOM     10  C   UNL     1      -9.070 -13.015  15.926  0.00  0.00    +0.000 A 
ATOM     11  C   UNL     1      -9.048 -14.387  16.212  0.00  0.00    +0.000 A 
ATOM     12  C   UNL     1      -8.864 -14.844  17.513  0.00  0.00    +0.000 A 
ATOM     13  C   UNL     1      -8.697 -13.946  18.568  0.00  0.00    +0.000 A 
ATOM     14  C   UNL     1      -8.721 -12.576  18.275  0.00  0.00    +0.000 A 
ATOM     15  N   UNL     1      -8.579 -11.496  19.141  0.00  0.00    +0.000 N 
ATOM     16  C   UNL     1      -8.667 -10.333  18.437  0.00  0.00    +0.000 A 
ATOM     17  C   UNL     1      -8.594  -9.017  18.821  0.00  0.00    +0.000 A 
ATOM     18  N   UNL     1      -8.410  -8.428  20.037  0.00  0.00    +0.000 N 
ATOM     19  C   UNL     1      -8.413  -7.044  19.887  0.00  0.00    +0.000 A 
ATOM     20  C   UNL     1      -8.257  -6.052  20.864  0.00  0.00    +0.000 A 
ATOM     21  C   UNL     1      -8.300  -4.718  20.456  0.00  0.00    +0.000 A 
ATOM     22  C   UNL     1      -8.490  -4.388  19.118  0.00  0.00    +0.000 A 
ATOM     23  C   UNL     1      -8.644  -5.386  18.147  0.00  0.00    +0.000 A 
ATOM     24  C   UNL     1      -8.608  -6.743  18.522  0.00  0.00    +0.000 A 
ATOM     25  C   UNL     1      -8.710  -8.000  17.930  0.00  0.00    +0.000 A 
ATOM     26  H   UNL     1      -9.368  -8.111  13.435  0.00  0.00    +0.000 HD
ATOM     27  H   UNL     1      -9.216 -12.703  14.898  0.00  0.00    +0.000 HD
ATOM     28  H   UNL     1      -9.177 -15.102  15.401  0.00  0.00    +0.000 HD
ATOM     29  H   UNL     1      -8.851 -15.913  17.710  0.00  0.00    +0.000 HD
ATOM     30  H   UNL     1      -8.553 -14.307  19.582  0.00  0.00    +0.000 HD
ATOM     31  H   UNL     1      -8.436 -11.582  20.136  0.00  0.00    +0.000 HD
ATOM     32  H   UNL     1      -8.288  -8.904  20.918  0.00  0.00    +0.000 HD
ATOM     33  H   UNL     1      -8.109  -6.304  21.910  0.00  0.00    +0.000 HD
ATOM     34  H   UNL     1      -8.183  -3.927  21.192  0.00  0.00    +0.000 HD
ATOM     35  H   UNL     1      -8.520  -3.344  18.817  0.00  0.00    +0.000 HD
ATOM     36  H   UNL     1      -8.789  -5.083  17.116  0.00  0.00    +0.000 HD
ENDROOT
TORSDOF 0
ENDMDL
MODEL 6
REMARK VINA RESULT:   -11.716      2.284      7.085
REMARK INTER + INTRA:         -11.716
REMARK INTER:                 -11.716
REMARK INTRA:                   0.000
REMARK UNBOUND:                 0.000
REMARK  Name = 
REMARK  0 active torsions:
REMARK  status: ('A' for Active; 'I' for Inactive)
REMARK                            x       y       z     vdW  Elec       q    Type
REMARK                         _______ _______ _______ _____ _____    ______ ____
ROOT
ATOM      1  O   UNL     1      -9.087  -6.301  15.200  0.00  0.00    +0.000 OA
ATOM      2  C   UNL     1      -9.068  -7.506  15.415  0.00  0.00    +0.000 C 
ATOM      3  N   UNL     1      -9.224  -8.426  14.414  0.00  0.00    +0.000 N 
ATOM      4  C   UNL     1      -9.184  -9.745  14.778  0.00  0.00    +0.000 C 
ATOM      5  O   UNL     1      -9.310 -10.648  13.961  0.00  0.00    +0.000 OA
ATOM      6  C   UNL     1      -8.978  -9.690  16.193  0.00  0.00    +0.000 A 
ATOM      7  C   UNL     1      -8.907  -8.315  16.585  0.00  0.00    +0.000 A 
ATOM      8  C   UNL     1      -8.705  -7.997  17.954  0.00  0.00    +0.000 A 
ATOM      9  C   UNL     1      -8.606  -6.736  18.543  0.00  0.00    +0.000 A 
ATOM     10  C   UNL     1      -8.646  -5.379  18.165  0.00  0.00    +0.000 A 
ATOM     11  C   UNL     1      -8.493  -4.380  19.135  0.00  0.00    +0.000 A 
ATOM     12  C   UNL     1      -8.302  -4.706  20.474  0.00  0.00    +0.000 A 
ATOM     13  C   UNL     1      -8.258  -6.038  20.885  0.00  0.00    +0.000 A 
ATOM     14  C   UNL     1      -8.410  -7.032  19.910  0.00  0.00    +0.000 A 
ATOM     15  N   UNL     1      -8.404  -8.415  20.064  0.00  0.00    +0.000 N 
ATOM     16  C   UNL     1      -8.585  -9.010  18.852  0.00  0.00    +0.000 A 
ATOM     17  C   UNL     1      -8.654 -10.329  18.476  0.00  0.00    +0.000 A 
ATOM     18  N   UNL     1      -8.562 -11.489  19.185  0.00  0.00    +0.000 N 
ATOM     19  C   UNL     1      -8.699 -12.573  18.322  0.00  0.00    +0.000 A 
ATOM     20  C   UNL     1      -8.671 -13.942  18.618  0.00  0.00    +0.000 A 
ATOM     21  C   UNL     1      -8.833 -14.843  17.564  0.00  0.00    +0.000 A 
ATOM     22  C   UNL     1      -9.018 -14.390  16.262  0.00  0.00    +0.000 A 
ATOM     23  C   UNL     1      -9.046 -13.019  15.975  0.00  0.00    +0.000 A 
ATOM     24  C   UNL     1      -8.885 -12.081  17.013  0.00  0.00    +0.000 A 
ATOM     25  C   UNL     1      -8.846 -10.698  17.184  0.00  0.00    +0.000 A 
ATOM     26  H   UNL     1      -9.359  -8.150  13.457  0.00  0.00    +0.000 HD
ATOM     27  H   UNL     1      -8.793  -5.080  17.133  0.00  0.00    +0.000 HD
ATOM     28  H   UNL     1      -8.525  -3.335  18.833  0.00  0.00    +0.000 HD
ATOM     29  H   UNL     1      -8.186  -3.912  21.209  0.00  0.00    +0.000 HD
ATOM     30  H   UNL     1      -8.109  -6.288  21.932  0.00  0.00    +0.000 HD
ATOM     31  H   UNL     1      -8.280  -8.887  20.948  0.00  0.00    +0.000 HD
ATOM     32  H   UNL     1      -8.418 -11.570  20.181  0.00  0.00    +0.000 HD
ATOM     33  H   UNL     1      -8.526 -14.301  19.632  0.00  0.00    +0.000 HD
ATOM     34  H   UNL     1      -8.814 -15.911  17.763  0.00  0.00    +0.000 HD
ATOM     35  H   UNL     1      -9.143 -15.105  15.453  0.00  0.00    +0.000 HD
ATOM     36  H   UNL     1      -9.193 -12.711  14.946  0.00  0.00    +0.000 HD
ENDROOT
TORSDOF 0
ENDMDL
MODEL 7
REMARK VINA RESULT:   -10.905      2.259      3.953
REMARK INTER + INTRA:         -10.905
REMARK INTER:                 -10.905
REMARK INTRA:                   0.000
REMARK UNBOUND:                 0.000
REMARK  Name = 
REMARK  0 active torsions:
REMARK  status: ('A' for Active; 'I' for Inactive)
REMARK                            x       y       z     vdW  Elec       q    Type
REMARK                         _______ _______ _______ _____ _____    ______ ____
ROOT
ATOM      1  O   UNL     1     -11.112  -8.881  15.477  0.00  0.00    +0.000 OA
ATOM      2  C   UNL     1     -10.826  -7.890  16.137  0.00  0.00    +0.000 C 
ATOM      3  N   UNL     1     -11.285  -6.642  15.811  0.00  0.00    +0.000 N 
ATOM      4  C   UNL     1     -10.898  -5.612  16.625  0.00  0.00    +0.000 C 
ATOM      5  O   UNL     1     -11.254  -4.459  16.425  0.00  0.00    +0.000 OA
ATOM      6  C   UNL     1     -10.082  -6.258  17.608  0.00  0.00    +0.000 A 
ATOM      7  C   UNL     1     -10.038  -7.658  17.309  0.00  0.00    +0.000 A 
ATOM      8  C   UNL     1      -9.284  -8.519  18.148  0.00  0.00    +0.000 A 
ATOM      9  C   UNL     1      -9.110  -9.899  18.037  0.00  0.00    +0.000 A 
ATOM     10  C   UNL     1      -9.512 -10.958  17.198  0.00  0.00    +0.000 A 
ATOM     11  C   UNL     1      -9.082 -12.264  17.469  0.00  0.00    +0.000 A 
ATOM     12  C   UNL     1      -8.259 -12.535  18.557  0.00  0.00    +0.000 A 
ATOM     13  C   UNL     1      -7.842 -11.512  19.409  0.00  0.00    +0.000 A 
ATOM     14  C   UNL     1      -8.276 -10.209  19.133  0.00  0.00    +0.000 A 
ATOM     15  N   UNL     1      -8.001  -9.033  19.824  0.00  0.00    +0.000 N 
ATOM     16  C   UNL     1      -8.627  -7.988  19.212  0.00  0.00    +0.000 A 
ATOM     17  C   UNL     1      -8.670  -6.646  19.499  0.00  0.00    +0.000 A 
ATOM     18  N   UNL     1      -8.103  -5.904  20.492  0.00  0.00    +0.000 N 
ATOM     19  C   UNL     1      -8.460  -4.568  20.334  0.00  0.00    +0.000 A 
ATOM     20  C   UNL     1      -8.105  -3.463  21.120  0.00  0.00    +0.000 A 
ATOM     21  C   UNL     1      -8.599  -2.211  20.750  0.00  0.00    +0.000 A 
ATOM     22  C   UNL     1      -9.416  -2.068  19.633  0.00  0.00    +0.000 A 
ATOM     23  C   UNL     1      -9.765  -3.178  18.852  0.00  0.00    +0.000 A 
ATOM     24  C   UNL     1      -9.287  -4.457  19.196  0.00  0.00    +0.000 A 
ATOM     25  C   UNL     1      -9.371  -5.770  18.736  0.00  0.00    +0.000 A 
ATOM     26  H   UNL     1     -11.879  -6.488  15.015  0.00  0.00    +0.000 HD
ATOM     27  H   UNL     1     -10.152 -10.791  16.338  0.00  0.00    +0.000 HD
ATOM     28  H   UNL     1      -9.398 -13.074  16.815  0.00  0.00    +0.000 HD
ATOM     29  H   UNL     1      -7.939 -13.557  18.747  0.00  0.00    +0.000 HD
ATOM     30  H   UNL     1      -7.200 -11.728  20.258  0.00  0.00    +0.000 HD
ATOM     31  H   UNL     1      -7.424  -8.982  20.651  0.00  0.00    +0.000 HD
ATOM     32  H   UNL     1      -7.514  -6.251  21.235  0.00  0.00    +0.000 HD
ATOM     33  H   UNL     1      -7.469  -3.568  21.993  0.00  0.00    +0.000 HD
ATOM     34  H   UNL     1      -8.341  -1.336  21.341  0.00  0.00    +0.000 HD
ATOM     35  H   UNL     1      -9.791  -1.086  19.359  0.00  0.00    +0.000 HD
ATOM     36  H   UNL     1     -10.403  -3.021  17.991  0.00  0.00    +0.000 HD
ENDROOT
TORSDOF 0
ENDMDL
MODEL 8
REMARK VINA RESULT:   -10.900      2.257      7.204
REMARK INTER + INTRA:         -10.900
REMARK INTER:                 -10.900
REMARK INTRA:                   0.000
REMARK UNBOUND:                 0.000
REMARK  Name = 
REMARK  0 active torsions:
REMARK  status: ('A' for Active; 'I' for Inactive)
REMARK                            x       y       z     vdW  Elec       q    Type
REMARK                         _______ _______ _______ _____ _____    ______ ____
ROOT
ATOM      1  O   UNL     1     -11.253  -4.506  16.409  0.00  0.00    +0.000 OA
ATOM      2  C   UNL     1     -10.899  -5.659  16.615  0.00  0.00    +0.000 C 
ATOM      3  N   UNL     1     -11.298  -6.695  15.814  0.00  0.00    +0.000 N 
ATOM      4  C   UNL     1     -10.837  -7.941  16.143  0.00  0.00    +0.000 C 
ATOM      5  O   UNL     1     -11.131  -8.935  15.493  0.00  0.00    +0.000 OA
ATOM      6  C   UNL     1     -10.036  -7.699  17.305  0.00  0.00    +0.000 A 
ATOM      7  C   UNL     1     -10.073  -6.297  17.594  0.00  0.00    +0.000 A 
ATOM      8  C   UNL     1      -9.349  -5.804  18.711  0.00  0.00    +0.000 A 
ATOM      9  C   UNL     1      -9.252  -4.489  19.165  0.00  0.00    +0.000 A 
ATOM     10  C   UNL     1      -9.727  -3.207  18.823  0.00  0.00    +0.000 A 
ATOM     11  C   UNL     1      -9.360  -2.097  19.595  0.00  0.00    +0.000 A 
ATOM     12  C   UNL     1      -8.530  -2.239  20.703  0.00  0.00    +0.000 A 
ATOM     13  C   UNL     1      -8.041  -3.493  21.072  0.00  0.00    +0.000 A 
ATOM     14  C   UNL     1      -8.411  -4.598  20.294  0.00  0.00    +0.000 A 
ATOM     15  N   UNL     1      -8.059  -5.934  20.454  0.00  0.00    +0.000 N 
ATOM     16  C   UNL     1      -8.641  -6.679  19.472  0.00  0.00    +0.000 A 
ATOM     17  C   UNL     1      -8.605  -8.023  19.194  0.00  0.00    +0.000 A 
ATOM     18  N   UNL     1      -7.976  -9.068  19.803  0.00  0.00    +0.000 N 
ATOM     19  C   UNL     1      -8.264 -10.246  19.120  0.00  0.00    +0.000 A 
ATOM     20  C   UNL     1      -7.833 -11.550  19.395  0.00  0.00    +0.000 A 
ATOM     21  C   UNL     1      -8.266 -12.574  18.550  0.00  0.00    +0.000 A 
ATOM     22  C   UNL     1      -9.099 -12.303  17.470  0.00  0.00    +0.000 A 
ATOM     23  C   UNL     1      -9.526 -10.995  17.203  0.00  0.00    +0.000 A 
ATOM     24  C   UNL     1      -9.109  -9.937  18.034  0.00  0.00    +0.000 A 
ATOM     25  C   UNL     1      -9.276  -8.558  18.142  0.00  0.00    +0.000 A 
ATOM     26  H   UNL     1     -11.899  -6.551  15.022  0.00  0.00    +0.000 HD
ATOM     27  H   UNL     1     -10.376  -3.051  17.968  0.00  0.00    +0.000 HD
ATOM     28  H   UNL     1      -9.732  -1.112  19.322  0.00  0.00    +0.000 HD
ATOM     29  H   UNL     1      -8.259  -1.363  21.287  0.00  0.00    +0.000 HD
ATOM     30  H   UNL     1      -7.394  -3.599  21.938  0.00  0.00    +0.000 HD
ATOM     31  H   UNL     1      -7.462  -6.280  21.191  0.00  0.00    +0.000 HD
ATOM     32  H   UNL     1      -7.389  -9.015  20.623  0.00  0.00    +0.000 HD
ATOM     33  H   UNL     1      -7.182 -11.768  20.236  0.00  0.00    +0.000 HD
ATOM     34  H   UNL     1      -7.947 -13.596  18.738  0.00  0.00    +0.000 HD
ATOM     35  H   UNL     1      -9.427 -13.112  16.823  0.00  0.00    +0.000 HD
ATOM     36  H   UNL     1     -10.176 -10.830  16.352  0.00  0.00    +0.000 HD
ENDROOT
TORSDOF 0
ENDMDL
MODEL 9
REMARK VINA RESULT:   -10.184      2.981      5.109
REMARK INTER + INTRA:         -10.184
REMARK INTER:                 -10.184
REMARK INTRA:                   0.000
REMARK UNBOUND:                 0.000
REMARK  Name = 
REMARK  0 active torsions:
REMARK  status: ('A' for Active; 'I' for Inactive)
REMARK                            x       y       z     vdW  Elec       q    Type
REMARK                         _______ _______ _______ _____ _____    ______ ____
ROOT
ATOM      1  O   UNL     1     -11.655  -5.495  15.658  0.00  0.00    +0.000 OA
ATOM      2  C   UNL     1     -11.111  -4.904  16.581  0.00  0.00    +0.000 C 
ATOM      3  N   UNL     1     -11.278  -3.560  16.781  0.00  0.00    +0.000 N 
ATOM      4  C   UNL     1     -10.619  -3.010  17.848  0.00  0.00    +0.000 C 
ATOM      5  O   UNL     1     -10.702  -1.819  18.117  0.00  0.00    +0.000 OA
ATOM      6  C   UNL     1      -9.932  -4.127  18.421  0.00  0.00    +0.000 A 
ATOM      7  C   UNL     1     -10.234  -5.291  17.644  0.00  0.00    +0.000 A 
ATOM      8  C   UNL     1      -9.665  -6.537  18.016  0.00  0.00    +0.000 A 
ATOM      9  C   UNL     1      -9.828  -7.779  17.403  0.00  0.00    +0.000 A 
ATOM     10  C   UNL     1     -10.509  -8.342  16.305  0.00  0.00    +0.000 A 
ATOM     11  C   UNL     1     -10.387  -9.712  16.037  0.00  0.00    +0.000 A 
ATOM     12  C   UNL     1      -9.600 -10.531  16.840  0.00  0.00    +0.000 A 
ATOM     13  C   UNL     1      -8.911 -10.008  17.935  0.00  0.00    +0.000 A 
ATOM     14  C   UNL     1      -9.038  -8.638  18.198  0.00  0.00    +0.000 A 
ATOM     15  N   UNL     1      -8.460  -7.887  19.216  0.00  0.00    +0.000 N 
ATOM     16  C   UNL     1      -8.850  -6.587  19.102  0.00  0.00    +0.000 A 
ATOM     17  C   UNL     1      -8.560  -5.471  19.848  0.00  0.00    +0.000 A 
ATOM     18  N   UNL     1      -7.786  -5.285  20.955  0.00  0.00    +0.000 N 
ATOM     19  C   UNL     1      -7.825  -3.944  21.328  0.00  0.00    +0.000 A 
ATOM     20  C   UNL     1      -7.181  -3.310  22.399  0.00  0.00    +0.000 A 
ATOM     21  C   UNL     1      -7.382  -1.939  22.564  0.00  0.00    +0.000 A 
ATOM     22  C   UNL     1      -8.196  -1.227  21.689  0.00  0.00    +0.000 A 
ATOM     23  C   UNL     1      -8.835  -1.869  20.620  0.00  0.00    +0.000 A 
ATOM     24  C   UNL     1      -8.657  -3.252  20.423  0.00  0.00    +0.000 A 
ATOM     25  C   UNL     1      -9.071  -4.251  19.544  0.00  0.00    +0.000 A 
ATOM     26  H   UNL     1     -11.857  -3.002  16.178  0.00  0.00    +0.000 HD
ATOM     27  H   UNL     1     -11.133  -7.741  15.653  0.00  0.00    +0.000 HD
ATOM     28  H   UNL     1     -10.918 -10.137  15.187  0.00  0.00    +0.000 HD
ATOM     29  H   UNL     1      -9.521 -11.591  16.612  0.00  0.00    +0.000 HD
ATOM     30  H   UNL     1      -8.298 -10.651  18.559  0.00  0.00    +0.000 HD
ATOM     31  H   UNL     1      -7.847  -8.267  19.924  0.00  0.00    +0.000 HD
ATOM     32  H   UNL     1      -7.260  -5.995  21.441  0.00  0.00    +0.000 HD
ATOM     33  H   UNL     1      -6.545  -3.861  23.086  0.00  0.00    +0.000 HD
ATOM     34  H   UNL     1      -6.896  -1.420  23.386  0.00  0.00    +0.000 HD
ATOM     35  H   UNL     1      -8.341  -0.159  21.831  0.00  0.00    +0.000 HD
ATOM     36  H   UNL     1      -9.459  -1.275  19.962  0.00  0.00    +0.000 HD
ENDROOT
TORSDOF 0
ENDMDL
