
 OpenBabel01112422263D

 60 66  0  0  1  0  0  0  0  0999 V2000
    4.2970  -11.6671    0.8973 C   0  0  0  0  0  0  0  0  0  0  0  0
    3.5900  -10.8322   -0.0679 N   0  0  0  0  0  0  0  0  0  0  0  0
    2.2419  -11.3525   -0.4006 C   0  0  0  0  0  0  0  0  0  0  0  0
    1.2829  -10.3679    0.2374 C   0  0  2  0  0  0  0  0  0  0  0  0
   -0.1142  -10.2288   -0.3619 C   0  0  0  0  0  0  0  0  0  0  0  0
   -0.6401   -8.8706   -0.1696 N   0  0  0  0  0  0  0  0  0  0  0  0
   -0.0335   -7.9099    0.6119 C   0  0  0  0  0  0  0  0  0  0  0  0
   -1.0113   -6.9884    0.9329 C   0  0  0  0  0  0  0  0  0  0  0  0
   -0.8315   -5.9656    1.9037 C   0  0  0  0  0  0  0  0  0  0  0  0
   -1.5678   -5.6786    2.9914 C   0  0  0  0  0  0  0  0  0  0  0  0
   -2.7468   -6.2971    3.4391 C   0  0  0  0  0  0  0  0  0  0  0  0
   -2.8983   -7.6506    3.6818 C   0  0  0  0  0  0  0  0  0  0  0  0
   -4.1586   -7.7769    4.2173 N   0  0  0  0  0  0  0  0  0  0  0  0
   -4.3337   -8.3754    5.5304 C   0  0  0  0  0  0  0  0  0  0  0  0
   -4.9226   -6.7259    3.7439 C   0  0  0  0  0  0  0  0  0  0  0  0
   -6.2874   -6.5720    3.4830 C   0  0  0  0  0  0  0  0  0  0  0  0
   -6.7253   -5.2820    3.1551 C   0  0  0  0  0  0  0  0  0  0  0  0
   -5.8632   -4.1863    3.2173 C   0  0  0  0  0  0  0  0  0  0  0  0
   -4.4987   -4.3681    3.4444 C   0  0  0  0  0  0  0  0  0  0  0  0
   -4.0169   -5.6798    3.5803 C   0  0  0  0  0  0  0  0  0  0  0  0
   -0.8855   -4.5982    3.7314 C   0  0  0  0  0  0  0  0  0  0  0  0
   -1.3286   -3.9798    4.6840 O   0  0  0  0  0  0  0  0  0  0  0  0
    0.2847   -4.3843    3.1216 N   0  0  0  0  0  0  0  0  0  0  0  0
    0.3122   -5.0287    1.9394 C   0  0  0  0  0  0  0  0  0  0  0  0
    1.1218   -4.8168    1.0525 O   0  0  0  0  0  0  0  0  0  0  0  0
   -2.1235   -7.2405    0.0647 C   0  0  0  0  0  0  0  0  0  0  0  0
   -3.3688   -6.6197   -0.1709 C   0  0  0  0  0  0  0  0  0  0  0  0
   -4.1198   -6.9961   -1.2917 C   0  0  0  0  0  0  0  0  0  0  0  0
   -3.6607   -7.9810   -2.1617 C   0  0  0  0  0  0  0  0  0  0  0  0
   -2.4977   -8.6997   -1.8787 C   0  0  0  0  0  0  0  0  0  0  0  0
   -1.7653   -8.3314   -0.7410 C   0  0  0  0  0  0  0  0  0  0  0  0
    1.4124   -8.0104    0.9654 C   0  0  0  0  0  0  0  0  0  0  0  0
    2.0458   -9.0648    0.0786 C   0  0  1  0  0  0  0  0  0  0  0  0
    3.4569   -9.4506    0.4320 C   0  0  0  0  0  0  0  0  0  0  0  0
    3.6294  -12.0759    1.6641 H   0  0  0  0  0  0  0  0  0  0  0  0
    5.0862  -11.1045    1.4112 H   0  0  0  0  0  0  0  0  0  0  0  0
    4.7893  -12.4939    0.3779 H   0  0  0  0  0  0  0  0  0  0  0  0
    2.0662  -12.3779   -0.0572 H   0  0  0  0  0  0  0  0  0  0  0  0
    2.1294  -11.3479   -1.4911 H   0  0  0  0  0  0  0  0  0  0  0  0
    1.1872  -10.6083    1.3085 H   0  0  0  0  0  0  0  0  0  0  0  0
   -0.8116  -10.9035    0.1527 H   0  0  0  0  0  0  0  0  0  0  0  0
   -0.1388  -10.4450   -1.4323 H   0  0  0  0  0  0  0  0  0  0  0  0
   -2.2051   -8.4818    3.6616 H   0  0  0  0  0  0  0  0  0  0  0  0
   -4.3539   -9.4600    5.4319 H   0  0  0  0  0  0  0  0  0  0  0  0
   -5.2434   -7.9914    5.9964 H   0  0  0  0  0  0  0  0  0  0  0  0
   -3.4746   -8.0708    6.1446 H   0  0  0  0  0  0  0  0  0  0  0  0
   -6.9639   -7.4190    3.4649 H   0  0  0  0  0  0  0  0  0  0  0  0
   -7.7605   -5.1251    2.8615 H   0  0  0  0  0  0  0  0  0  0  0  0
   -6.2401   -3.1832    3.0360 H   0  0  0  0  0  0  0  0  0  0  0  0
   -3.8199   -3.5207    3.4468 H   0  0  0  0  0  0  0  0  0  0  0  0
    0.9158   -3.6438    3.3706 H   0  0  0  0  0  0  0  0  0  0  0  0
   -3.7305   -5.8275    0.4782 H   0  0  0  0  0  0  0  0  0  0  0  0
   -5.0550   -6.4848   -1.5031 H   0  0  0  0  0  0  0  0  0  0  0  0
   -4.2177   -8.1989   -3.0703 H   0  0  0  0  0  0  0  0  0  0  0  0
   -2.1475   -9.4741   -2.5521 H   0  0  0  0  0  0  0  0  0  0  0  0
    1.5167   -8.2527    2.0286 H   0  0  0  0  0  0  0  0  0  0  0  0
    1.9261   -7.0644    0.7828 H   0  0  0  0  0  0  0  0  0  0  0  0
    2.0111   -8.7407   -0.9745 H   0  0  0  0  0  0  0  0  0  0  0  0
    4.1792   -8.7908   -0.0604 H   0  0  0  0  0  0  0  0  0  0  0  0
    3.6097   -9.3763    1.5152 H   0  0  0  0  0  0  0  0  0  0  0  0
  1  2  1  0  0  0  0
  1 35  1  0  0  0  0
  1 36  1  0  0  0  0
  1 37  1  0  0  0  0
  2  3  1  0  0  0  0
  2 34  1  0  0  0  0
  3  4  1  0  0  0  0
  3 38  1  0  0  0  0
  3 39  1  0  0  0  0
  4  5  1  0  0  0  0
  4 33  1  0  0  0  0
  4 40  1  1  0  0  0
  5  6  1  0  0  0  0
  5 41  1  0  0  0  0
  5 42  1  0  0  0  0
  6  7  1  0  0  0  0
  6 31  1  0  0  0  0
  7  8  2  0  0  0  0
  7 32  1  0  0  0  0
  8  9  1  0  0  0  0
  8 26  1  0  0  0  0
  9 10  2  0  0  0  0
  9 24  1  0  0  0  0
 10 11  1  0  0  0  0
 10 21  1  0  0  0  0
 11 12  2  0  0  0  0
 11 20  1  0  0  0  0
 12 13  1  0  0  0  0
 12 43  1  0  0  0  0
 13 14  1  0  0  0  0
 13 15  1  0  0  0  0
 14 44  1  0  0  0  0
 14 45  1  0  0  0  0
 14 46  1  0  0  0  0
 15 16  1  0  0  0  0
 15 20  2  0  0  0  0
 16 17  2  0  0  0  0
 16 47  1  0  0  0  0
 17 18  1  0  0  0  0
 17 48  1  0  0  0  0
 18 19  2  0  0  0  0
 18 49  1  0  0  0  0
 19 20  1  0  0  0  0
 19 50  1  0  0  0  0
 21 22  2  0  0  0  0
 21 23  1  0  0  0  0
 23 24  1  0  0  0  0
 23 51  1  0  0  0  0
 24 25  2  0  0  0  0
 26 27  1  0  0  0  0
 26 31  2  0  0  0  0
 27 28  2  0  0  0  0
 27 52  1  0  0  0  0
 28 29  1  0  0  0  0
 28 53  1  0  0  0  0
 29 30  2  0  0  0  0
 29 54  1  0  0  0  0
 30 31  1  0  0  0  0
 30 55  1  0  0  0  0
 32 33  1  0  0  0  0
 32 56  1  0  0  0  0
 32 57  1  0  0  0  0
 33 34  1  0  0  0  0
 33 58  1  6  0  0  0
 34 59  1  0  0  0  0
 34 60  1  0  0  0  0
M  END
$$$$
