MODEL 1
REMARK VINA RESULT:   -12.396      0.000      0.000
REMARK INTER + INTRA:         -17.874
REMARK INTER:                 -17.106
REMARK INTRA:                  -0.768
REMARK UNBOUND:                -0.768
REMARK  Name = 
REMARK  7 active torsions:
REMARK  status: ('A' for Active; 'I' for Inactive)
REMARK    1  A    between atoms: N_1  and  C_2
REMARK    2  A    between atoms: C_2  and  C_3
REMARK    3  A    between atoms: C_2  and  C_20
REMARK    4  A    between atoms: C_3  and  O_4
REMARK    5  A    between atoms: O_4  and  C_5
REMARK    6  A    between atoms: C_9  and  C_10
REMARK    7  A    between atoms: C_20  and  C_21
REMARK                            x       y       z     vdW  Elec       q    Type
REMARK                         _______ _______ _______ _____ _____    ______ ____
ROOT
ATOM      1  C   UNL     1      -8.648  -5.836  18.382  0.00  0.00    +0.000 C 
ATOM      2  H   UNL     1      -8.541  -5.652  17.306  0.00  0.00    +0.000 HD
ATOM      3  H   UNL     1      -8.983  -4.916  18.879  0.00  0.00    +0.000 HD
ENDROOT
BRANCH   1   4
ATOM      4  C   UNL     1      -9.711  -6.927  18.605  0.00  0.00    +0.000 C 
ATOM      5  H   UNL     1      -9.485  -7.433  19.552  0.00  0.00    +0.000 HD
BRANCH   4   6
ATOM      6  N   UNL     1     -11.033  -6.287  18.763  0.00  0.00    +0.000 NA
ATOM      7  H   UNL     1     -10.895  -5.306  19.015  0.00  0.00    +0.000 HD
ATOM      8  H   UNL     1     -11.499  -6.709  19.569  0.00  0.00    +0.000 HD
ENDBRANCH   4   6
BRANCH   4   9
ATOM      9  C   UNL     1      -9.654  -7.967  17.459  0.00  0.00    +0.000 C 
ATOM     10  H   UNL     1      -8.981  -7.597  16.674  0.00  0.00    +0.000 HD
ATOM     11  H   UNL     1     -10.638  -8.076  16.986  0.00  0.00    +0.000 HD
BRANCH   9  12
ATOM     12  C   UNL     1      -9.176  -9.314  17.908  0.00  0.00    +0.000 A 
ATOM     13  C   UNL     1      -8.858  -9.697  19.195  0.00  0.00    +0.000 A 
ATOM     14  N   UNL     1      -8.512 -11.022  19.173  0.00  0.00    +0.000 N 
ATOM     15  C   UNL     1      -8.592 -11.515  17.891  0.00  0.00    +0.000 A 
ATOM     16  C   UNL     1      -8.350 -12.802  17.398  0.00  0.00    +0.000 A 
ATOM     17  C   UNL     1      -8.522 -13.013  16.027  0.00  0.00    +0.000 A 
ATOM     18  C   UNL     1      -8.914 -11.979  15.182  0.00  0.00    +0.000 A 
ATOM     19  C   UNL     1      -9.145 -10.698  15.691  0.00  0.00    +0.000 A 
ATOM     20  C   UNL     1      -8.988 -10.459  17.071  0.00  0.00    +0.000 A 
ATOM     21  H   UNL     1      -8.861  -9.145  20.126  0.00  0.00    +0.000 HD
ATOM     22  H   UNL     1      -8.246 -11.569  19.980  0.00  0.00    +0.000 HD
ATOM     23  H   UNL     1      -8.045 -13.612  18.051  0.00  0.00    +0.000 HD
ATOM     24  H   UNL     1      -8.348 -14.004  15.612  0.00  0.00    +0.000 HD
ATOM     25  H   UNL     1      -9.045 -12.165  14.119  0.00  0.00    +0.000 HD
ATOM     26  H   UNL     1      -9.454  -9.898  15.023  0.00  0.00    +0.000 HD
ENDBRANCH   9  12
ENDBRANCH   4   9
ENDBRANCH   1   4
BRANCH   1  27
ATOM     27  O   UNL     1      -7.390  -6.259  18.929  0.00  0.00    +0.000 OA
BRANCH  27  28
ATOM     28  C   UNL     1      -6.784  -5.394  19.793  0.00  0.00    +0.000 A 
ATOM     29  C   UNL     1      -5.406  -5.273  19.696  0.00  0.00    +0.000 A 
ATOM     30  N   UNL     1      -4.655  -4.483  20.497  0.00  0.00    +0.000 NA
ATOM     31  C   UNL     1      -5.319  -3.786  21.450  0.00  0.00    +0.000 A 
ATOM     32  C   UNL     1      -6.702  -3.810  21.647  0.00  0.00    +0.000 A 
ATOM     33  C   UNL     1      -7.426  -4.632  20.767  0.00  0.00    +0.000 A 
ATOM     34  H   UNL     1      -4.850  -5.830  18.948  0.00  0.00    +0.000 HD
ATOM     35  H   UNL     1      -4.668  -3.192  22.086  0.00  0.00    +0.000 HD
ATOM     36  H   UNL     1      -8.506  -4.661  20.855  0.00  0.00    +0.000 HD
BRANCH  32  37
ATOM     37  C   UNL     1      -7.378  -3.043  22.717  0.00  0.00    +0.000 A 
ATOM     38  C   UNL     1      -8.015  -3.685  23.796  0.00  0.00    +0.000 A 
ATOM     39  C   UNL     1      -8.671  -2.982  24.818  0.00  0.00    +0.000 A 
ATOM     40  C   UNL     1      -8.654  -1.589  24.739  0.00  0.00    +0.000 A 
ATOM     41  N   UNL     1      -9.176  -0.621  25.552  0.00  0.00    +0.000 N 
ATOM     42  N   UNL     1      -8.936   0.639  25.137  0.00  0.00    +0.000 NA
ATOM     43  C   UNL     1      -8.242   0.461  24.010  0.00  0.00    +0.000 A 
ATOM     44  C   UNL     1      -8.037  -0.901  23.705  0.00  0.00    +0.000 A 
ATOM     45  C   UNL     1      -7.404  -1.629  22.683  0.00  0.00    +0.000 A 
ATOM     46  H   UNL     1      -8.003  -4.773  23.869  0.00  0.00    +0.000 HD
ATOM     47  H   UNL     1      -9.156  -3.506  25.633  0.00  0.00    +0.000 HD
ATOM     48  H   UNL     1      -9.705  -0.749  26.408  0.00  0.00    +0.000 HD
ATOM     49  H   UNL     1      -7.908   1.331  23.458  0.00  0.00    +0.000 HD
ATOM     50  H   UNL     1      -6.944  -1.077  21.868  0.00  0.00    +0.000 HD
ENDBRANCH  32  37
ENDBRANCH  27  28
ENDBRANCH   1  27
TORSDOF 7
ENDMDL
MODEL 2
REMARK VINA RESULT:   -11.826      1.183      1.659
REMARK INTER + INTRA:         -17.087
REMARK INTER:                 -16.420
REMARK INTRA:                  -0.667
REMARK UNBOUND:                -0.768
REMARK  Name = 
REMARK  7 active torsions:
REMARK  status: ('A' for Active; 'I' for Inactive)
REMARK    1  A    between atoms: N_1  and  C_2
REMARK    2  A    between atoms: C_2  and  C_3
REMARK    3  A    between atoms: C_2  and  C_20
REMARK    4  A    between atoms: C_3  and  O_4
REMARK    5  A    between atoms: O_4  and  C_5
REMARK    6  A    between atoms: C_9  and  C_10
REMARK    7  A    between atoms: C_20  and  C_21
REMARK                            x       y       z     vdW  Elec       q    Type
REMARK                         _______ _______ _______ _____ _____    ______ ____
ROOT
ATOM      1  C   UNL     1      -8.442  -6.592  19.049  0.00  0.00    +0.000 C 
ATOM      2  H   UNL     1      -9.023  -6.016  18.317  0.00  0.00    +0.000 HD
ATOM      3  H   UNL     1      -8.764  -6.322  20.064  0.00  0.00    +0.000 HD
ENDROOT
BRANCH   1   4
ATOM      4  C   UNL     1      -8.705  -8.093  18.836  0.00  0.00    +0.000 C 
ATOM      5  H   UNL     1      -7.786  -8.547  18.447  0.00  0.00    +0.000 HD
BRANCH   4   6
ATOM      6  N   UNL     1      -8.976  -8.725  20.144  0.00  0.00    +0.000 NA
ATOM      7  H   UNL     1      -9.979  -8.667  20.334  0.00  0.00    +0.000 HD
ATOM      8  H   UNL     1      -8.531  -8.162  20.871  0.00  0.00    +0.000 HD
ENDBRANCH   4   6
BRANCH   4   9
ATOM      9  C   UNL     1      -9.837  -8.294  17.800  0.00  0.00    +0.000 C 
ATOM     10  H   UNL     1     -10.158  -7.312  17.427  0.00  0.00    +0.000 HD
ATOM     11  H   UNL     1     -10.721  -8.740  18.273  0.00  0.00    +0.000 HD
BRANCH   9  12
ATOM     12  C   UNL     1      -9.427  -9.141  16.635  0.00  0.00    +0.000 A 
ATOM     13  C   UNL     1      -9.257  -8.731  15.328  0.00  0.00    +0.000 A 
ATOM     14  N   UNL     1      -8.834  -9.808  14.595  0.00  0.00    +0.000 N 
ATOM     15  C   UNL     1      -8.728 -10.920  15.398  0.00  0.00    +0.000 A 
ATOM     16  C   UNL     1      -8.321 -12.224  15.091  0.00  0.00    +0.000 A 
ATOM     17  C   UNL     1      -8.307 -13.159  16.129  0.00  0.00    +0.000 A 
ATOM     18  C   UNL     1      -8.689 -12.807  17.421  0.00  0.00    +0.000 A 
ATOM     19  C   UNL     1      -9.099 -11.502  17.707  0.00  0.00    +0.000 A 
ATOM     20  C   UNL     1      -9.114 -10.537  16.681  0.00  0.00    +0.000 A 
ATOM     21  H   UNL     1      -9.388  -7.764  14.859  0.00  0.00    +0.000 HD
ATOM     22  H   UNL     1      -8.616  -9.792  13.608  0.00  0.00    +0.000 HD
ATOM     23  H   UNL     1      -8.022 -12.504  14.087  0.00  0.00    +0.000 HD
ATOM     24  H   UNL     1      -7.991 -14.180  15.926  0.00  0.00    +0.000 HD
ATOM     25  H   UNL     1      -8.669 -13.549  18.216  0.00  0.00    +0.000 HD
ATOM     26  H   UNL     1      -9.392 -11.237  18.719  0.00  0.00    +0.000 HD
ENDBRANCH   9  12
ENDBRANCH   4   9
ENDBRANCH   1   4
BRANCH   1  27
ATOM     27  O   UNL     1      -7.044  -6.311  18.887  0.00  0.00    +0.000 OA
BRANCH  27  28
ATOM     28  C   UNL     1      -6.503  -5.409  19.756  0.00  0.00    +0.000 A 
ATOM     29  C   UNL     1      -5.135  -5.194  19.666  0.00  0.00    +0.000 A 
ATOM     30  N   UNL     1      -4.444  -4.357  20.472  0.00  0.00    +0.000 NA
ATOM     31  C   UNL     1      -5.159  -3.709  21.424  0.00  0.00    +0.000 A 
ATOM     32  C   UNL     1      -6.538  -3.828  21.613  0.00  0.00    +0.000 A 
ATOM     33  C   UNL     1      -7.200  -4.695  20.728  0.00  0.00    +0.000 A 
ATOM     34  H   UNL     1      -4.539  -5.711  18.920  0.00  0.00    +0.000 HD
ATOM     35  H   UNL     1      -4.552  -3.074  22.064  0.00  0.00    +0.000 HD
ATOM     36  H   UNL     1      -8.276  -4.798  20.810  0.00  0.00    +0.000 HD
BRANCH  32  37
ATOM     37  C   UNL     1      -7.270  -3.110  22.681  0.00  0.00    +0.000 A 
ATOM     38  C   UNL     1      -7.865  -3.797  23.757  0.00  0.00    +0.000 A 
ATOM     39  C   UNL     1      -8.572  -3.142  24.777  0.00  0.00    +0.000 A 
ATOM     40  C   UNL     1      -8.653  -1.752  24.699  0.00  0.00    +0.000 A 
ATOM     41  N   UNL     1      -9.244  -0.823  25.511  0.00  0.00    +0.000 N 
ATOM     42  N   UNL     1      -9.091   0.450  25.099  0.00  0.00    +0.000 NA
ATOM     43  C   UNL     1      -8.382   0.323  23.974  0.00  0.00    +0.000 A 
ATOM     44  C   UNL     1      -8.081  -1.021  23.668  0.00  0.00    +0.000 A 
ATOM     45  C   UNL     1      -7.394  -1.702  22.648  0.00  0.00    +0.000 A 
ATOM     46  H   UNL     1      -7.776  -4.881  23.830  0.00  0.00    +0.000 HD
ATOM     47  H   UNL     1      -9.022  -3.700  25.590  0.00  0.00    +0.000 HD
ATOM     48  H   UNL     1      -9.766  -0.989  26.365  0.00  0.00    +0.000 HD
ATOM     49  H   UNL     1      -8.107   1.215  23.424  0.00  0.00    +0.000 HD
ATOM     50  H   UNL     1      -6.972  -1.118  21.836  0.00  0.00    +0.000 HD
ENDBRANCH  32  37
ENDBRANCH  27  28
ENDBRANCH   1  27
TORSDOF 7
ENDMDL
MODEL 3
REMARK VINA RESULT:   -11.337      1.207      1.295
REMARK INTER + INTRA:         -16.413
REMARK INTER:                 -15.620
REMARK INTRA:                  -0.794
REMARK UNBOUND:                -0.768
REMARK  Name = 
REMARK  7 active torsions:
REMARK  status: ('A' for Active; 'I' for Inactive)
REMARK    1  A    between atoms: N_1  and  C_2
REMARK    2  A    between atoms: C_2  and  C_3
REMARK    3  A    between atoms: C_2  and  C_20
REMARK    4  A    between atoms: C_3  and  O_4
REMARK    5  A    between atoms: O_4  and  C_5
REMARK    6  A    between atoms: C_9  and  C_10
REMARK    7  A    between atoms: C_20  and  C_21
REMARK                            x       y       z     vdW  Elec       q    Type
REMARK                         _______ _______ _______ _____ _____    ______ ____
ROOT
ATOM      1  C   UNL     1      -9.054  -6.206  17.498  0.00  0.00    +0.000 C 
ATOM      2  H   UNL     1      -9.049  -5.660  16.546  0.00  0.00    +0.000 HD
ATOM      3  H   UNL     1      -9.456  -5.558  18.289  0.00  0.00    +0.000 HD
ENDROOT
BRANCH   1   4
ATOM      4  C   UNL     1      -9.963  -7.441  17.370  0.00  0.00    +0.000 C 
ATOM      5  H   UNL     1     -10.118  -7.855  18.373  0.00  0.00    +0.000 HD
BRANCH   4   6
ATOM      6  N   UNL     1     -11.287  -7.015  16.870  0.00  0.00    +0.000 NA
ATOM      7  H   UNL     1     -11.954  -7.042  17.643  0.00  0.00    +0.000 HD
ATOM      8  H   UNL     1     -11.618  -7.715  16.203  0.00  0.00    +0.000 HD
ENDBRANCH   4   6
BRANCH   4   9
ATOM      9  C   UNL     1      -9.280  -8.515  16.488  0.00  0.00    +0.000 C 
ATOM     10  H   UNL     1      -8.329  -8.115  16.112  0.00  0.00    +0.000 HD
ATOM     11  H   UNL     1      -9.887  -8.733  15.601  0.00  0.00    +0.000 HD
BRANCH   9  12
ATOM     12  C   UNL     1      -9.009  -9.793  17.220  0.00  0.00    +0.000 A 
ATOM     13  C   UNL     1      -8.898  -9.962  18.586  0.00  0.00    +0.000 A 
ATOM     14  N   UNL     1      -8.695 -11.294  18.835  0.00  0.00    +0.000 N 
ATOM     15  C   UNL     1      -8.665 -12.002  17.656  0.00  0.00    +0.000 A 
ATOM     16  C   UNL     1      -8.502 -13.373  17.426  0.00  0.00    +0.000 A 
ATOM     17  C   UNL     1      -8.521 -13.813  16.100  0.00  0.00    +0.000 A 
ATOM     18  C   UNL     1      -8.692 -12.920  15.046  0.00  0.00    +0.000 A 
ATOM     19  C   UNL     1      -8.847 -11.553  15.294  0.00  0.00    +0.000 A 
ATOM     20  C   UNL     1      -8.840 -11.083  16.623  0.00  0.00    +0.000 A 
ATOM     21  H   UNL     1      -8.959  -9.253  19.401  0.00  0.00    +0.000 HD
ATOM     22  H   UNL     1      -8.593 -11.706  19.753  0.00  0.00    +0.000 HD
ATOM     23  H   UNL     1      -8.370 -14.073  18.243  0.00  0.00    +0.000 HD
ATOM     24  H   UNL     1      -8.403 -14.873  15.886  0.00  0.00    +0.000 HD
ATOM     25  H   UNL     1      -8.706 -13.283  14.021  0.00  0.00    +0.000 HD
ATOM     26  H   UNL     1      -8.981 -10.864  14.465  0.00  0.00    +0.000 HD
ENDBRANCH   9  12
ENDBRANCH   4   9
ENDBRANCH   1   4
BRANCH   1  27
ATOM     27  O   UNL     1      -7.718  -6.613  17.830  0.00  0.00    +0.000 OA
BRANCH  27  28
ATOM     28  C   UNL     1      -7.082  -5.880  18.788  0.00  0.00    +0.000 A 
ATOM     29  C   UNL     1      -5.704  -6.018  18.872  0.00  0.00    +0.000 A 
ATOM     30  N   UNL     1      -4.932  -5.385  19.785  0.00  0.00    +0.000 NA
ATOM     31  C   UNL     1      -5.575  -4.580  20.664  0.00  0.00    +0.000 A 
ATOM     32  C   UNL     1      -6.952  -4.346  20.681  0.00  0.00    +0.000 A 
ATOM     33  C   UNL     1      -7.694  -5.014  19.692  0.00  0.00    +0.000 A 
ATOM     34  H   UNL     1      -5.168  -6.668  18.187  0.00  0.00    +0.000 HD
ATOM     35  H   UNL     1      -4.914  -4.121  21.394  0.00  0.00    +0.000 HD
ATOM     36  H   UNL     1      -8.763  -4.842  19.640  0.00  0.00    +0.000 HD
BRANCH  32  37
ATOM     37  C   UNL     1      -7.610  -3.469  21.676  0.00  0.00    +0.000 A 
ATOM     38  C   UNL     1      -7.470  -3.689  23.059  0.00  0.00    +0.000 A 
ATOM     39  C   UNL     1      -8.090  -2.878  24.023  0.00  0.00    +0.000 A 
ATOM     40  C   UNL     1      -8.852  -1.808  23.555  0.00  0.00    +0.000 A 
ATOM     41  N   UNL     1      -9.566  -0.840  24.205  0.00  0.00    +0.000 N 
ATOM     42  N   UNL     1     -10.171   0.045  23.388  0.00  0.00    +0.000 NA
ATOM     43  C   UNL     1      -9.835  -0.386  22.170  0.00  0.00    +0.000 A 
ATOM     44  C   UNL     1      -9.019  -1.537  22.205  0.00  0.00    +0.000 A 
ATOM     45  C   UNL     1      -8.404  -2.375  21.259  0.00  0.00    +0.000 A 
ATOM     46  H   UNL     1      -6.851  -4.510  23.423  0.00  0.00    +0.000 HD
ATOM     47  H   UNL     1      -7.967  -3.077  25.082  0.00  0.00    +0.000 HD
ATOM     48  H   UNL     1      -9.680  -0.722  25.206  0.00  0.00    +0.000 HD
ATOM     49  H   UNL     1     -10.192   0.158  21.305  0.00  0.00    +0.000 HD
ATOM     50  H   UNL     1      -8.563  -2.164  20.205  0.00  0.00    +0.000 HD
ENDBRANCH  32  37
ENDBRANCH  27  28
ENDBRANCH   1  27
TORSDOF 7
ENDMDL
MODEL 4
REMARK VINA RESULT:   -11.183      1.848     10.028
REMARK INTER + INTRA:         -16.200
REMARK INTER:                 -15.398
REMARK INTRA:                  -0.801
REMARK UNBOUND:                -0.768
REMARK  Name = 
REMARK  7 active torsions:
REMARK  status: ('A' for Active; 'I' for Inactive)
REMARK    1  A    between atoms: N_1  and  C_2
REMARK    2  A    between atoms: C_2  and  C_3
REMARK    3  A    between atoms: C_2  and  C_20
REMARK    4  A    between atoms: C_3  and  O_4
REMARK    5  A    between atoms: O_4  and  C_5
REMARK    6  A    between atoms: C_9  and  C_10
REMARK    7  A    between atoms: C_20  and  C_21
REMARK                            x       y       z     vdW  Elec       q    Type
REMARK                         _______ _______ _______ _____ _____    ______ ____
ROOT
ATOM      1  C   UNL     1      -7.281  -4.708  19.960  0.00  0.00    +0.000 C 
ATOM      2  H   UNL     1      -7.862  -3.777  19.944  0.00  0.00    +0.000 HD
ATOM      3  H   UNL     1      -6.843  -4.882  18.968  0.00  0.00    +0.000 HD
ENDROOT
BRANCH   1   4
ATOM      4  C   UNL     1      -6.140  -4.576  20.984  0.00  0.00    +0.000 C 
ATOM      5  H   UNL     1      -6.199  -5.428  21.670  0.00  0.00    +0.000 HD
BRANCH   4   6
ATOM      6  N   UNL     1      -4.846  -4.679  20.279  0.00  0.00    +0.000 NA
ATOM      7  H   UNL     1      -4.709  -5.649  19.985  0.00  0.00    +0.000 HD
ATOM      8  H   UNL     1      -4.099  -4.493  20.950  0.00  0.00    +0.000 HD
ENDBRANCH   4   6
BRANCH   4   9
ATOM      9  C   UNL     1      -6.303  -3.268  21.797  0.00  0.00    +0.000 C 
ATOM     10  H   UNL     1      -6.497  -2.439  21.103  0.00  0.00    +0.000 HD
ATOM     11  H   UNL     1      -5.371  -3.015  22.316  0.00  0.00    +0.000 HD
BRANCH   9  12
ATOM     12  C   UNL     1      -7.417  -3.331  22.796  0.00  0.00    +0.000 A 
ATOM     13  C   UNL     1      -7.426  -4.026  23.989  0.00  0.00    +0.000 A 
ATOM     14  N   UNL     1      -8.616  -3.776  24.619  0.00  0.00    +0.000 N 
ATOM     15  C   UNL     1      -9.392  -2.932  23.858  0.00  0.00    +0.000 A 
ATOM     16  C   UNL     1     -10.661  -2.397  24.107  0.00  0.00    +0.000 A 
ATOM     17  C   UNL     1     -11.207  -1.550  23.138  0.00  0.00    +0.000 A 
ATOM     18  C   UNL     1     -10.515  -1.252  21.968  0.00  0.00    +0.000 A 
ATOM     19  C   UNL     1      -9.251  -1.800  21.734  0.00  0.00    +0.000 A 
ATOM     20  C   UNL     1      -8.673  -2.651  22.698  0.00  0.00    +0.000 A 
ATOM     21  H   UNL     1      -6.684  -4.665  24.449  0.00  0.00    +0.000 HD
ATOM     22  H   UNL     1      -8.887  -4.145  25.521  0.00  0.00    +0.000 HD
ATOM     23  H   UNL     1     -11.205  -2.625  25.017  0.00  0.00    +0.000 HD
ATOM     24  H   UNL     1     -12.190  -1.113  23.303  0.00  0.00    +0.000 HD
ATOM     25  H   UNL     1     -10.956  -0.588  21.229  0.00  0.00    +0.000 HD
ATOM     26  H   UNL     1      -8.717  -1.560  20.819  0.00  0.00    +0.000 HD
ENDBRANCH   9  12
ENDBRANCH   4   9
ENDBRANCH   1   4
BRANCH   1  27
ATOM     27  O   UNL     1      -8.135  -5.806  20.317  0.00  0.00    +0.000 OA
BRANCH  27  28
ATOM     28  C   UNL     1      -8.675  -6.514  19.284  0.00  0.00    +0.000 A 
ATOM     29  C   UNL     1      -9.537  -5.832  18.438  0.00  0.00    +0.000 A 
ATOM     30  N   UNL     1     -10.176  -6.398  17.389  0.00  0.00    +0.000 NA
ATOM     31  C   UNL     1      -9.946  -7.717  17.182  0.00  0.00    +0.000 A 
ATOM     32  C   UNL     1      -9.095  -8.514  17.952  0.00  0.00    +0.000 A 
ATOM     33  C   UNL     1      -8.444  -7.861  19.012  0.00  0.00    +0.000 A 
ATOM     34  H   UNL     1      -9.746  -4.777  18.590  0.00  0.00    +0.000 HD
ATOM     35  H   UNL     1     -10.507  -8.129  16.348  0.00  0.00    +0.000 HD
ATOM     36  H   UNL     1      -7.747  -8.427  19.620  0.00  0.00    +0.000 HD
BRANCH  32  37
ATOM     37  C   UNL     1      -8.893  -9.958  17.696  0.00  0.00    +0.000 A 
ATOM     38  C   UNL     1      -8.571 -10.854  18.734  0.00  0.00    +0.000 A 
ATOM     39  C   UNL     1      -8.365 -12.224  18.517  0.00  0.00    +0.000 A 
ATOM     40  C   UNL     1      -8.512 -12.688  17.210  0.00  0.00    +0.000 A 
ATOM     41  N   UNL     1      -8.394 -13.936  16.663  0.00  0.00    +0.000 N 
ATOM     42  N   UNL     1      -8.628 -13.983  15.337  0.00  0.00    +0.000 NA
ATOM     43  C   UNL     1      -8.895 -12.711  15.029  0.00  0.00    +0.000 A 
ATOM     44  C   UNL     1      -8.835 -11.855  16.149  0.00  0.00    +0.000 A 
ATOM     45  C   UNL     1      -9.018 -10.483  16.388  0.00  0.00    +0.000 A 
ATOM     46  H   UNL     1      -8.484 -10.493  19.760  0.00  0.00    +0.000 HD
ATOM     47  H   UNL     1      -8.113 -12.888  19.338  0.00  0.00    +0.000 HD
ATOM     48  H   UNL     1      -8.159 -14.800  17.138  0.00  0.00    +0.000 HD
ATOM     49  H   UNL     1      -9.129 -12.459  14.002  0.00  0.00    +0.000 HD
ATOM     50  H   UNL     1      -9.248  -9.840  15.544  0.00  0.00    +0.000 HD
ENDBRANCH  32  37
ENDBRANCH  27  28
ENDBRANCH   1  27
TORSDOF 7
ENDMDL
MODEL 5
REMARK VINA RESULT:   -11.082      2.024     10.855
REMARK INTER + INTRA:         -16.061
REMARK INTER:                 -15.653
REMARK INTRA:                  -0.408
REMARK UNBOUND:                -0.768
REMARK  Name = 
REMARK  7 active torsions:
REMARK  status: ('A' for Active; 'I' for Inactive)
REMARK    1  A    between atoms: N_1  and  C_2
REMARK    2  A    between atoms: C_2  and  C_3
REMARK    3  A    between atoms: C_2  and  C_20
REMARK    4  A    between atoms: C_3  and  O_4
REMARK    5  A    between atoms: O_4  and  C_5
REMARK    6  A    between atoms: C_9  and  C_10
REMARK    7  A    between atoms: C_20  and  C_21
REMARK                            x       y       z     vdW  Elec       q    Type
REMARK                         _______ _______ _______ _____ _____    ______ ____
ROOT
ATOM      1  C   UNL     1      -7.876  -5.903  19.640  0.00  0.00    +0.000 C 
ATOM      2  H   UNL     1      -7.187  -5.921  18.785  0.00  0.00    +0.000 HD
ATOM      3  H   UNL     1      -7.421  -6.436  20.486  0.00  0.00    +0.000 HD
ENDROOT
BRANCH   1   4
ATOM      4  C   UNL     1      -8.126  -4.444  20.059  0.00  0.00    +0.000 C 
ATOM      5  H   UNL     1      -7.373  -3.816  19.568  0.00  0.00    +0.000 HD
BRANCH   4   6
ATOM      6  N   UNL     1      -9.444  -4.015  19.548  0.00  0.00    +0.000 NA
ATOM      7  H   UNL     1      -9.487  -2.994  19.566  0.00  0.00    +0.000 HD
ATOM      8  H   UNL     1     -10.160  -4.327  20.206  0.00  0.00    +0.000 HD
ENDBRANCH   4   6
BRANCH   4   9
ATOM      9  C   UNL     1      -7.974  -4.297  21.593  0.00  0.00    +0.000 C 
ATOM     10  H   UNL     1      -6.981  -4.661  21.889  0.00  0.00    +0.000 HD
ATOM     11  H   UNL     1      -8.697  -4.934  22.117  0.00  0.00    +0.000 HD
BRANCH   9  12
ATOM     12  C   UNL     1      -8.132  -2.886  22.069  0.00  0.00    +0.000 A 
ATOM     13  C   UNL     1      -8.053  -1.737  21.307  0.00  0.00    +0.000 A 
ATOM     14  N   UNL     1      -8.304  -0.666  22.122  0.00  0.00    +0.000 N 
ATOM     15  C   UNL     1      -8.541  -1.091  23.409  0.00  0.00    +0.000 A 
ATOM     16  C   UNL     1      -8.854  -0.360  24.561  0.00  0.00    +0.000 A 
ATOM     17  C   UNL     1      -9.050  -1.074  25.747  0.00  0.00    +0.000 A 
ATOM     18  C   UNL     1      -8.934  -2.461  25.781  0.00  0.00    +0.000 A 
ATOM     19  C   UNL     1      -8.615  -3.173  24.621  0.00  0.00    +0.000 A 
ATOM     20  C   UNL     1      -8.420  -2.479  23.410  0.00  0.00    +0.000 A 
ATOM     21  H   UNL     1      -7.854  -1.591  20.253  0.00  0.00    +0.000 HD
ATOM     22  H   UNL     1      -8.326   0.300  21.826  0.00  0.00    +0.000 HD
ATOM     23  H   UNL     1      -8.946   0.720  24.541  0.00  0.00    +0.000 HD
ATOM     24  H   UNL     1      -9.300  -0.538  26.660  0.00  0.00    +0.000 HD
ATOM     25  H   UNL     1      -9.093  -2.998  26.713  0.00  0.00    +0.000 HD
ATOM     26  H   UNL     1      -8.529  -4.256  24.658  0.00  0.00    +0.000 HD
ENDBRANCH   9  12
ENDBRANCH   4   9
ENDBRANCH   1   4
BRANCH   1  27
ATOM     27  O   UNL     1      -9.116  -6.528  19.276  0.00  0.00    +0.000 OA
BRANCH  27  28
ATOM     28  C   UNL     1      -9.094  -7.315  18.162  0.00  0.00    +0.000 A 
ATOM     29  C   UNL     1      -9.239  -6.676  16.940  0.00  0.00    +0.000 A 
ATOM     30  N   UNL     1      -9.269  -7.315  15.748  0.00  0.00    +0.000 NA
ATOM     31  C   UNL     1      -9.157  -8.665  15.785  0.00  0.00    +0.000 A 
ATOM     32  C   UNL     1      -8.995  -9.427  16.945  0.00  0.00    +0.000 A 
ATOM     33  C   UNL     1      -8.949  -8.700  18.147  0.00  0.00    +0.000 A 
ATOM     34  H   UNL     1      -9.344  -5.596  16.886  0.00  0.00    +0.000 HD
ATOM     35  H   UNL     1      -9.219  -9.132  14.806  0.00  0.00    +0.000 HD
ATOM     36  H   UNL     1      -8.791  -9.241  19.074  0.00  0.00    +0.000 HD
BRANCH  32  37
ATOM     37  C   UNL     1      -8.895 -10.904  16.933  0.00  0.00    +0.000 A 
ATOM     38  C   UNL     1      -8.799 -11.646  18.125  0.00  0.00    +0.000 A 
ATOM     39  C   UNL     1      -8.695 -13.045  18.141  0.00  0.00    +0.000 A 
ATOM     40  C   UNL     1      -8.709 -13.696  16.907  0.00  0.00    +0.000 A 
ATOM     41  N   UNL     1      -8.636 -15.019  16.570  0.00  0.00    +0.000 N 
ATOM     42  N   UNL     1      -8.694 -15.257  15.244  0.00  0.00    +0.000 NA
ATOM     43  C   UNL     1      -8.799 -14.032  14.720  0.00  0.00    +0.000 A 
ATOM     44  C   UNL     1      -8.809 -13.019  15.701  0.00  0.00    +0.000 A 
ATOM     45  C   UNL     1      -8.894 -11.616  15.710  0.00  0.00    +0.000 A 
ATOM     46  H   UNL     1      -8.816 -11.137  19.089  0.00  0.00    +0.000 HD
ATOM     47  H   UNL     1      -8.618 -13.589  19.077  0.00  0.00    +0.000 HD
ATOM     48  H   UNL     1      -8.548 -15.814  17.194  0.00  0.00    +0.000 HD
ATOM     49  H   UNL     1      -8.869 -13.928  13.645  0.00  0.00    +0.000 HD
ATOM     50  H   UNL     1      -8.949 -11.098  14.758  0.00  0.00    +0.000 HD
ENDBRANCH  32  37
ENDBRANCH  27  28
ENDBRANCH   1  27
TORSDOF 7
ENDMDL
MODEL 6
REMARK VINA RESULT:   -10.991      2.026     10.632
REMARK INTER + INTRA:         -15.935
REMARK INTER:                 -15.331
REMARK INTRA:                  -0.605
REMARK UNBOUND:                -0.768
REMARK  Name = 
REMARK  7 active torsions:
REMARK  status: ('A' for Active; 'I' for Inactive)
REMARK    1  A    between atoms: N_1  and  C_2
REMARK    2  A    between atoms: C_2  and  C_3
REMARK    3  A    between atoms: C_2  and  C_20
REMARK    4  A    between atoms: C_3  and  O_4
REMARK    5  A    between atoms: O_4  and  C_5
REMARK    6  A    between atoms: C_9  and  C_10
REMARK    7  A    between atoms: C_20  and  C_21
REMARK                            x       y       z     vdW  Elec       q    Type
REMARK                         _______ _______ _______ _____ _____    ______ ____
ROOT
ATOM      1  C   UNL     1      -8.556  -5.276  18.581  0.00  0.00    +0.000 C 
ATOM      2  H   UNL     1      -8.453  -5.079  17.506  0.00  0.00    +0.000 HD
ATOM      3  H   UNL     1      -7.617  -5.695  18.967  0.00  0.00    +0.000 HD
ENDROOT
BRANCH   1   4
ATOM      4  C   UNL     1      -8.840  -3.954  19.315  0.00  0.00    +0.000 C 
ATOM      5  H   UNL     1      -8.471  -3.132  18.690  0.00  0.00    +0.000 HD
BRANCH   4   6
ATOM      6  N   UNL     1     -10.302  -3.777  19.440  0.00  0.00    +0.000 NA
ATOM      7  H   UNL     1     -10.493  -2.810  19.711  0.00  0.00    +0.000 HD
ATOM      8  H   UNL     1     -10.628  -4.346  20.223  0.00  0.00    +0.000 HD
ENDBRANCH   4   6
BRANCH   4   9
ATOM      9  C   UNL     1      -8.091  -3.925  20.669  0.00  0.00    +0.000 C 
ATOM     10  H   UNL     1      -7.011  -3.981  20.480  0.00  0.00    +0.000 HD
ATOM     11  H   UNL     1      -8.338  -4.810  21.268  0.00  0.00    +0.000 HD
BRANCH   9  12
ATOM     12  C   UNL     1      -8.376  -2.695  21.475  0.00  0.00    +0.000 A 
ATOM     13  C   UNL     1      -8.579  -1.416  20.997  0.00  0.00    +0.000 A 
ATOM     14  N   UNL     1      -8.855  -0.601  22.063  0.00  0.00    +0.000 N 
ATOM     15  C   UNL     1      -8.832  -1.322  23.234  0.00  0.00    +0.000 A 
ATOM     16  C   UNL     1      -9.069  -0.917  24.552  0.00  0.00    +0.000 A 
ATOM     17  C   UNL     1      -8.979  -1.888  25.554  0.00  0.00    +0.000 A 
ATOM     18  C   UNL     1      -8.661  -3.209  25.251  0.00  0.00    +0.000 A 
ATOM     19  C   UNL     1      -8.422  -3.594  23.929  0.00  0.00    +0.000 A 
ATOM     20  C   UNL     1      -8.514  -2.637  22.898  0.00  0.00    +0.000 A 
ATOM     21  H   UNL     1      -8.564  -1.019  19.990  0.00  0.00    +0.000 HD
ATOM     22  H   UNL     1      -9.060   0.387  22.003  0.00  0.00    +0.000 HD
ATOM     23  H   UNL     1      -9.317   0.110  24.795  0.00  0.00    +0.000 HD
ATOM     24  H   UNL     1      -9.163  -1.608  26.589  0.00  0.00    +0.000 HD
ATOM     25  H   UNL     1      -8.600  -3.950  26.044  0.00  0.00    +0.000 HD
ATOM     26  H   UNL     1      -8.177  -4.628  23.702  0.00  0.00    +0.000 HD
ENDBRANCH   9  12
ENDBRANCH   4   9
ENDBRANCH   1   4
BRANCH   1  27
ATOM     27  O   UNL     1      -9.632  -6.200  18.803  0.00  0.00    +0.000 OA
BRANCH  27  28
ATOM     28  C   UNL     1      -9.279  -7.501  19.015  0.00  0.00    +0.000 A 
ATOM     29  C   UNL     1      -8.858  -7.836  20.293  0.00  0.00    +0.000 A 
ATOM     30  N   UNL     1      -8.446  -9.073  20.657  0.00  0.00    +0.000 NA
ATOM     31  C   UNL     1      -8.449 -10.019  19.687  0.00  0.00    +0.000 A 
ATOM     32  C   UNL     1      -8.859  -9.815  18.367  0.00  0.00    +0.000 A 
ATOM     33  C   UNL     1      -9.296  -8.516  18.060  0.00  0.00    +0.000 A 
ATOM     34  H   UNL     1      -8.835  -7.093  21.084  0.00  0.00    +0.000 HD
ATOM     35  H   UNL     1      -8.081 -10.985  20.022  0.00  0.00    +0.000 HD
ATOM     36  H   UNL     1      -9.657  -8.312  17.058  0.00  0.00    +0.000 HD
BRANCH  32  37
ATOM     37  C   UNL     1      -8.826 -10.880  17.338  0.00  0.00    +0.000 A 
ATOM     38  C   UNL     1      -8.807 -10.577  15.963  0.00  0.00    +0.000 A 
ATOM     39  C   UNL     1      -8.784 -11.566  14.969  0.00  0.00    +0.000 A 
ATOM     40  C   UNL     1      -8.761 -12.894  15.397  0.00  0.00    +0.000 A 
ATOM     41  N   UNL     1      -8.728 -14.076  14.710  0.00  0.00    +0.000 N 
ATOM     42  N   UNL     1      -8.702 -15.172  15.494  0.00  0.00    +0.000 NA
ATOM     43  C   UNL     1      -8.729 -14.663  16.729  0.00  0.00    +0.000 A 
ATOM     44  C   UNL     1      -8.771 -13.253  16.736  0.00  0.00    +0.000 A 
ATOM     45  C   UNL     1      -8.813 -12.244  17.713  0.00  0.00    +0.000 A 
ATOM     46  H   UNL     1      -8.797  -9.538  15.632  0.00  0.00    +0.000 HD
ATOM     47  H   UNL     1      -8.774 -11.301  13.917  0.00  0.00    +0.000 HD
ATOM     48  H   UNL     1      -8.719 -14.208  13.704  0.00  0.00    +0.000 HD
ATOM     49  H   UNL     1      -8.712 -15.340  17.574  0.00  0.00    +0.000 HD
ATOM     50  H   UNL     1      -8.843 -12.540  18.758  0.00  0.00    +0.000 HD
ENDBRANCH  32  37
ENDBRANCH  27  28
ENDBRANCH   1  27
TORSDOF 7
ENDMDL
MODEL 7
REMARK VINA RESULT:   -10.982      2.110      3.961
REMARK INTER + INTRA:         -15.923
REMARK INTER:                 -15.253
REMARK INTRA:                  -0.670
REMARK UNBOUND:                -0.768
REMARK  Name = 
REMARK  7 active torsions:
REMARK  status: ('A' for Active; 'I' for Inactive)
REMARK    1  A    between atoms: N_1  and  C_2
REMARK    2  A    between atoms: C_2  and  C_3
REMARK    3  A    between atoms: C_2  and  C_20
REMARK    4  A    between atoms: C_3  and  O_4
REMARK    5  A    between atoms: O_4  and  C_5
REMARK    6  A    between atoms: C_9  and  C_10
REMARK    7  A    between atoms: C_20  and  C_21
REMARK                            x       y       z     vdW  Elec       q    Type
REMARK                         _______ _______ _______ _____ _____    ______ ____
ROOT
ATOM      1  C   UNL     1     -10.891  -8.839  15.994  0.00  0.00    +0.000 C 
ATOM      2  H   UNL     1     -11.115  -7.956  15.381  0.00  0.00    +0.000 HD
ATOM      3  H   UNL     1     -11.776  -9.486  16.038  0.00  0.00    +0.000 HD
ENDROOT
BRANCH   1   4
ATOM      4  C   UNL     1      -9.739  -9.628  15.345  0.00  0.00    +0.000 C 
ATOM      5  H   UNL     1     -10.127 -10.607  15.042  0.00  0.00    +0.000 HD
BRANCH   4   6
ATOM      6  N   UNL     1      -9.314  -8.933  14.113  0.00  0.00    +0.000 NA
ATOM      7  H   UNL     1      -8.497  -9.414  13.731  0.00  0.00    +0.000 HD
ATOM      8  H   UNL     1      -8.983  -8.001  14.368  0.00  0.00    +0.000 HD
ENDBRANCH   4   6
BRANCH   4   9
ATOM      9  C   UNL     1      -8.597  -9.838  16.368  0.00  0.00    +0.000 C 
ATOM     10  H   UNL     1      -8.643  -9.043  17.124  0.00  0.00    +0.000 HD
ATOM     11  H   UNL     1      -7.618  -9.737  15.883  0.00  0.00    +0.000 HD
BRANCH   9  12
ATOM     12  C   UNL     1      -8.662 -11.165  17.061  0.00  0.00    +0.000 A 
ATOM     13  C   UNL     1      -8.740 -11.390  18.421  0.00  0.00    +0.000 A 
ATOM     14  N   UNL     1      -8.828 -12.741  18.625  0.00  0.00    +0.000 N 
ATOM     15  C   UNL     1      -8.804 -13.409  17.423  0.00  0.00    +0.000 A 
ATOM     16  C   UNL     1      -8.885 -14.778  17.145  0.00  0.00    +0.000 A 
ATOM     17  C   UNL     1      -8.840 -15.170  15.804  0.00  0.00    +0.000 A 
ATOM     18  C   UNL     1      -8.715 -14.232  14.782  0.00  0.00    +0.000 A 
ATOM     19  C   UNL     1      -8.629 -12.869  15.080  0.00  0.00    +0.000 A 
ATOM     20  C   UNL     1      -8.680 -12.445  16.423  0.00  0.00    +0.000 A 
ATOM     21  H   UNL     1      -8.754 -10.705  19.259  0.00  0.00    +0.000 HD
ATOM     22  H   UNL     1      -8.912 -13.190  19.527  0.00  0.00    +0.000 HD
ATOM     23  H   UNL     1      -8.984 -15.513  17.935  0.00  0.00    +0.000 HD
ATOM     24  H   UNL     1      -8.907 -16.226  15.552  0.00  0.00    +0.000 HD
ATOM     25  H   UNL     1      -8.685 -14.557  13.745  0.00  0.00    +0.000 HD
ATOM     26  H   UNL     1      -8.534 -12.145  14.275  0.00  0.00    +0.000 HD
ENDBRANCH   9  12
ENDBRANCH   4   9
ENDBRANCH   1   4
BRANCH   1  27
ATOM     27  O   UNL     1     -10.518  -8.427  17.318  0.00  0.00    +0.000 OA
BRANCH  27  28
ATOM     28  C   UNL     1     -10.373  -7.085  17.517  0.00  0.00    +0.000 A 
ATOM     29  C   UNL     1     -11.083  -6.246  16.671  0.00  0.00    +0.000 A 
ATOM     30  N   UNL     1     -11.024  -4.895  16.718  0.00  0.00    +0.000 NA
ATOM     31  C   UNL     1     -10.204  -4.359  17.655  0.00  0.00    +0.000 A 
ATOM     32  C   UNL     1      -9.445  -5.091  18.571  0.00  0.00    +0.000 A 
ATOM     33  C   UNL     1      -9.569  -6.488  18.485  0.00  0.00    +0.000 A 
ATOM     34  H   UNL     1     -11.736  -6.651  15.905  0.00  0.00    +0.000 HD
ATOM     35  H   UNL     1     -10.169  -3.273  17.630  0.00  0.00    +0.000 HD
ATOM     36  H   UNL     1      -9.027  -7.102  19.195  0.00  0.00    +0.000 HD
BRANCH  32  37
ATOM     37  C   UNL     1      -8.549  -4.457  19.565  0.00  0.00    +0.000 A 
ATOM     38  C   UNL     1      -7.282  -4.993  19.863  0.00  0.00    +0.000 A 
ATOM     39  C   UNL     1      -6.418  -4.416  20.806  0.00  0.00    +0.000 A 
ATOM     40  C   UNL     1      -6.857  -3.255  21.442  0.00  0.00    +0.000 A 
ATOM     41  N   UNL     1      -6.276  -2.452  22.384  0.00  0.00    +0.000 N 
ATOM     42  N   UNL     1      -7.026  -1.394  22.749  0.00  0.00    +0.000 NA
ATOM     43  C   UNL     1      -8.133  -1.537  22.014  0.00  0.00    +0.000 A 
ATOM     44  C   UNL     1      -8.091  -2.678  21.184  0.00  0.00    +0.000 A 
ATOM     45  C   UNL     1      -8.947  -3.284  20.249  0.00  0.00    +0.000 A 
ATOM     46  H   UNL     1      -6.929  -5.885  19.344  0.00  0.00    +0.000 HD
ATOM     47  H   UNL     1      -5.449  -4.856  21.017  0.00  0.00    +0.000 HD
ATOM     48  H   UNL     1      -5.367  -2.566  22.820  0.00  0.00    +0.000 HD
ATOM     49  H   UNL     1      -8.922  -0.803  22.108  0.00  0.00    +0.000 HD
ATOM     50  H   UNL     1      -9.920  -2.833  20.074  0.00  0.00    +0.000 HD
ENDBRANCH  32  37
ENDBRANCH  27  28
ENDBRANCH   1  27
TORSDOF 7
ENDMDL
MODEL 8
REMARK VINA RESULT:   -10.878      1.750     10.458
REMARK INTER + INTRA:         -15.780
REMARK INTER:                 -15.197
REMARK INTRA:                  -0.583
REMARK UNBOUND:                -0.768
REMARK  Name = 
REMARK  7 active torsions:
REMARK  status: ('A' for Active; 'I' for Inactive)
REMARK    1  A    between atoms: N_1  and  C_2
REMARK    2  A    between atoms: C_2  and  C_3
REMARK    3  A    between atoms: C_2  and  C_20
REMARK    4  A    between atoms: C_3  and  O_4
REMARK    5  A    between atoms: O_4  and  C_5
REMARK    6  A    between atoms: C_9  and  C_10
REMARK    7  A    between atoms: C_20  and  C_21
REMARK                            x       y       z     vdW  Elec       q    Type
REMARK                         _______ _______ _______ _____ _____    ______ ____
ROOT
ATOM      1  C   UNL     1      -7.871  -5.051  20.303  0.00  0.00    +0.000 C 
ATOM      2  H   UNL     1      -7.037  -5.564  20.800  0.00  0.00    +0.000 HD
ATOM      3  H   UNL     1      -8.821  -5.480  20.648  0.00  0.00    +0.000 HD
ENDROOT
BRANCH   1   4
ATOM      4  C   UNL     1      -7.843  -3.559  20.677  0.00  0.00    +0.000 C 
ATOM      5  H   UNL     1      -7.462  -2.999  19.815  0.00  0.00    +0.000 HD
BRANCH   4   6
ATOM      6  N   UNL     1      -9.226  -3.096  20.914  0.00  0.00    +0.000 NA
ATOM      7  H   UNL     1      -9.540  -2.568  20.097  0.00  0.00    +0.000 HD
ATOM      8  H   UNL     1      -9.212  -2.422  21.682  0.00  0.00    +0.000 HD
ENDBRANCH   4   6
BRANCH   4   9
ATOM      9  C   UNL     1      -6.895  -3.329  21.879  0.00  0.00    +0.000 C 
ATOM     10  H   UNL     1      -6.279  -2.441  21.683  0.00  0.00    +0.000 HD
ATOM     11  H   UNL     1      -6.192  -4.165  21.985  0.00  0.00    +0.000 HD
BRANCH   9  12
ATOM     12  C   UNL     1      -7.620  -3.134  23.175  0.00  0.00    +0.000 A 
ATOM     13  C   UNL     1      -7.992  -4.113  24.075  0.00  0.00    +0.000 A 
ATOM     14  N   UNL     1      -8.590  -3.504  25.145  0.00  0.00    +0.000 N 
ATOM     15  C   UNL     1      -8.622  -2.141  24.962  0.00  0.00    +0.000 A 
ATOM     16  C   UNL     1      -9.116  -1.127  25.791  0.00  0.00    +0.000 A 
ATOM     17  C   UNL     1      -9.005   0.191  25.337  0.00  0.00    +0.000 A 
ATOM     18  C   UNL     1      -8.429   0.483  24.104  0.00  0.00    +0.000 A 
ATOM     19  C   UNL     1      -7.947  -0.544  23.287  0.00  0.00    +0.000 A 
ATOM     20  C   UNL     1      -8.038  -1.881  23.723  0.00  0.00    +0.000 A 
ATOM     21  H   UNL     1      -7.870  -5.189  24.051  0.00  0.00    +0.000 HD
ATOM     22  H   UNL     1      -8.947  -3.980  25.962  0.00  0.00    +0.000 HD
ATOM     23  H   UNL     1      -9.565  -1.348  26.752  0.00  0.00    +0.000 HD
ATOM     24  H   UNL     1      -9.374   1.004  25.959  0.00  0.00    +0.000 HD
ATOM     25  H   UNL     1      -8.349   1.515  23.770  0.00  0.00    +0.000 HD
ATOM     26  H   UNL     1      -7.497  -0.305  22.327  0.00  0.00    +0.000 HD
ENDBRANCH   9  12
ENDBRANCH   4   9
ENDBRANCH   1   4
BRANCH   1  27
ATOM     27  O   UNL     1      -7.753  -5.202  18.880  0.00  0.00    +0.000 OA
BRANCH  27  28
ATOM     28  C   UNL     1      -8.664  -6.023  18.281  0.00  0.00    +0.000 A 
ATOM     29  C   UNL     1      -9.924  -5.495  18.045  0.00  0.00    +0.000 A 
ATOM     30  N   UNL     1     -10.945  -6.187  17.488  0.00  0.00    +0.000 NA
ATOM     31  C   UNL     1     -10.691  -7.477  17.160  0.00  0.00    +0.000 A 
ATOM     32  C   UNL     1      -9.465  -8.124  17.335  0.00  0.00    +0.000 A 
ATOM     33  C   UNL     1      -8.440  -7.343  17.896  0.00  0.00    +0.000 A 
ATOM     34  H   UNL     1     -10.156  -4.468  18.310  0.00  0.00    +0.000 HD
ATOM     35  H   UNL     1     -11.550  -7.996  16.746  0.00  0.00    +0.000 HD
ATOM     36  H   UNL     1      -7.459  -7.787  18.023  0.00  0.00    +0.000 HD
BRANCH  32  37
ATOM     37  C   UNL     1      -9.243  -9.543  16.977  0.00  0.00    +0.000 A 
ATOM     38  C   UNL     1      -9.211  -9.968  15.635  0.00  0.00    +0.000 A 
ATOM     39  C   UNL     1      -9.011 -11.308  15.268  0.00  0.00    +0.000 A 
ATOM     40  C   UNL     1      -8.822 -12.225  16.301  0.00  0.00    +0.000 A 
ATOM     41  N   UNL     1      -8.598 -13.575  16.297  0.00  0.00    +0.000 N 
ATOM     42  N   UNL     1      -8.452 -14.116  17.522  0.00  0.00    +0.000 NA
ATOM     43  C   UNL     1      -8.599 -13.068  18.338  0.00  0.00    +0.000 A 
ATOM     44  C   UNL     1      -8.836 -11.865  17.640  0.00  0.00    +0.000 A 
ATOM     45  C   UNL     1      -9.056 -10.520  17.983  0.00  0.00    +0.000 A 
ATOM     46  H   UNL     1      -9.331  -9.244  14.828  0.00  0.00    +0.000 HD
ATOM     47  H   UNL     1      -8.996 -11.605  14.225  0.00  0.00    +0.000 HD
ATOM     48  H   UNL     1      -8.530 -14.189  15.492  0.00  0.00    +0.000 HD
ATOM     49  H   UNL     1      -8.522 -13.222  19.406  0.00  0.00    +0.000 HD
ATOM     50  H   UNL     1      -9.087 -10.256  19.036  0.00  0.00    +0.000 HD
ENDBRANCH  32  37
ENDBRANCH  27  28
ENDBRANCH   1  27
TORSDOF 7
ENDMDL
MODEL 9
REMARK VINA RESULT:   -10.771      4.941     10.211
REMARK INTER + INTRA:         -15.632
REMARK INTER:                 -14.938
REMARK INTRA:                  -0.694
REMARK UNBOUND:                -0.768
REMARK  Name = 
REMARK  7 active torsions:
REMARK  status: ('A' for Active; 'I' for Inactive)
REMARK    1  A    between atoms: N_1  and  C_2
REMARK    2  A    between atoms: C_2  and  C_3
REMARK    3  A    between atoms: C_2  and  C_20
REMARK    4  A    between atoms: C_3  and  O_4
REMARK    5  A    between atoms: O_4  and  C_5
REMARK    6  A    between atoms: C_9  and  C_10
REMARK    7  A    between atoms: C_20  and  C_21
REMARK                            x       y       z     vdW  Elec       q    Type
REMARK                         _______ _______ _______ _____ _____    ______ ____
ROOT
ATOM      1  C   UNL     1     -10.038  -6.660  16.130  0.00  0.00    +0.000 C 
ATOM      2  H   UNL     1     -10.536  -7.637  16.134  0.00  0.00    +0.000 HD
ATOM      3  H   UNL     1      -9.332  -6.613  15.290  0.00  0.00    +0.000 HD
ENDROOT
BRANCH   1   4
ATOM      4  C   UNL     1     -11.092  -5.554  15.946  0.00  0.00    +0.000 C 
ATOM      5  H   UNL     1     -11.730  -5.830  15.098  0.00  0.00    +0.000 HD
BRANCH   4   6
ATOM      6  N   UNL     1     -11.959  -5.510  17.141  0.00  0.00    +0.000 NA
ATOM      7  H   UNL     1     -11.399  -5.210  17.942  0.00  0.00    +0.000 HD
ATOM      8  H   UNL     1     -12.253  -6.464  17.359  0.00  0.00    +0.000 HD
ENDBRANCH   4   6
BRANCH   4   9
ATOM      9  C   UNL     1     -10.399  -4.206  15.629  0.00  0.00    +0.000 C 
ATOM     10  H   UNL     1      -9.572  -4.385  14.930  0.00  0.00    +0.000 HD
ATOM     11  H   UNL     1      -9.943  -3.782  16.533  0.00  0.00    +0.000 HD
BRANCH   9  12
ATOM     12  C   UNL     1     -11.326  -3.193  15.030  0.00  0.00    +0.000 A 
ATOM     13  C   UNL     1     -11.978  -2.170  15.688  0.00  0.00    +0.000 A 
ATOM     14  N   UNL     1     -12.686  -1.450  14.763  0.00  0.00    +0.000 N 
ATOM     15  C   UNL     1     -12.514  -1.986  13.508  0.00  0.00    +0.000 A 
ATOM     16  C   UNL     1     -13.025  -1.577  12.270  0.00  0.00    +0.000 A 
ATOM     17  C   UNL     1     -12.668  -2.325  11.144  0.00  0.00    +0.000 A 
ATOM     18  C   UNL     1     -11.839  -3.438  11.251  0.00  0.00    +0.000 A 
ATOM     19  C   UNL     1     -11.343  -3.835  12.496  0.00  0.00    +0.000 A 
ATOM     20  C   UNL     1     -11.680  -3.094  13.647  0.00  0.00    +0.000 A 
ATOM     21  H   UNL     1     -11.989  -1.885  16.733  0.00  0.00    +0.000 HD
ATOM     22  H   UNL     1     -13.247  -0.633  14.965  0.00  0.00    +0.000 HD
ATOM     23  H   UNL     1     -13.670  -0.711  12.181  0.00  0.00    +0.000 HD
ATOM     24  H   UNL     1     -13.043  -2.031  10.166  0.00  0.00    +0.000 HD
ATOM     25  H   UNL     1     -11.571  -4.004  10.362  0.00  0.00    +0.000 HD
ATOM     26  H   UNL     1     -10.695  -4.703  12.568  0.00  0.00    +0.000 HD
ENDBRANCH   9  12
ENDBRANCH   4   9
ENDBRANCH   1   4
BRANCH   1  27
ATOM     27  O   UNL     1      -9.338  -6.468  17.369  0.00  0.00    +0.000 OA
BRANCH  27  28
ATOM     28  C   UNL     1      -9.081  -7.591  18.100  0.00  0.00    +0.000 A 
ATOM     29  C   UNL     1      -8.755  -7.409  19.436  0.00  0.00    +0.000 A 
ATOM     30  N   UNL     1      -8.444  -8.415  20.285  0.00  0.00    +0.000 NA
ATOM     31  C   UNL     1      -8.452  -9.666  19.766  0.00  0.00    +0.000 A 
ATOM     32  C   UNL     1      -8.772  -9.986  18.444  0.00  0.00    +0.000 A 
ATOM     33  C   UNL     1      -9.108  -8.898  17.620  0.00  0.00    +0.000 A 
ATOM     34  H   UNL     1      -8.730  -6.415  19.872  0.00  0.00    +0.000 HD
ATOM     35  H   UNL     1      -8.165 -10.433  20.480  0.00  0.00    +0.000 HD
ATOM     36  H   UNL     1      -9.398  -9.095  16.594  0.00  0.00    +0.000 HD
BRANCH  32  37
ATOM     37  C   UNL     1      -8.748 -11.370  17.920  0.00  0.00    +0.000 A 
ATOM     38  C   UNL     1      -8.734 -12.485  18.781  0.00  0.00    +0.000 A 
ATOM     39  C   UNL     1      -8.702 -13.806  18.310  0.00  0.00    +0.000 A 
ATOM     40  C   UNL     1      -8.705 -13.986  16.927  0.00  0.00    +0.000 A 
ATOM     41  N   UNL     1      -8.688 -15.112  16.151  0.00  0.00    +0.000 N 
ATOM     42  N   UNL     1      -8.710 -14.872  14.825  0.00  0.00    +0.000 NA
ATOM     43  C   UNL     1      -8.733 -13.538  14.758  0.00  0.00    +0.000 A 
ATOM     44  C   UNL     1      -8.726 -12.928  16.031  0.00  0.00    +0.000 A 
ATOM     45  C   UNL     1      -8.738 -11.613  16.526  0.00  0.00    +0.000 A 
ATOM     46  H   UNL     1      -8.760 -12.341  19.861  0.00  0.00    +0.000 HD
ATOM     47  H   UNL     1      -8.687 -14.644  18.999  0.00  0.00    +0.000 HD
ATOM     48  H   UNL     1      -8.663 -16.078  16.461  0.00  0.00    +0.000 HD
ATOM     49  H   UNL     1      -8.758 -13.063  13.786  0.00  0.00    +0.000 HD
ATOM     50  H   UNL     1      -8.732 -10.795  15.812  0.00  0.00    +0.000 HD
ENDBRANCH  32  37
ENDBRANCH  27  28
ENDBRANCH   1  27
TORSDOF 7
ENDMDL
