REMARK  Name = 
REMARK  7 active torsions:
REMARK  status: ('A' for Active; 'I' for Inactive)
REMARK    1  A    between atoms: C_1  and  C_2
REMARK    2  A    between atoms: C_2  and  N_3
REMARK    3  A    between atoms: N_3  and  C_4
REMARK    4  A    between atoms: N_3  and  C_5
REMARK    5  A    between atoms: C_9  and  C_10
REMARK    6  A    between atoms: C_11  and  O_12
REMARK    7  A    between atoms: O_12  and  C_13
REMARK                            x       y       z     vdW  Elec       q    Type
REMARK                         _______ _______ _______ _____ _____    ______ ____
ROOT
ATOM      1  C   UNL     1       2.676  -1.429  -0.301  0.00  0.00    +0.000 C 
ATOM      2  C   UNL     1       1.359  -2.179  -0.657  0.00  0.00    +0.000 C 
ATOM      3  C   UNL     1       0.128  -1.293  -0.739  0.00  0.00    +0.000 C 
ATOM      4  O   UNL     1       0.663  -0.090  -1.378  0.00  0.00    +0.000 OA
ATOM      5  C   UNL     1       1.403   0.841  -0.496  0.00  0.00    +0.000 C 
ATOM      6  C   UNL     1       2.513   0.037   0.279  0.00  0.00    +0.000 C 
ATOM      7  N   UNL     1       0.378   1.560   0.316  0.00  0.00    +0.000 N 
ATOM      8  C   UNL     1       0.062   2.967   0.315  0.00  0.00    +0.000 A 
ATOM      9  C   UNL     1       0.283   3.943   1.313  0.00  0.00    +0.000 A 
ATOM     10  C   UNL     1      -0.467   5.129   1.271  0.00  0.00    +0.000 A 
ATOM     11  C   UNL     1      -1.330   5.419   0.220  0.00  0.00    +0.000 A 
ATOM     12  C   UNL     1      -1.544   4.505  -0.798  0.00  0.00    +0.000 A 
ATOM     13  C   UNL     1      -0.976   3.224  -0.675  0.00  0.00    +0.000 A 
ATOM     14  C   UNL     1      -1.434   1.969  -1.153  0.00  0.00    +0.000 A 
ATOM     15  C   UNL     1      -2.724   1.820  -1.653  0.00  0.00    +0.000 A 
ATOM     16  C   UNL     1      -3.631   1.202  -0.764  0.00  0.00    +0.000 A 
ATOM     17  C   UNL     1      -2.891   0.249   0.012  0.00  0.00    +0.000 A 
ATOM     18  C   UNL     1      -3.158  -1.117  -0.152  0.00  0.00    +0.000 A 
ATOM     19  C   UNL     1      -4.246  -1.851  -0.671  0.00  0.00    +0.000 A 
ATOM     20  C   UNL     1      -4.648  -2.914   0.118  0.00  0.00    +0.000 A 
ATOM     21  C   UNL     1      -3.903  -3.253   1.256  0.00  0.00    +0.000 A 
ATOM     22  C   UNL     1      -2.590  -2.758   1.461  0.00  0.00    +0.000 A 
ATOM     23  C   UNL     1      -2.105  -1.806   0.541  0.00  0.00    +0.000 A 
ATOM     24  N   UNL     1      -0.860  -1.054   0.386  0.00  0.00    +0.000 N 
ATOM     25  C   UNL     1      -1.522   0.157   0.313  0.00  0.00    +0.000 A 
ATOM     26  C   UNL     1      -0.845   1.244  -0.108  0.00  0.00    +0.000 A 
ATOM     27  C   UNL     1      -4.897   1.066  -1.408  0.00  0.00    +0.000 C 
ATOM     28  O   UNL     1      -6.026   0.880  -1.025  0.00  0.00    +0.000 OA
ATOM     29  N   UNL     1      -4.534   1.129  -2.764  0.00  0.00    +0.000 N 
ATOM     30  C   UNL     1      -3.110   1.325  -2.995  0.00  0.00    +0.000 C 
ATOM     31  H   UNL     1       3.146  -1.229  -1.281  0.00  0.00    +0.000 HD
ATOM     32  H   UNL     1       1.174  -3.131  -0.160  0.00  0.00    +0.000 HD
ATOM     33  H   UNL     1       1.541  -2.482  -1.707  0.00  0.00    +0.000 HD
ATOM     34  H   UNL     1      -0.520  -1.741  -1.505  0.00  0.00    +0.000 HD
ATOM     35  H   UNL     1       3.483   0.518   0.080  0.00  0.00    +0.000 HD
ATOM     36  H   UNL     1       0.881   3.745   2.194  0.00  0.00    +0.000 HD
ATOM     37  H   UNL     1      -0.418   5.816   2.113  0.00  0.00    +0.000 HD
ATOM     38  H   UNL     1      -1.928   6.326   0.236  0.00  0.00    +0.000 HD
ATOM     39  H   UNL     1      -2.309   4.680  -1.548  0.00  0.00    +0.000 HD
ATOM     40  H   UNL     1      -4.912  -1.466  -1.416  0.00  0.00    +0.000 HD
ATOM     41  H   UNL     1      -5.617  -3.358  -0.088  0.00  0.00    +0.000 HD
ATOM     42  H   UNL     1      -4.387  -3.876   1.998  0.00  0.00    +0.000 HD
ATOM     43  H   UNL     1      -2.053  -3.008   2.372  0.00  0.00    +0.000 HD
ATOM     44  H   UNL     1      -5.191   0.812  -3.449  0.00  0.00    +0.000 HD
ATOM     45  H   UNL     1      -2.662   0.333  -3.159  0.00  0.00    +0.000 HD
ATOM     46  H   UNL     1      -2.900   1.991  -3.833  0.00  0.00    +0.000 HD
ENDROOT
BRANCH   5  47
ATOM     47  C   UNL     1       2.075   1.806  -1.487  0.00  0.00    +0.000 C 
ATOM     48  H   UNL     1       2.572   2.631  -0.975  0.00  0.00    +0.000 HD
ATOM     49  H   UNL     1       1.342   2.227  -2.188  0.00  0.00    +0.000 HD
ATOM     50  H   UNL     1       2.809   1.281  -2.109  0.00  0.00    +0.000 HD
ENDBRANCH   5  47
BRANCH   1  51
ATOM     51  N   UNL     1       3.670  -2.213   0.469  0.00  0.00    +0.000 NA
BRANCH  51  52
ATOM     52  C   UNL     1       4.749  -2.816  -0.315  0.00  0.00    +0.000 C 
ATOM     53  H   UNL     1       5.600  -3.055   0.342  0.00  0.00    +0.000 HD
ATOM     54  H   UNL     1       5.148  -2.125  -1.056  0.00  0.00    +0.000 HD
ATOM     55  H   UNL     1       4.450  -3.739  -0.823  0.00  0.00    +0.000 HD
ENDBRANCH  51  52
BRANCH  51  56
ATOM     56  C   UNL     1       3.099  -3.140   1.447  0.00  0.00    +0.000 C 
ATOM     57  H   UNL     1       2.925  -4.135   1.013  0.00  0.00    +0.000 HD
ATOM     58  H   UNL     1       2.129  -2.780   1.809  0.00  0.00    +0.000 HD
BRANCH  56  59
ATOM     59  C   UNL     1       4.011  -3.239   2.656  0.00  0.00    +0.000 C 
ATOM     60  H   UNL     1       3.575  -3.904   3.405  0.00  0.00    +0.000 HD
ATOM     61  H   UNL     1       4.997  -3.631   2.393  0.00  0.00    +0.000 HD
ATOM     62  H   UNL     1       4.140  -2.249   3.106  0.00  0.00    +0.000 HD
ENDBRANCH  56  59
ENDBRANCH  51  56
ENDBRANCH   1  51
BRANCH   6  63
ATOM     63  O   UNL     1       2.363   0.034   1.710  0.00  0.00    +0.000 OA
BRANCH  63  64
ATOM     64  C   UNL     1       2.697   1.294   2.294  0.00  0.00    +0.000 C 
ATOM     65  H   UNL     1       3.566   1.771   1.826  0.00  0.00    +0.000 HD
ATOM     66  H   UNL     1       2.886   1.170   3.361  0.00  0.00    +0.000 HD
ATOM     67  H   UNL     1       1.846   1.956   2.215  0.00  0.00    +0.000 HD
ENDBRANCH  63  64
ENDBRANCH   6  63
TORSDOF 7
