MODEL 1
REMARK VINA RESULT:   -11.087      0.000      0.000
REMARK INTER + INTRA:         -13.032
REMARK INTER:                 -13.031
REMARK INTRA:                  -0.001
REMARK UNBOUND:                -0.001
REMARK  Name = 
REMARK  5 active torsions:
REMARK  status: ('A' for Active; 'I' for Inactive)
REMARK    1  A    between atoms: C_2  and  C_3
REMARK    2  A    between atoms: C_16  and  O_17
REMARK    3  A    between atoms: C_18  and  O_19
REMARK    4  A    between atoms: C_25  and  O_26
REMARK    5  A    between atoms: C_27  and  O_28
REMARK                            x       y       z     vdW  Elec       q    Type
REMARK                         _______ _______ _______ _____ _____    ______ ____
ROOT
ATOM      1  O   UNL     1     -10.498  -4.650  18.115  0.00  0.00    +0.000 OA
ATOM      2  C   UNL     1      -9.525  -5.147  18.679  0.00  0.00    +0.000 C 
ATOM      3  N   UNL     1      -8.750  -4.307  19.522  0.00  0.00    +0.000 N 
ATOM      4  C   UNL     1      -9.240  -3.163  20.180  0.00  0.00    +0.000 A 
ATOM      5  C   UNL     1     -10.514  -2.547  20.136  0.00  0.00    +0.000 A 
ATOM      6  C   UNL     1     -10.739  -1.446  20.962  0.00  0.00    +0.000 A 
ATOM      7  C   UNL     1      -9.750  -0.978  21.812  0.00  0.00    +0.000 A 
ATOM      8  C   UNL     1      -8.499  -1.580  21.866  0.00  0.00    +0.000 A 
ATOM      9  C   UNL     1      -8.243  -2.702  21.041  0.00  0.00    +0.000 A 
ATOM     10  C   UNL     1      -7.099  -3.535  20.868  0.00  0.00    +0.000 A 
ATOM     11  C   UNL     1      -5.815  -3.550  21.462  0.00  0.00    +0.000 A 
ATOM     12  C   UNL     1      -4.863  -4.503  21.080  0.00  0.00    +0.000 A 
ATOM     13  C   UNL     1      -5.172  -5.394  20.073  0.00  0.00    +0.000 A 
ATOM     14  C   UNL     1      -6.408  -5.359  19.432  0.00  0.00    +0.000 A 
ATOM     15  C   UNL     1      -7.409  -4.475  19.876  0.00  0.00    +0.000 A 
ATOM     16  H   UNL     1     -11.295  -2.916  19.479  0.00  0.00    +0.000 HD
ATOM     17  H   UNL     1      -7.741  -1.199  22.538  0.00  0.00    +0.000 HD
ATOM     18  H   UNL     1      -5.564  -2.815  22.222  0.00  0.00    +0.000 HD
ATOM     19  H   UNL     1      -3.892  -4.509  21.563  0.00  0.00    +0.000 HD
ENDROOT
BRANCH   2  20
ATOM     20  C   UNL     1      -9.293  -6.599  18.460  0.00  0.00    +0.000 A 
ATOM     21  C   UNL     1      -9.168  -7.429  19.577  0.00  0.00    +0.000 A 
ATOM     22  C   UNL     1      -9.023  -8.806  19.406  0.00  0.00    +0.000 A 
ATOM     23  C   UNL     1      -8.998  -9.369  18.120  0.00  0.00    +0.000 A 
ATOM     24  C   UNL     1      -8.864 -10.754  17.937  0.00  0.00    +0.000 A 
ATOM     25  C   UNL     1      -8.841 -11.305  16.655  0.00  0.00    +0.000 A 
ATOM     26  C   UNL     1      -8.974 -10.482  15.540  0.00  0.00    +0.000 A 
ATOM     27  C   UNL     1      -9.117  -9.104  15.704  0.00  0.00    +0.000 A 
ATOM     28  C   UNL     1      -9.109  -8.530  16.987  0.00  0.00    +0.000 A 
ATOM     29  C   UNL     1      -9.224  -7.143  17.169  0.00  0.00    +0.000 A 
ATOM     30  H   UNL     1      -9.214  -7.011  20.580  0.00  0.00    +0.000 HD
ATOM     31  H   UNL     1      -8.947  -9.439  20.287  0.00  0.00    +0.000 HD
ATOM     32  H   UNL     1      -8.767 -11.414  18.796  0.00  0.00    +0.000 HD
ATOM     33  H   UNL     1      -8.717 -12.378  16.529  0.00  0.00    +0.000 HD
ATOM     34  H   UNL     1      -8.962 -10.913  14.543  0.00  0.00    +0.000 HD
ATOM     35  H   UNL     1      -9.232  -8.479  14.821  0.00  0.00    +0.000 HD
ATOM     36  H   UNL     1      -9.325  -6.496  16.299  0.00  0.00    +0.000 HD
ENDBRANCH   2  20
BRANCH   6  37
ATOM     37  O   UNL     1     -11.946  -0.804  20.977  0.00  0.00    +0.000 OA
ATOM     38  H   UNL     1     -11.772   0.156  21.034  0.00  0.00    +0.000 HD
ENDBRANCH   6  37
BRANCH   7  39
ATOM     39  O   UNL     1     -10.000   0.097  22.619  0.00  0.00    +0.000 OA
ATOM     40  H   UNL     1      -9.112   0.412  22.884  0.00  0.00    +0.000 HD
ENDBRANCH   7  39
BRANCH  13  41
ATOM     41  O   UNL     1      -4.285  -6.352  19.650  0.00  0.00    +0.000 OA
ATOM     42  H   UNL     1      -4.788  -7.128  19.362  0.00  0.00    +0.000 HD
ENDBRANCH  13  41
BRANCH  14  43
ATOM     43  O   UNL     1      -6.586  -6.193  18.355  0.00  0.00    +0.000 OA
ATOM     44  H   UNL     1      -6.871  -5.608  17.623  0.00  0.00    +0.000 HD
ENDBRANCH  14  43
TORSDOF 5
ENDMDL
MODEL 2
REMARK VINA RESULT:   -10.959      2.057      4.221
REMARK INTER + INTRA:         -12.882
REMARK INTER:                 -13.985
REMARK INTRA:                   1.103
REMARK UNBOUND:                -0.001
REMARK  Name = 
REMARK  5 active torsions:
REMARK  status: ('A' for Active; 'I' for Inactive)
REMARK    1  A    between atoms: C_2  and  C_3
REMARK    2  A    between atoms: C_16  and  O_17
REMARK    3  A    between atoms: C_18  and  O_19
REMARK    4  A    between atoms: C_25  and  O_26
REMARK    5  A    between atoms: C_27  and  O_28
REMARK                            x       y       z     vdW  Elec       q    Type
REMARK                         _______ _______ _______ _____ _____    ______ ____
ROOT
ATOM      1  O   UNL     1      -8.643  -7.545  20.213  0.00  0.00    +0.000 OA
ATOM      2  C   UNL     1      -8.980  -7.138  19.103  0.00  0.00    +0.000 C 
ATOM      3  N   UNL     1      -9.345  -5.770  18.983  0.00  0.00    +0.000 N 
ATOM      4  C   UNL     1      -8.884  -4.743  19.828  0.00  0.00    +0.000 A 
ATOM      5  C   UNL     1      -8.052  -4.791  20.972  0.00  0.00    +0.000 A 
ATOM      6  C   UNL     1      -7.698  -3.585  21.577  0.00  0.00    +0.000 A 
ATOM      7  C   UNL     1      -8.135  -2.375  21.065  0.00  0.00    +0.000 A 
ATOM      8  C   UNL     1      -8.947  -2.318  19.940  0.00  0.00    +0.000 A 
ATOM      9  C   UNL     1      -9.321  -3.525  19.302  0.00  0.00    +0.000 A 
ATOM     10  C   UNL     1     -10.114  -3.808  18.151  0.00  0.00    +0.000 A 
ATOM     11  C   UNL     1     -10.805  -2.988  17.228  0.00  0.00    +0.000 A 
ATOM     12  C   UNL     1     -11.529  -3.555  16.173  0.00  0.00    +0.000 A 
ATOM     13  C   UNL     1     -11.612  -4.929  16.078  0.00  0.00    +0.000 A 
ATOM     14  C   UNL     1     -10.990  -5.756  17.011  0.00  0.00    +0.000 A 
ATOM     15  C   UNL     1     -10.175  -5.200  18.014  0.00  0.00    +0.000 A 
ATOM     16  H   UNL     1      -7.698  -5.736  21.371  0.00  0.00    +0.000 HD
ATOM     17  H   UNL     1      -9.277  -1.360  19.556  0.00  0.00    +0.000 HD
ATOM     18  H   UNL     1     -10.772  -1.907  17.338  0.00  0.00    +0.000 HD
ATOM     19  H   UNL     1     -12.034  -2.907  15.465  0.00  0.00    +0.000 HD
ENDROOT
BRANCH   2  20
ATOM     20  C   UNL     1      -8.916  -8.113  17.984  0.00  0.00    +0.000 A 
ATOM     21  C   UNL     1      -8.666  -7.633  16.695  0.00  0.00    +0.000 A 
ATOM     22  C   UNL     1      -8.527  -8.529  15.635  0.00  0.00    +0.000 A 
ATOM     23  C   UNL     1      -8.640  -9.913  15.847  0.00  0.00    +0.000 A 
ATOM     24  C   UNL     1      -8.491 -10.823  14.790  0.00  0.00    +0.000 A 
ATOM     25  C   UNL     1      -8.604 -12.197  15.011  0.00  0.00    +0.000 A 
ATOM     26  C   UNL     1      -8.844 -12.679  16.294  0.00  0.00    +0.000 A 
ATOM     27  C   UNL     1      -8.987 -11.788  17.358  0.00  0.00    +0.000 A 
ATOM     28  C   UNL     1      -8.909 -10.401  17.147  0.00  0.00    +0.000 A 
ATOM     29  C   UNL     1      -9.077  -9.490  18.202  0.00  0.00    +0.000 A 
ATOM     30  H   UNL     1      -8.548  -6.566  16.520  0.00  0.00    +0.000 HD
ATOM     31  H   UNL     1      -8.313  -8.139  14.643  0.00  0.00    +0.000 HD
ATOM     32  H   UNL     1      -8.295 -10.467  13.782  0.00  0.00    +0.000 HD
ATOM     33  H   UNL     1      -8.505 -12.889  14.178  0.00  0.00    +0.000 HD
ATOM     34  H   UNL     1      -8.926 -13.749  16.466  0.00  0.00    +0.000 HD
ATOM     35  H   UNL     1      -9.162 -12.186  18.356  0.00  0.00    +0.000 HD
ATOM     36  H   UNL     1      -9.268  -9.863  19.206  0.00  0.00    +0.000 HD
ENDBRANCH   2  20
BRANCH   6  37
ATOM     37  O   UNL     1      -6.892  -3.554  22.682  0.00  0.00    +0.000 OA
ATOM     38  H   UNL     1      -7.047  -4.377  23.187  0.00  0.00    +0.000 HD
ENDBRANCH   6  37
BRANCH   7  39
ATOM     39  O   UNL     1      -7.765  -1.206  21.672  0.00  0.00    +0.000 OA
ATOM     40  H   UNL     1      -7.779  -0.545  20.951  0.00  0.00    +0.000 HD
ENDBRANCH   7  39
BRANCH  13  41
ATOM     41  O   UNL     1     -12.307  -5.549  15.070  0.00  0.00    +0.000 OA
ATOM     42  H   UNL     1     -13.148  -5.084  14.948  0.00  0.00    +0.000 HD
ENDBRANCH  13  41
BRANCH  14  43
ATOM     43  O   UNL     1     -11.229  -7.106  16.918  0.00  0.00    +0.000 OA
ATOM     44  H   UNL     1     -12.200  -7.199  17.008  0.00  0.00    +0.000 HD
ENDBRANCH  14  43
TORSDOF 5
ENDMDL
MODEL 3
REMARK VINA RESULT:   -10.094      2.408      4.439
REMARK INTER + INTRA:         -11.866
REMARK INTER:                 -12.582
REMARK INTRA:                   0.716
REMARK UNBOUND:                -0.001
REMARK  Name = 
REMARK  5 active torsions:
REMARK  status: ('A' for Active; 'I' for Inactive)
REMARK    1  A    between atoms: C_2  and  C_3
REMARK    2  A    between atoms: C_16  and  O_17
REMARK    3  A    between atoms: C_18  and  O_19
REMARK    4  A    between atoms: C_25  and  O_26
REMARK    5  A    between atoms: C_27  and  O_28
REMARK                            x       y       z     vdW  Elec       q    Type
REMARK                         _______ _______ _______ _____ _____    ______ ____
ROOT
ATOM      1  O   UNL     1      -9.382  -6.485  19.565  0.00  0.00    +0.000 OA
ATOM      2  C   UNL     1      -9.561  -6.178  18.388  0.00  0.00    +0.000 C 
ATOM      3  N   UNL     1      -9.915  -4.832  18.102  0.00  0.00    +0.000 N 
ATOM      4  C   UNL     1      -9.583  -3.730  18.913  0.00  0.00    +0.000 A 
ATOM      5  C   UNL     1      -8.920  -3.667  20.162  0.00  0.00    +0.000 A 
ATOM      6  C   UNL     1      -8.662  -2.409  20.705  0.00  0.00    +0.000 A 
ATOM      7  C   UNL     1      -9.030  -1.253  20.036  0.00  0.00    +0.000 A 
ATOM      8  C   UNL     1      -9.676  -1.305  18.807  0.00  0.00    +0.000 A 
ATOM      9  C   UNL     1      -9.949  -2.568  18.229  0.00  0.00    +0.000 A 
ATOM     10  C   UNL     1     -10.570  -2.961  17.007  0.00  0.00    +0.000 A 
ATOM     11  C   UNL     1     -11.129  -2.233  15.929  0.00  0.00    +0.000 A 
ATOM     12  C   UNL     1     -11.694  -2.899  14.836  0.00  0.00    +0.000 A 
ATOM     13  C   UNL     1     -11.754  -4.278  14.847  0.00  0.00    +0.000 A 
ATOM     14  C   UNL     1     -11.265  -5.013  15.925  0.00  0.00    +0.000 A 
ATOM     15  C   UNL     1     -10.603  -4.360  16.981  0.00  0.00    +0.000 A 
ATOM     16  H   UNL     1      -8.621  -4.569  20.685  0.00  0.00    +0.000 HD
ATOM     17  H   UNL     1      -9.954  -0.389  18.300  0.00  0.00    +0.000 HD
ATOM     18  H   UNL     1     -11.119  -1.146  15.950  0.00  0.00    +0.000 HD
ATOM     19  H   UNL     1     -12.098  -2.322  14.011  0.00  0.00    +0.000 HD
ENDROOT
BRANCH   2  20
ATOM     20  C   UNL     1      -9.335  -7.243  17.376  0.00  0.00    +0.000 A 
ATOM     21  C   UNL     1      -8.793  -6.881  16.139  0.00  0.00    +0.000 A 
ATOM     22  C   UNL     1      -8.500  -7.866  15.196  0.00  0.00    +0.000 A 
ATOM     23  C   UNL     1      -8.747  -9.220  15.473  0.00  0.00    +0.000 A 
ATOM     24  C   UNL     1      -8.446 -10.219  14.535  0.00  0.00    +0.000 A 
ATOM     25  C   UNL     1      -8.693 -11.563  14.820  0.00  0.00    +0.000 A 
ATOM     26  C   UNL     1      -9.225 -11.927  16.054  0.00  0.00    +0.000 A 
ATOM     27  C   UNL     1      -9.523 -10.947  17.001  0.00  0.00    +0.000 A 
ATOM     28  C   UNL     1      -9.310  -9.588  16.717  0.00  0.00    +0.000 A 
ATOM     29  C   UNL     1      -9.629  -8.587  17.649  0.00  0.00    +0.000 A 
ATOM     30  H   UNL     1      -8.570  -5.839  15.921  0.00  0.00    +0.000 HD
ATOM     31  H   UNL     1      -8.060  -7.569  14.247  0.00  0.00    +0.000 HD
ATOM     32  H   UNL     1      -8.022  -9.955  13.569  0.00  0.00    +0.000 HD
ATOM     33  H   UNL     1      -8.472 -12.324  14.075  0.00  0.00    +0.000 HD
ATOM     34  H   UNL     1      -9.412 -12.974  16.276  0.00  0.00    +0.000 HD
ATOM     35  H   UNL     1      -9.926 -11.254  17.964  0.00  0.00    +0.000 HD
ATOM     36  H   UNL     1     -10.048  -8.868  18.613  0.00  0.00    +0.000 HD
ENDBRANCH   2  20
BRANCH   6  37
ATOM     37  O   UNL     1      -8.021  -2.271  21.906  0.00  0.00    +0.000 OA
ATOM     38  H   UNL     1      -7.064  -2.198  21.725  0.00  0.00    +0.000 HD
ENDBRANCH   6  37
BRANCH   7  39
ATOM     39  O   UNL     1      -8.757  -0.032  20.587  0.00  0.00    +0.000 OA
ATOM     40  H   UNL     1      -9.370   0.581  20.133  0.00  0.00    +0.000 HD
ENDBRANCH   7  39
BRANCH  13  41
ATOM     41  O   UNL     1     -12.296  -4.992  13.809  0.00  0.00    +0.000 OA
ATOM     42  H   UNL     1     -12.088  -5.929  13.941  0.00  0.00    +0.000 HD
ENDBRANCH  13  41
BRANCH  14  43
ATOM     43  O   UNL     1     -11.481  -6.369  15.915  0.00  0.00    +0.000 OA
ATOM     44  H   UNL     1     -12.105  -6.523  15.176  0.00  0.00    +0.000 HD
ENDBRANCH  14  43
TORSDOF 5
ENDMDL
MODEL 4
REMARK VINA RESULT:    -9.637      2.076      2.893
REMARK INTER + INTRA:         -11.328
REMARK INTER:                 -11.558
REMARK INTRA:                   0.229
REMARK UNBOUND:                -0.001
REMARK  Name = 
REMARK  5 active torsions:
REMARK  status: ('A' for Active; 'I' for Inactive)
REMARK    1  A    between atoms: C_2  and  C_3
REMARK    2  A    between atoms: C_16  and  O_17
REMARK    3  A    between atoms: C_18  and  O_19
REMARK    4  A    between atoms: C_25  and  O_26
REMARK    5  A    between atoms: C_27  and  O_28
REMARK                            x       y       z     vdW  Elec       q    Type
REMARK                         _______ _______ _______ _____ _____    ______ ____
ROOT
ATOM      1  O   UNL     1     -10.495  -5.564  15.132  0.00  0.00    +0.000 OA
ATOM      2  C   UNL     1     -10.030  -5.871  16.228  0.00  0.00    +0.000 C 
ATOM      3  N   UNL     1      -9.828  -4.830  17.174  0.00  0.00    +0.000 N 
ATOM      4  C   UNL     1     -10.553  -3.624  17.203  0.00  0.00    +0.000 A 
ATOM      5  C   UNL     1     -11.554  -3.128  16.334  0.00  0.00    +0.000 A 
ATOM      6  C   UNL     1     -12.158  -1.912  16.656  0.00  0.00    +0.000 A 
ATOM      7  C   UNL     1     -11.798  -1.218  17.800  0.00  0.00    +0.000 A 
ATOM      8  C   UNL     1     -10.821  -1.701  18.661  0.00  0.00    +0.000 A 
ATOM      9  C   UNL     1     -10.193  -2.934  18.362  0.00  0.00    +0.000 A 
ATOM     10  C   UNL     1      -9.187  -3.695  19.026  0.00  0.00    +0.000 A 
ATOM     11  C   UNL     1      -8.461  -3.499  20.225  0.00  0.00    +0.000 A 
ATOM     12  C   UNL     1      -7.501  -4.430  20.638  0.00  0.00    +0.000 A 
ATOM     13  C   UNL     1      -7.228  -5.516  19.830  0.00  0.00    +0.000 A 
ATOM     14  C   UNL     1      -7.888  -5.696  18.617  0.00  0.00    +0.000 A 
ATOM     15  C   UNL     1      -8.926  -4.824  18.241  0.00  0.00    +0.000 A 
ATOM     16  H   UNL     1     -11.846  -3.672  15.442  0.00  0.00    +0.000 HD
ATOM     17  H   UNL     1     -10.557  -1.143  19.550  0.00  0.00    +0.000 HD
ATOM     18  H   UNL     1      -8.649  -2.617  20.832  0.00  0.00    +0.000 HD
ATOM     19  H   UNL     1      -6.971  -4.271  21.570  0.00  0.00    +0.000 HD
ENDROOT
BRANCH   2  20
ATOM     20  C   UNL     1      -9.777  -7.315  16.469  0.00  0.00    +0.000 A 
ATOM     21  C   UNL     1     -10.182  -7.868  17.687  0.00  0.00    +0.000 A 
ATOM     22  C   UNL     1     -10.026  -9.235  17.915  0.00  0.00    +0.000 A 
ATOM     23  C   UNL     1      -9.461 -10.065  16.933  0.00  0.00    +0.000 A 
ATOM     24  C   UNL     1      -9.310 -11.444  17.148  0.00  0.00    +0.000 A 
ATOM     25  C   UNL     1      -8.749 -12.261  16.166  0.00  0.00    +0.000 A 
ATOM     26  C   UNL     1      -8.353 -11.715  14.948  0.00  0.00    +0.000 A 
ATOM     27  C   UNL     1      -8.503 -10.349  14.715  0.00  0.00    +0.000 A 
ATOM     28  C   UNL     1      -9.036  -9.507  15.706  0.00  0.00    +0.000 A 
ATOM     29  C   UNL     1      -9.170  -8.125  15.497  0.00  0.00    +0.000 A 
ATOM     30  H   UNL     1     -10.647  -7.243  18.446  0.00  0.00    +0.000 HD
ATOM     31  H   UNL     1     -10.365  -9.652  18.861  0.00  0.00    +0.000 HD
ATOM     32  H   UNL     1      -9.622 -11.890  18.089  0.00  0.00    +0.000 HD
ATOM     33  H   UNL     1      -8.621 -13.324  16.355  0.00  0.00    +0.000 HD
ATOM     34  H   UNL     1      -7.922 -12.354  14.182  0.00  0.00    +0.000 HD
ATOM     35  H   UNL     1      -8.199  -9.944  13.752  0.00  0.00    +0.000 HD
ATOM     36  H   UNL     1      -8.858  -7.694  14.548  0.00  0.00    +0.000 HD
ENDBRANCH   2  20
BRANCH   6  37
ATOM     37  O   UNL     1     -13.136  -1.373  15.866  0.00  0.00    +0.000 OA
ATOM     38  H   UNL     1     -12.911  -0.435  15.713  0.00  0.00    +0.000 HD
ENDBRANCH   6  37
BRANCH   7  39
ATOM     39  O   UNL     1     -12.413  -0.032  18.097  0.00  0.00    +0.000 OA
ATOM     40  H   UNL     1     -12.800   0.259  17.247  0.00  0.00    +0.000 HD
ENDBRANCH   7  39
BRANCH  13  41
ATOM     41  O   UNL     1      -6.299  -6.464  20.175  0.00  0.00    +0.000 OA
ATOM     42  H   UNL     1      -6.765  -7.288  20.381  0.00  0.00    +0.000 HD
ENDBRANCH  13  41
BRANCH  14  43
ATOM     43  O   UNL     1      -7.465  -6.729  17.816  0.00  0.00    +0.000 OA
ATOM     44  H   UNL     1      -7.960  -6.621  16.977  0.00  0.00    +0.000 HD
ENDBRANCH  14  43
TORSDOF 5
ENDMDL
MODEL 5
REMARK VINA RESULT:    -8.461      3.455      8.594
REMARK INTER + INTRA:          -9.946
REMARK INTER:                  -9.894
REMARK INTRA:                  -0.051
REMARK UNBOUND:                -0.001
REMARK  Name = 
REMARK  5 active torsions:
REMARK  status: ('A' for Active; 'I' for Inactive)
REMARK    1  A    between atoms: C_2  and  C_3
REMARK    2  A    between atoms: C_16  and  O_17
REMARK    3  A    between atoms: C_18  and  O_19
REMARK    4  A    between atoms: C_25  and  O_26
REMARK    5  A    between atoms: C_27  and  O_28
REMARK                            x       y       z     vdW  Elec       q    Type
REMARK                         _______ _______ _______ _____ _____    ______ ____
ROOT
ATOM      1  O   UNL     1      -8.354  -9.258  19.580  0.00  0.00    +0.000 OA
ATOM      2  C   UNL     1      -8.845  -8.869  18.521  0.00  0.00    +0.000 C 
ATOM      3  N   UNL     1      -8.816  -9.759  17.414  0.00  0.00    +0.000 N 
ATOM      4  C   UNL     1      -8.775 -11.162  17.517  0.00  0.00    +0.000 A 
ATOM      5  C   UNL     1      -8.691 -12.003  18.653  0.00  0.00    +0.000 A 
ATOM      6  C   UNL     1      -8.740 -13.382  18.453  0.00  0.00    +0.000 A 
ATOM      7  C   UNL     1      -8.883 -13.914  17.181  0.00  0.00    +0.000 A 
ATOM      8  C   UNL     1      -8.972 -13.096  16.062  0.00  0.00    +0.000 A 
ATOM      9  C   UNL     1      -8.927 -11.692  16.234  0.00  0.00    +0.000 A 
ATOM     10  C   UNL     1      -9.002 -10.601  15.319  0.00  0.00    +0.000 A 
ATOM     11  C   UNL     1      -9.157 -10.526  13.914  0.00  0.00    +0.000 A 
ATOM     12  C   UNL     1      -9.188  -9.287  13.265  0.00  0.00    +0.000 A 
ATOM     13  C   UNL     1      -9.005  -8.136  14.005  0.00  0.00    +0.000 A 
ATOM     14  C   UNL     1      -8.791  -8.189  15.381  0.00  0.00    +0.000 A 
ATOM     15  C   UNL     1      -8.861  -9.420  16.059  0.00  0.00    +0.000 A 
ATOM     16  H   UNL     1      -8.589 -11.591  19.651  0.00  0.00    +0.000 HD
ATOM     17  H   UNL     1      -9.083 -13.533  15.078  0.00  0.00    +0.000 HD
ATOM     18  H   UNL     1      -9.254 -11.440  13.333  0.00  0.00    +0.000 HD
ATOM     19  H   UNL     1      -9.328  -9.252  12.190  0.00  0.00    +0.000 HD
ENDROOT
BRANCH   2  20
ATOM     20  C   UNL     1      -9.468  -7.520  18.527  0.00  0.00    +0.000 A 
ATOM     21  C   UNL     1     -10.809  -7.405  18.151  0.00  0.00    +0.000 A 
ATOM     22  C   UNL     1     -11.444  -6.164  18.216  0.00  0.00    +0.000 A 
ATOM     23  C   UNL     1     -10.748  -5.025  18.653  0.00  0.00    +0.000 A 
ATOM     24  C   UNL     1     -11.381  -3.776  18.732  0.00  0.00    +0.000 A 
ATOM     25  C   UNL     1     -10.682  -2.649  19.169  0.00  0.00    +0.000 A 
ATOM     26  C   UNL     1      -9.348  -2.762  19.552  0.00  0.00    +0.000 A 
ATOM     27  C   UNL     1      -8.706  -3.999  19.486  0.00  0.00    +0.000 A 
ATOM     28  C   UNL     1      -9.387  -5.135  19.018  0.00  0.00    +0.000 A 
ATOM     29  C   UNL     1      -8.748  -6.382  18.921  0.00  0.00    +0.000 A 
ATOM     30  H   UNL     1     -11.369  -8.283  17.838  0.00  0.00    +0.000 HD
ATOM     31  H   UNL     1     -12.494  -6.097  17.939  0.00  0.00    +0.000 HD
ATOM     32  H   UNL     1     -12.424  -3.669  18.446  0.00  0.00    +0.000 HD
ATOM     33  H   UNL     1     -11.181  -1.684  19.207  0.00  0.00    +0.000 HD
ATOM     34  H   UNL     1      -8.807  -1.885  19.897  0.00  0.00    +0.000 HD
ATOM     35  H   UNL     1      -7.667  -4.068  19.802  0.00  0.00    +0.000 HD
ATOM     36  H   UNL     1      -7.705  -6.474  19.217  0.00  0.00    +0.000 HD
ENDBRANCH   2  20
BRANCH   6  37
ATOM     37  O   UNL     1      -8.670 -14.256  19.503  0.00  0.00    +0.000 OA
ATOM     38  H   UNL     1      -8.744 -15.161  19.143  0.00  0.00    +0.000 HD
ENDBRANCH   6  37
BRANCH   7  39
ATOM     39  O   UNL     1      -8.938 -15.271  17.014  0.00  0.00    +0.000 OA
ATOM     40  H   UNL     1      -9.767 -15.418  16.515  0.00  0.00    +0.000 HD
ENDBRANCH   7  39
BRANCH  13  41
ATOM     41  O   UNL     1      -9.023  -6.890  13.431  0.00  0.00    +0.000 OA
ATOM     42  H   UNL     1      -9.092  -6.997  12.471  0.00  0.00    +0.000 HD
ENDBRANCH  13  41
BRANCH  14  43
ATOM     43  O   UNL     1      -8.490  -7.011  16.019  0.00  0.00    +0.000 OA
ATOM     44  H   UNL     1      -8.500  -6.330  15.315  0.00  0.00    +0.000 HD
ENDBRANCH  14  43
TORSDOF 5
ENDMDL
MODEL 6
REMARK VINA RESULT:    -8.396      2.278      7.599
REMARK INTER + INTRA:          -9.869
REMARK INTER:                  -9.804
REMARK INTRA:                  -0.065
REMARK UNBOUND:                -0.001
REMARK  Name = 
REMARK  5 active torsions:
REMARK  status: ('A' for Active; 'I' for Inactive)
REMARK    1  A    between atoms: C_2  and  C_3
REMARK    2  A    between atoms: C_16  and  O_17
REMARK    3  A    between atoms: C_18  and  O_19
REMARK    4  A    between atoms: C_25  and  O_26
REMARK    5  A    between atoms: C_27  and  O_28
REMARK                            x       y       z     vdW  Elec       q    Type
REMARK                         _______ _______ _______ _____ _____    ______ ____
ROOT
ATOM      1  O   UNL     1     -11.920  -3.621  19.016  0.00  0.00    +0.000 OA
ATOM      2  C   UNL     1     -10.788  -3.239  19.310  0.00  0.00    +0.000 C 
ATOM      3  N   UNL     1      -9.725  -4.175  19.198  0.00  0.00    +0.000 N 
ATOM      4  C   UNL     1      -9.723  -5.282  18.328  0.00  0.00    +0.000 A 
ATOM      5  C   UNL     1     -10.719  -5.765  17.445  0.00  0.00    +0.000 A 
ATOM      6  C   UNL     1     -10.405  -6.860  16.639  0.00  0.00    +0.000 A 
ATOM      7  C   UNL     1      -9.152  -7.447  16.690  0.00  0.00    +0.000 A 
ATOM      8  C   UNL     1      -8.167  -6.976  17.549  0.00  0.00    +0.000 A 
ATOM      9  C   UNL     1      -8.455  -5.864  18.377  0.00  0.00    +0.000 A 
ATOM     10  C   UNL     1      -7.683  -5.145  19.336  0.00  0.00    +0.000 A 
ATOM     11  C   UNL     1      -6.352  -5.275  19.800  0.00  0.00    +0.000 A 
ATOM     12  C   UNL     1      -5.851  -4.412  20.781  0.00  0.00    +0.000 A 
ATOM     13  C   UNL     1      -6.690  -3.468  21.337  0.00  0.00    +0.000 A 
ATOM     14  C   UNL     1      -8.021  -3.362  20.939  0.00  0.00    +0.000 A 
ATOM     15  C   UNL     1      -8.507  -4.153  19.882  0.00  0.00    +0.000 A 
ATOM     16  H   UNL     1     -11.698  -5.302  17.395  0.00  0.00    +0.000 HD
ATOM     17  H   UNL     1      -7.194  -7.449  17.571  0.00  0.00    +0.000 HD
ATOM     18  H   UNL     1      -5.712  -6.052  19.389  0.00  0.00    +0.000 HD
ATOM     19  H   UNL     1      -4.822  -4.517  21.107  0.00  0.00    +0.000 HD
ENDROOT
BRANCH   2  20
ATOM     20  C   UNL     1     -10.643  -1.813  19.702  0.00  0.00    +0.000 A 
ATOM     21  C   UNL     1      -9.853  -0.981  18.903  0.00  0.00    +0.000 A 
ATOM     22  C   UNL     1      -9.756   0.379  19.202  0.00  0.00    +0.000 A 
ATOM     23  C   UNL     1     -10.441   0.922  20.301  0.00  0.00    +0.000 A 
ATOM     24  C   UNL     1     -10.359   2.289  20.604  0.00  0.00    +0.000 A 
ATOM     25  C   UNL     1     -11.044   2.820  21.698  0.00  0.00    +0.000 A 
ATOM     26  C   UNL     1     -11.837   1.995  22.490  0.00  0.00    +0.000 A 
ATOM     27  C   UNL     1     -11.937   0.635  22.199  0.00  0.00    +0.000 A 
ATOM     28  C   UNL     1     -11.228   0.079  21.121  0.00  0.00    +0.000 A 
ATOM     29  C   UNL     1     -11.295  -1.293  20.829  0.00  0.00    +0.000 A 
ATOM     30  H   UNL     1      -9.340  -1.381  18.032  0.00  0.00    +0.000 HD
ATOM     31  H   UNL     1      -9.155   1.016  18.558  0.00  0.00    +0.000 HD
ATOM     32  H   UNL     1      -9.751   2.951  19.992  0.00  0.00    +0.000 HD
ATOM     33  H   UNL     1     -10.955   3.878  21.930  0.00  0.00    +0.000 HD
ATOM     34  H   UNL     1     -12.375   2.411  23.338  0.00  0.00    +0.000 HD
ATOM     35  H   UNL     1     -12.572   0.009  22.823  0.00  0.00    +0.000 HD
ATOM     36  H   UNL     1     -11.912  -1.942  21.449  0.00  0.00    +0.000 HD
ENDBRANCH   2  20
BRANCH   6  37
ATOM     37  O   UNL     1     -11.315  -7.378  15.759  0.00  0.00    +0.000 OA
ATOM     38  H   UNL     1     -12.096  -7.664  16.273  0.00  0.00    +0.000 HD
ENDBRANCH   6  37
BRANCH   7  39
ATOM     39  O   UNL     1      -8.867  -8.514  15.882  0.00  0.00    +0.000 OA
ATOM     40  H   UNL     1      -8.220  -8.162  15.237  0.00  0.00    +0.000 HD
ENDBRANCH   7  39
BRANCH  13  41
ATOM     41  O   UNL     1      -6.264  -2.594  22.304  0.00  0.00    +0.000 OA
ATOM     42  H   UNL     1      -6.290  -3.047  23.160  0.00  0.00    +0.000 HD
ENDBRANCH  13  41
BRANCH  14  43
ATOM     43  O   UNL     1      -8.820  -2.485  21.632  0.00  0.00    +0.000 OA
ATOM     44  H   UNL     1      -9.282  -1.963  20.944  0.00  0.00    +0.000 HD
ENDBRANCH  14  43
TORSDOF 5
ENDMDL
MODEL 7
REMARK VINA RESULT:    -8.181      2.220      7.724
REMARK INTER + INTRA:          -9.616
REMARK INTER:                  -9.610
REMARK INTRA:                  -0.006
REMARK UNBOUND:                -0.001
REMARK  Name = 
REMARK  5 active torsions:
REMARK  status: ('A' for Active; 'I' for Inactive)
REMARK    1  A    between atoms: C_2  and  C_3
REMARK    2  A    between atoms: C_16  and  O_17
REMARK    3  A    between atoms: C_18  and  O_19
REMARK    4  A    between atoms: C_25  and  O_26
REMARK    5  A    between atoms: C_27  and  O_28
REMARK                            x       y       z     vdW  Elec       q    Type
REMARK                         _______ _______ _______ _____ _____    ______ ____
ROOT
ATOM      1  O   UNL     1      -6.828  -5.861  20.113  0.00  0.00    +0.000 OA
ATOM      2  C   UNL     1      -7.778  -5.081  20.115  0.00  0.00    +0.000 C 
ATOM      3  N   UNL     1      -8.802  -5.284  19.152  0.00  0.00    +0.000 N 
ATOM      4  C   UNL     1      -9.113  -6.526  18.566  0.00  0.00    +0.000 A 
ATOM      5  C   UNL     1      -8.502  -7.795  18.711  0.00  0.00    +0.000 A 
ATOM      6  C   UNL     1      -9.078  -8.880  18.051  0.00  0.00    +0.000 A 
ATOM      7  C   UNL     1     -10.224  -8.724  17.288  0.00  0.00    +0.000 A 
ATOM      8  C   UNL     1     -10.833  -7.484  17.145  0.00  0.00    +0.000 A 
ATOM      9  C   UNL     1     -10.272  -6.364  17.806  0.00  0.00    +0.000 A 
ATOM     10  C   UNL     1     -10.649  -4.991  17.873  0.00  0.00    +0.000 A 
ATOM     11  C   UNL     1     -11.719  -4.253  17.314  0.00  0.00    +0.000 A 
ATOM     12  C   UNL     1     -11.836  -2.878  17.547  0.00  0.00    +0.000 A 
ATOM     13  C   UNL     1     -10.859  -2.235  18.280  0.00  0.00    +0.000 A 
ATOM     14  C   UNL     1      -9.764  -2.931  18.788  0.00  0.00    +0.000 A 
ATOM     15  C   UNL     1      -9.690  -4.329  18.650  0.00  0.00    +0.000 A 
ATOM     16  H   UNL     1      -7.610  -7.924  19.316  0.00  0.00    +0.000 HD
ATOM     17  H   UNL     1     -11.729  -7.385  16.544  0.00  0.00    +0.000 HD
ATOM     18  H   UNL     1     -12.459  -4.759  16.699  0.00  0.00    +0.000 HD
ATOM     19  H   UNL     1     -12.675  -2.336  17.125  0.00  0.00    +0.000 HD
ENDROOT
BRANCH   2  20
ATOM     20  C   UNL     1      -7.781  -4.032  21.168  0.00  0.00    +0.000 A 
ATOM     21  C   UNL     1      -6.645  -3.232  21.314  0.00  0.00    +0.000 A 
ATOM     22  C   UNL     1      -6.644  -2.190  22.242  0.00  0.00    +0.000 A 
ATOM     23  C   UNL     1      -7.773  -1.938  23.038  0.00  0.00    +0.000 A 
ATOM     24  C   UNL     1      -7.786  -0.887  23.966  0.00  0.00    +0.000 A 
ATOM     25  C   UNL     1      -8.914  -0.643  24.752  0.00  0.00    +0.000 A 
ATOM     26  C   UNL     1     -10.051  -1.433  24.603  0.00  0.00    +0.000 A 
ATOM     27  C   UNL     1     -10.057  -2.477  23.678  0.00  0.00    +0.000 A 
ATOM     28  C   UNL     1      -8.919  -2.756  22.904  0.00  0.00    +0.000 A 
ATOM     29  C   UNL     1      -8.900  -3.820  21.987  0.00  0.00    +0.000 A 
ATOM     30  H   UNL     1      -5.772  -3.396  20.685  0.00  0.00    +0.000 HD
ATOM     31  H   UNL     1      -5.758  -1.565  22.328  0.00  0.00    +0.000 HD
ATOM     32  H   UNL     1      -6.911  -0.254  24.091  0.00  0.00    +0.000 HD
ATOM     33  H   UNL     1      -8.902   0.164  25.481  0.00  0.00    +0.000 HD
ATOM     34  H   UNL     1     -10.930  -1.238  25.211  0.00  0.00    +0.000 HD
ATOM     35  H   UNL     1     -10.960  -3.075  23.568  0.00  0.00    +0.000 HD
ATOM     36  H   UNL     1      -9.786  -4.441  21.871  0.00  0.00    +0.000 HD
ENDBRANCH   2  20
BRANCH   6  37
ATOM     37  O   UNL     1      -8.546 -10.136  18.150  0.00  0.00    +0.000 OA
ATOM     38  H   UNL     1      -9.100 -10.646  18.773  0.00  0.00    +0.000 HD
ENDBRANCH   6  37
BRANCH   7  39
ATOM     39  O   UNL     1     -10.775  -9.807  16.659  0.00  0.00    +0.000 OA
ATOM     40  H   UNL     1     -11.740  -9.673  16.748  0.00  0.00    +0.000 HD
ENDBRANCH   7  39
BRANCH  13  41
ATOM     41  O   UNL     1     -10.911  -0.890  18.542  0.00  0.00    +0.000 OA
ATOM     42  H   UNL     1     -11.791  -0.681  18.890  0.00  0.00    +0.000 HD
ENDBRANCH  13  41
BRANCH  14  43
ATOM     43  O   UNL     1      -8.774  -2.196  19.394  0.00  0.00    +0.000 OA
ATOM     44  H   UNL     1      -8.830  -2.428  20.344  0.00  0.00    +0.000 HD
ENDBRANCH  14  43
TORSDOF 5
ENDMDL
MODEL 8
REMARK VINA RESULT:    -8.140      3.379      4.931
REMARK INTER + INTRA:          -9.569
REMARK INTER:                  -9.671
REMARK INTRA:                   0.103
REMARK UNBOUND:                -0.001
REMARK  Name = 
REMARK  5 active torsions:
REMARK  status: ('A' for Active; 'I' for Inactive)
REMARK    1  A    between atoms: C_2  and  C_3
REMARK    2  A    between atoms: C_16  and  O_17
REMARK    3  A    between atoms: C_18  and  O_19
REMARK    4  A    between atoms: C_25  and  O_26
REMARK    5  A    between atoms: C_27  and  O_28
REMARK                            x       y       z     vdW  Elec       q    Type
REMARK                         _______ _______ _______ _____ _____    ______ ____
ROOT
ATOM      1  O   UNL     1     -10.939  -4.508  19.094  0.00  0.00    +0.000 OA
ATOM      2  C   UNL     1     -10.698  -4.636  17.895  0.00  0.00    +0.000 C 
ATOM      3  N   UNL     1     -10.486  -3.455  17.134  0.00  0.00    +0.000 N 
ATOM      4  C   UNL     1     -10.016  -2.238  17.663  0.00  0.00    +0.000 A 
ATOM      5  C   UNL     1      -9.712  -1.865  18.994  0.00  0.00    +0.000 A 
ATOM      6  C   UNL     1      -9.187  -0.591  19.214  0.00  0.00    +0.000 A 
ATOM      7  C   UNL     1      -8.956   0.278  18.160  0.00  0.00    +0.000 A 
ATOM      8  C   UNL     1      -9.246  -0.082  16.850  0.00  0.00    +0.000 A 
ATOM      9  C   UNL     1      -9.777  -1.370  16.595  0.00  0.00    +0.000 A 
ATOM     10  C   UNL     1     -10.163  -2.039  15.396  0.00  0.00    +0.000 A 
ATOM     11  C   UNL     1     -10.146  -1.663  14.032  0.00  0.00    +0.000 A 
ATOM     12  C   UNL     1     -10.607  -2.542  13.045  0.00  0.00    +0.000 A 
ATOM     13  C   UNL     1     -11.135  -3.760  13.423  0.00  0.00    +0.000 A 
ATOM     14  C   UNL     1     -11.217  -4.125  14.765  0.00  0.00    +0.000 A 
ATOM     15  C   UNL     1     -10.663  -3.295  15.757  0.00  0.00    +0.000 A 
ATOM     16  H   UNL     1      -9.882  -2.545  19.822  0.00  0.00    +0.000 HD
ATOM     17  H   UNL     1      -9.057   0.612  16.041  0.00  0.00    +0.000 HD
ATOM     18  H   UNL     1      -9.771  -0.683  13.747  0.00  0.00    +0.000 HD
ATOM     19  H   UNL     1     -10.566  -2.242  12.004  0.00  0.00    +0.000 HD
ENDROOT
BRANCH   2  20
ATOM     20  C   UNL     1     -10.599  -6.025  17.375  0.00  0.00    +0.000 A 
ATOM     21  C   UNL     1     -11.604  -6.935  17.715  0.00  0.00    +0.000 A 
ATOM     22  C   UNL     1     -11.579  -8.225  17.184  0.00  0.00    +0.000 A 
ATOM     23  C   UNL     1     -10.552  -8.622  16.312  0.00  0.00    +0.000 A 
ATOM     24  C   UNL     1     -10.524  -9.913  15.764  0.00  0.00    +0.000 A 
ATOM     25  C   UNL     1      -9.500 -10.298  14.898  0.00  0.00    +0.000 A 
ATOM     26  C   UNL     1      -8.502  -9.391  14.552  0.00  0.00    +0.000 A 
ATOM     27  C   UNL     1      -8.519  -8.101  15.081  0.00  0.00    +0.000 A 
ATOM     28  C   UNL     1      -9.525  -7.708  15.980  0.00  0.00    +0.000 A 
ATOM     29  C   UNL     1      -9.543  -6.422  16.543  0.00  0.00    +0.000 A 
ATOM     30  H   UNL     1     -12.422  -6.634  18.366  0.00  0.00    +0.000 HD
ATOM     31  H   UNL     1     -12.380  -8.914  17.442  0.00  0.00    +0.000 HD
ATOM     32  H   UNL     1     -11.299 -10.634  16.016  0.00  0.00    +0.000 HD
ATOM     33  H   UNL     1      -9.482 -11.309  14.497  0.00  0.00    +0.000 HD
ATOM     34  H   UNL     1      -7.708  -9.690  13.873  0.00  0.00    +0.000 HD
ATOM     35  H   UNL     1      -7.738  -7.403  14.788  0.00  0.00    +0.000 HD
ATOM     36  H   UNL     1      -8.763  -5.711  16.277  0.00  0.00    +0.000 HD
ENDBRANCH   2  20
BRANCH   6  37
ATOM     37  O   UNL     1      -8.865  -0.163  20.473  0.00  0.00    +0.000 OA
ATOM     38  H   UNL     1      -9.544  -0.504  21.086  0.00  0.00    +0.000 HD
ENDBRANCH   6  37
BRANCH   7  39
ATOM     39  O   UNL     1      -8.431   1.517  18.403  0.00  0.00    +0.000 OA
ATOM     40  H   UNL     1      -9.170   2.017  18.807  0.00  0.00    +0.000 HD
ENDBRANCH   7  39
BRANCH  13  41
ATOM     41  O   UNL     1     -11.605  -4.666  12.507  0.00  0.00    +0.000 OA
ATOM     42  H   UNL     1     -12.426  -5.050  12.851  0.00  0.00    +0.000 HD
ENDBRANCH  13  41
BRANCH  14  43
ATOM     43  O   UNL     1     -11.872  -5.295  15.063  0.00  0.00    +0.000 OA
ATOM     44  H   UNL     1     -12.365  -5.526  14.247  0.00  0.00    +0.000 HD
ENDBRANCH  14  43
TORSDOF 5
ENDMDL
