MODEL 1
REMARK VINA RESULT:    -9.237      0.000      0.000
REMARK INTER + INTRA:         -14.742
REMARK INTER:                 -13.287
REMARK INTRA:                  -1.455
REMARK UNBOUND:                -1.455
REMARK  Name = 
REMARK  8 active torsions:
REMARK  status: ('A' for Active; 'I' for Inactive)
REMARK    1  A    between atoms: N_1  and  C_2
REMARK    2  A    between atoms: C_2  and  C_3
REMARK    3  A    between atoms: C_3  and  C_4
REMARK    4  A    between atoms: C_4  and  C_5
REMARK    5  A    between atoms: C_5  and  C_6
REMARK    6  A    between atoms: C_6  and  N_7
REMARK    7  A    between atoms: N_7  and  C_8
REMARK    8  A    between atoms: C_9  and  C_10
REMARK                            x       y       z     vdW  Elec       q    Type
REMARK                         _______ _______ _______ _____ _____    ______ ____
ROOT
ATOM      1  C   UNL     1      -9.689  -7.714  17.738  0.00  0.00    +0.000 C 
ATOM      2  C   UNL     1      -9.570  -6.470  18.221  0.00  0.00    +0.000 C 
ATOM      3  C   UNL     1     -10.846  -5.757  17.987  0.00  0.00    +0.000 C 
ATOM      4  O   UNL     1     -11.137  -4.634  18.362  0.00  0.00    +0.000 OA
ATOM      5  N   UNL     1     -11.639  -6.592  17.284  0.00  0.00    +0.000 N 
ATOM      6  C   UNL     1     -11.033  -7.782  17.092  0.00  0.00    +0.000 C 
ATOM      7  O   UNL     1     -11.474  -8.759  16.517  0.00  0.00    +0.000 OA
ATOM      8  H   UNL     1     -12.567  -6.366  16.974  0.00  0.00    +0.000 HD
ENDROOT
BRANCH   2   9
ATOM      9  C   UNL     1      -8.419  -5.917  18.815  0.00  0.00    +0.000 A 
ATOM     10  C   UNL     1      -7.069  -6.075  18.590  0.00  0.00    +0.000 A 
ATOM     11  C   UNL     1      -6.370  -5.319  19.567  0.00  0.00    +0.000 A 
ATOM     12  C   UNL     1      -5.005  -5.111  19.838  0.00  0.00    +0.000 A 
ATOM     13  C   UNL     1      -4.641  -4.301  20.915  0.00  0.00    +0.000 A 
ATOM     14  C   UNL     1      -5.611  -3.708  21.722  0.00  0.00    +0.000 A 
ATOM     15  C   UNL     1      -6.974  -3.904  21.473  0.00  0.00    +0.000 A 
ATOM     16  C   UNL     1      -7.322  -4.710  20.382  0.00  0.00    +0.000 A 
ATOM     17  N   UNL     1      -8.557  -5.071  19.894  0.00  0.00    +0.000 N 
ATOM     18  H   UNL     1      -6.628  -6.686  17.813  0.00  0.00    +0.000 HD
ATOM     19  H   UNL     1      -4.249  -5.583  19.220  0.00  0.00    +0.000 HD
ATOM     20  H   UNL     1      -3.587  -4.138  21.127  0.00  0.00    +0.000 HD
ATOM     21  H   UNL     1      -5.303  -3.086  22.559  0.00  0.00    +0.000 HD
ATOM     22  H   UNL     1      -7.726  -3.448  22.111  0.00  0.00    +0.000 HD
ATOM     23  H   UNL     1      -9.443  -4.763  20.276  0.00  0.00    +0.000 HD
ENDBRANCH   2   9
BRANCH   1  24
ATOM     24  N   UNL     1      -8.830  -8.808  17.746  0.00  0.00    +0.000 N 
ATOM     25  H   UNL     1      -8.932  -9.325  16.867  0.00  0.00    +0.000 HD
BRANCH  24  26
ATOM     26  C   UNL     1      -8.814  -9.721  18.896  0.00  0.00    +0.000 C 
ATOM     27  H   UNL     1      -8.084  -9.350  19.622  0.00  0.00    +0.000 HD
ATOM     28  H   UNL     1      -9.787  -9.738  19.400  0.00  0.00    +0.000 HD
BRANCH  26  29
ATOM     29  C   UNL     1      -8.440 -11.141  18.467  0.00  0.00    +0.000 C 
ATOM     30  H   UNL     1      -7.379 -11.188  18.192  0.00  0.00    +0.000 HD
ATOM     31  H   UNL     1      -8.579 -11.833  19.308  0.00  0.00    +0.000 HD
BRANCH  29  32
ATOM     32  C   UNL     1      -9.305 -11.576  17.284  0.00  0.00    +0.000 C 
ATOM     33  H   UNL     1     -10.055 -12.300  17.629  0.00  0.00    +0.000 HD
ATOM     34  H   UNL     1      -9.851 -10.709  16.893  0.00  0.00    +0.000 HD
BRANCH  32  35
ATOM     35  C   UNL     1      -8.476 -12.201  16.163  0.00  0.00    +0.000 C 
ATOM     36  H   UNL     1      -7.456 -12.387  16.522  0.00  0.00    +0.000 HD
ATOM     37  H   UNL     1      -8.905 -13.173  15.889  0.00  0.00    +0.000 HD
BRANCH  35  38
ATOM     38  C   UNL     1      -8.438 -11.284  14.941  0.00  0.00    +0.000 C 
ATOM     39  H   UNL     1      -7.491 -10.734  14.910  0.00  0.00    +0.000 HD
ATOM     40  H   UNL     1      -8.509 -11.877  14.023  0.00  0.00    +0.000 HD
BRANCH  38  41
ATOM     41  N   UNL     1      -9.545 -10.339  14.987  0.00  0.00    +0.000 NA
ATOM     42  H   UNL     1      -9.291  -9.542  15.568  0.00  0.00    +0.000 HD
ATOM     43  H   UNL     1     -10.351 -10.774  15.435  0.00  0.00    +0.000 HD
ENDBRANCH  38  41
ENDBRANCH  35  38
ENDBRANCH  32  35
ENDBRANCH  29  32
ENDBRANCH  26  29
ENDBRANCH  24  26
ENDBRANCH   1  24
TORSDOF 8
ENDMDL
MODEL 2
REMARK VINA RESULT:    -9.171      2.937      7.194
REMARK INTER + INTRA:         -14.647
REMARK INTER:                 -13.585
REMARK INTRA:                  -1.062
REMARK UNBOUND:                -1.455
REMARK  Name = 
REMARK  8 active torsions:
REMARK  status: ('A' for Active; 'I' for Inactive)
REMARK    1  A    between atoms: N_1  and  C_2
REMARK    2  A    between atoms: C_2  and  C_3
REMARK    3  A    between atoms: C_3  and  C_4
REMARK    4  A    between atoms: C_4  and  C_5
REMARK    5  A    between atoms: C_5  and  C_6
REMARK    6  A    between atoms: C_6  and  N_7
REMARK    7  A    between atoms: N_7  and  C_8
REMARK    8  A    between atoms: C_9  and  C_10
REMARK                            x       y       z     vdW  Elec       q    Type
REMARK                         _______ _______ _______ _____ _____    ______ ____
ROOT
ATOM      1  C   UNL     1      -9.292  -8.060  18.094  0.00  0.00    +0.000 C 
ATOM      2  C   UNL     1      -8.925  -9.265  18.550  0.00  0.00    +0.000 C 
ATOM      3  C   UNL     1      -8.600  -9.138  19.988  0.00  0.00    +0.000 C 
ATOM      4  O   UNL     1      -8.306 -10.039  20.755  0.00  0.00    +0.000 OA
ATOM      5  N   UNL     1      -8.701  -7.829  20.300  0.00  0.00    +0.000 N 
ATOM      6  C   UNL     1      -9.111  -7.112  19.232  0.00  0.00    +0.000 C 
ATOM      7  O   UNL     1      -9.318  -5.915  19.175  0.00  0.00    +0.000 OA
ATOM      8  H   UNL     1      -8.524  -7.448  21.212  0.00  0.00    +0.000 HD
ENDROOT
BRANCH   2   9
ATOM      9  C   UNL     1      -8.827 -10.445  17.788  0.00  0.00    +0.000 A 
ATOM     10  C   UNL     1      -8.780 -10.697  16.434  0.00  0.00    +0.000 A 
ATOM     11  C   UNL     1      -8.767 -12.104  16.250  0.00  0.00    +0.000 A 
ATOM     12  C   UNL     1      -8.736 -12.933  15.113  0.00  0.00    +0.000 A 
ATOM     13  C   UNL     1      -8.749 -14.319  15.280  0.00  0.00    +0.000 A 
ATOM     14  C   UNL     1      -8.800 -14.883  16.554  0.00  0.00    +0.000 A 
ATOM     15  C   UNL     1      -8.835 -14.078  17.699  0.00  0.00    +0.000 A 
ATOM     16  C   UNL     1      -8.809 -12.691  17.513  0.00  0.00    +0.000 A 
ATOM     17  N   UNL     1      -8.824 -11.665  18.430  0.00  0.00    +0.000 N 
ATOM     18  H   UNL     1      -8.774  -9.947  15.654  0.00  0.00    +0.000 HD
ATOM     19  H   UNL     1      -8.710 -12.495  14.120  0.00  0.00    +0.000 HD
ATOM     20  H   UNL     1      -8.725 -14.962  14.404  0.00  0.00    +0.000 HD
ATOM     21  H   UNL     1      -8.816 -15.965  16.659  0.00  0.00    +0.000 HD
ATOM     22  H   UNL     1      -8.885 -14.523  18.688  0.00  0.00    +0.000 HD
ATOM     23  H   UNL     1      -8.837 -11.787  19.435  0.00  0.00    +0.000 HD
ENDBRANCH   2   9
BRANCH   1  24
ATOM     24  N   UNL     1      -9.749  -7.627  16.854  0.00  0.00    +0.000 N 
ATOM     25  H   UNL     1     -10.213  -8.403  16.373  0.00  0.00    +0.000 HD
BRANCH  24  26
ATOM     26  C   UNL     1      -8.844  -6.911  15.946  0.00  0.00    +0.000 C 
ATOM     27  H   UNL     1      -7.998  -6.533  16.528  0.00  0.00    +0.000 HD
ATOM     28  H   UNL     1      -8.434  -7.584  15.185  0.00  0.00    +0.000 HD
BRANCH  26  29
ATOM     29  C   UNL     1      -9.559  -5.746  15.259  0.00  0.00    +0.000 C 
ATOM     30  H   UNL     1      -8.893  -4.876  15.194  0.00  0.00    +0.000 HD
ATOM     31  H   UNL     1      -9.820  -6.023  14.230  0.00  0.00    +0.000 HD
BRANCH  29  32
ATOM     32  C   UNL     1     -10.823  -5.376  16.037  0.00  0.00    +0.000 C 
ATOM     33  H   UNL     1     -11.703  -5.555  15.407  0.00  0.00    +0.000 HD
ATOM     34  H   UNL     1     -10.916  -6.029  16.913  0.00  0.00    +0.000 HD
BRANCH  32  35
ATOM     35  C   UNL     1     -10.814  -3.917  16.491  0.00  0.00    +0.000 C 
ATOM     36  H   UNL     1      -9.845  -3.681  16.947  0.00  0.00    +0.000 HD
ATOM     37  H   UNL     1     -10.929  -3.262  15.617  0.00  0.00    +0.000 HD
BRANCH  35  38
ATOM     38  C   UNL     1     -11.938  -3.654  17.492  0.00  0.00    +0.000 C 
ATOM     39  H   UNL     1     -12.004  -2.583  17.714  0.00  0.00    +0.000 HD
ATOM     40  H   UNL     1     -12.899  -3.967  17.071  0.00  0.00    +0.000 HD
BRANCH  38  41
ATOM     41  N   UNL     1     -11.695  -4.389  18.725  0.00  0.00    +0.000 NA
ATOM     42  H   UNL     1     -12.583  -4.687  19.126  0.00  0.00    +0.000 HD
ATOM     43  H   UNL     1     -11.263  -3.775  19.414  0.00  0.00    +0.000 HD
ENDBRANCH  38  41
ENDBRANCH  35  38
ENDBRANCH  32  35
ENDBRANCH  29  32
ENDBRANCH  26  29
ENDBRANCH  24  26
ENDBRANCH   1  24
TORSDOF 8
ENDMDL
MODEL 3
REMARK VINA RESULT:    -9.146      2.961      7.076
REMARK INTER + INTRA:         -14.611
REMARK INTER:                 -13.792
REMARK INTRA:                  -0.819
REMARK UNBOUND:                -1.455
REMARK  Name = 
REMARK  8 active torsions:
REMARK  status: ('A' for Active; 'I' for Inactive)
REMARK    1  A    between atoms: N_1  and  C_2
REMARK    2  A    between atoms: C_2  and  C_3
REMARK    3  A    between atoms: C_3  and  C_4
REMARK    4  A    between atoms: C_4  and  C_5
REMARK    5  A    between atoms: C_5  and  C_6
REMARK    6  A    between atoms: C_6  and  N_7
REMARK    7  A    between atoms: N_7  and  C_8
REMARK    8  A    between atoms: C_9  and  C_10
REMARK                            x       y       z     vdW  Elec       q    Type
REMARK                         _______ _______ _______ _____ _____    ______ ____
ROOT
ATOM      1  C   UNL     1      -9.362  -8.050  18.043  0.00  0.00    +0.000 C 
ATOM      2  C   UNL     1      -8.990  -9.247  18.515  0.00  0.00    +0.000 C 
ATOM      3  C   UNL     1      -8.682  -9.102  19.956  0.00  0.00    +0.000 C 
ATOM      4  O   UNL     1      -8.389  -9.993  20.735  0.00  0.00    +0.000 OA
ATOM      5  N   UNL     1      -8.799  -7.791  20.253  0.00  0.00    +0.000 N 
ATOM      6  C   UNL     1      -9.203  -7.089  19.173  0.00  0.00    +0.000 C 
ATOM      7  O   UNL     1      -9.421  -5.894  19.101  0.00  0.00    +0.000 OA
ATOM      8  H   UNL     1      -8.636  -7.399  21.163  0.00  0.00    +0.000 HD
ENDROOT
BRANCH   2   9
ATOM      9  C   UNL     1      -8.871 -10.433  17.766  0.00  0.00    +0.000 A 
ATOM     10  C   UNL     1      -8.803 -10.698  16.416  0.00  0.00    +0.000 A 
ATOM     11  C   UNL     1      -8.776 -12.107  16.246  0.00  0.00    +0.000 A 
ATOM     12  C   UNL     1      -8.723 -12.947  15.118  0.00  0.00    +0.000 A 
ATOM     13  C   UNL     1      -8.728 -14.331  15.299  0.00  0.00    +0.000 A 
ATOM     14  C   UNL     1      -8.792 -14.883  16.577  0.00  0.00    +0.000 A 
ATOM     15  C   UNL     1      -8.850 -14.067  17.714  0.00  0.00    +0.000 A 
ATOM     16  C   UNL     1      -8.832 -12.682  17.514  0.00  0.00    +0.000 A 
ATOM     17  N   UNL     1      -8.868 -11.647  18.421  0.00  0.00    +0.000 N 
ATOM     18  H   UNL     1      -8.792  -9.955  15.629  0.00  0.00    +0.000 HD
ATOM     19  H   UNL     1      -8.686 -12.519  14.121  0.00  0.00    +0.000 HD
ATOM     20  H   UNL     1      -8.686 -14.982  14.429  0.00  0.00    +0.000 HD
ATOM     21  H   UNL     1      -8.802 -15.964  16.693  0.00  0.00    +0.000 HD
ATOM     22  H   UNL     1      -8.910 -14.502  18.706  0.00  0.00    +0.000 HD
ATOM     23  H   UNL     1      -8.894 -11.759  19.427  0.00  0.00    +0.000 HD
ENDBRANCH   2   9
BRANCH   1  24
ATOM     24  N   UNL     1      -9.808  -7.633  16.793  0.00  0.00    +0.000 N 
ATOM     25  H   UNL     1     -10.375  -8.375  16.371  0.00  0.00    +0.000 HD
BRANCH  24  26
ATOM     26  C   UNL     1      -8.859  -7.078  15.821  0.00  0.00    +0.000 C 
ATOM     27  H   UNL     1      -7.877  -7.006  16.298  0.00  0.00    +0.000 HD
ATOM     28  H   UNL     1      -8.747  -7.740  14.955  0.00  0.00    +0.000 HD
BRANCH  26  29
ATOM     29  C   UNL     1      -9.303  -5.693  15.345  0.00  0.00    +0.000 C 
ATOM     30  H   UNL     1      -8.682  -4.915  15.807  0.00  0.00    +0.000 HD
ATOM     31  H   UNL     1      -9.161  -5.608  14.260  0.00  0.00    +0.000 HD
BRANCH  29  32
ATOM     32  C   UNL     1     -10.773  -5.465  15.699  0.00  0.00    +0.000 C 
ATOM     33  H   UNL     1     -11.311  -6.420  15.650  0.00  0.00    +0.000 HD
ATOM     34  H   UNL     1     -10.849  -5.106  16.732  0.00  0.00    +0.000 HD
BRANCH  32  35
ATOM     35  C   UNL     1     -11.441  -4.459  14.762  0.00  0.00    +0.000 C 
ATOM     36  H   UNL     1     -12.361  -4.894  14.353  0.00  0.00    +0.000 HD
ATOM     37  H   UNL     1     -11.729  -3.566  15.330  0.00  0.00    +0.000 HD
BRANCH  35  38
ATOM     38  C   UNL     1     -10.499  -4.072  13.622  0.00  0.00    +0.000 C 
ATOM     39  H   UNL     1     -10.350  -2.987  13.606  0.00  0.00    +0.000 HD
ATOM     40  H   UNL     1      -9.519  -4.541  13.767  0.00  0.00    +0.000 HD
BRANCH  38  41
ATOM     41  N   UNL     1     -11.050  -4.504  12.345  0.00  0.00    +0.000 NA
ATOM     42  H   UNL     1     -10.785  -3.843  11.617  0.00  0.00    +0.000 HD
ATOM     43  H   UNL     1     -12.069  -4.489  12.387  0.00  0.00    +0.000 HD
ENDBRANCH  38  41
ENDBRANCH  35  38
ENDBRANCH  32  35
ENDBRANCH  29  32
ENDBRANCH  26  29
ENDBRANCH  24  26
ENDBRANCH   1  24
TORSDOF 8
ENDMDL
MODEL 4
REMARK VINA RESULT:    -8.981      1.295      6.703
REMARK INTER + INTRA:         -14.374
REMARK INTER:                 -13.025
REMARK INTRA:                  -1.349
REMARK UNBOUND:                -1.455
REMARK  Name = 
REMARK  8 active torsions:
REMARK  status: ('A' for Active; 'I' for Inactive)
REMARK    1  A    between atoms: N_1  and  C_2
REMARK    2  A    between atoms: C_2  and  C_3
REMARK    3  A    between atoms: C_3  and  C_4
REMARK    4  A    between atoms: C_4  and  C_5
REMARK    5  A    between atoms: C_5  and  C_6
REMARK    6  A    between atoms: C_6  and  N_7
REMARK    7  A    between atoms: N_7  and  C_8
REMARK    8  A    between atoms: C_9  and  C_10
REMARK                            x       y       z     vdW  Elec       q    Type
REMARK                         _______ _______ _______ _____ _____    ______ ____
ROOT
ATOM      1  C   UNL     1      -8.796  -6.117  18.482  0.00  0.00    +0.000 C 
ATOM      2  C   UNL     1      -9.514  -6.931  17.697  0.00  0.00    +0.000 C 
ATOM      3  C   UNL     1     -10.577  -6.131  17.049  0.00  0.00    +0.000 C 
ATOM      4  O   UNL     1     -11.372  -6.515  16.208  0.00  0.00    +0.000 OA
ATOM      5  N   UNL     1     -10.497  -4.884  17.558  0.00  0.00    +0.000 N 
ATOM      6  C   UNL     1      -9.462  -4.783  18.418  0.00  0.00    +0.000 C 
ATOM      7  O   UNL     1      -9.100  -3.799  19.035  0.00  0.00    +0.000 OA
ATOM      8  H   UNL     1     -11.107  -4.128  17.305  0.00  0.00    +0.000 HD
ENDROOT
BRANCH   2   9
ATOM      9  C   UNL     1      -9.320  -8.317  17.542  0.00  0.00    +0.000 A 
ATOM     10  C   UNL     1      -9.081  -9.344  18.428  0.00  0.00    +0.000 A 
ATOM     11  C   UNL     1      -8.883 -10.533  17.678  0.00  0.00    +0.000 A 
ATOM     12  C   UNL     1      -8.597 -11.866  18.029  0.00  0.00    +0.000 A 
ATOM     13  C   UNL     1      -8.441 -12.817  17.021  0.00  0.00    +0.000 A 
ATOM     14  C   UNL     1      -8.558 -12.460  15.678  0.00  0.00    +0.000 A 
ATOM     15  C   UNL     1      -8.838 -11.140  15.304  0.00  0.00    +0.000 A 
ATOM     16  C   UNL     1      -9.003 -10.201  16.329  0.00  0.00    +0.000 A 
ATOM     17  N   UNL     1      -9.289  -8.856  16.273  0.00  0.00    +0.000 N 
ATOM     18  H   UNL     1      -9.036  -9.249  19.505  0.00  0.00    +0.000 HD
ATOM     19  H   UNL     1      -8.492 -12.143  19.073  0.00  0.00    +0.000 HD
ATOM     20  H   UNL     1      -8.221 -13.847  17.289  0.00  0.00    +0.000 HD
ATOM     21  H   UNL     1      -8.426 -13.217  14.909  0.00  0.00    +0.000 HD
ATOM     22  H   UNL     1      -8.919 -10.865  14.258  0.00  0.00    +0.000 HD
ATOM     23  H   UNL     1      -9.448  -8.333  15.421  0.00  0.00    +0.000 HD
ENDBRANCH   2   9
BRANCH   1  24
ATOM     24  N   UNL     1      -7.662  -6.326  19.261  0.00  0.00    +0.000 N 
ATOM     25  H   UNL     1      -7.844  -6.006  20.217  0.00  0.00    +0.000 HD
BRANCH  24  26
ATOM     26  C   UNL     1      -6.351  -5.862  18.789  0.00  0.00    +0.000 C 
ATOM     27  H   UNL     1      -6.020  -6.522  17.982  0.00  0.00    +0.000 HD
ATOM     28  H   UNL     1      -6.417  -4.852  18.370  0.00  0.00    +0.000 HD
BRANCH  26  29
ATOM     29  C   UNL     1      -5.322  -5.875  19.922  0.00  0.00    +0.000 C 
ATOM     30  H   UNL     1      -5.720  -6.413  20.791  0.00  0.00    +0.000 HD
ATOM     31  H   UNL     1      -4.421  -6.414  19.601  0.00  0.00    +0.000 HD
BRANCH  29  32
ATOM     32  C   UNL     1      -4.961  -4.442  20.317  0.00  0.00    +0.000 C 
ATOM     33  H   UNL     1      -3.869  -4.338  20.348  0.00  0.00    +0.000 HD
ATOM     34  H   UNL     1      -5.328  -3.749  19.551  0.00  0.00    +0.000 HD
BRANCH  32  35
ATOM     35  C   UNL     1      -5.545  -4.055  21.674  0.00  0.00    +0.000 C 
ATOM     36  H   UNL     1      -5.685  -4.956  22.284  0.00  0.00    +0.000 HD
ATOM     37  H   UNL     1      -4.835  -3.410  22.207  0.00  0.00    +0.000 HD
BRANCH  35  38
ATOM     38  C   UNL     1      -6.880  -3.331  21.503  0.00  0.00    +0.000 C 
ATOM     39  H   UNL     1      -6.946  -2.488  22.199  0.00  0.00    +0.000 HD
ATOM     40  H   UNL     1      -6.965  -2.932  20.487  0.00  0.00    +0.000 HD
BRANCH  38  41
ATOM     41  N   UNL     1      -7.985  -4.248  21.749  0.00  0.00    +0.000 NA
ATOM     42  H   UNL     1      -7.631  -5.201  21.806  0.00  0.00    +0.000 HD
ATOM     43  H   UNL     1      -8.630  -4.229  20.960  0.00  0.00    +0.000 HD
ENDBRANCH  38  41
ENDBRANCH  35  38
ENDBRANCH  32  35
ENDBRANCH  29  32
ENDBRANCH  26  29
ENDBRANCH  24  26
ENDBRANCH   1  24
TORSDOF 8
ENDMDL
MODEL 5
REMARK VINA RESULT:    -8.961      1.768      6.662
REMARK INTER + INTRA:         -14.345
REMARK INTER:                 -13.677
REMARK INTRA:                  -0.668
REMARK UNBOUND:                -1.455
REMARK  Name = 
REMARK  8 active torsions:
REMARK  status: ('A' for Active; 'I' for Inactive)
REMARK    1  A    between atoms: N_1  and  C_2
REMARK    2  A    between atoms: C_2  and  C_3
REMARK    3  A    between atoms: C_3  and  C_4
REMARK    4  A    between atoms: C_4  and  C_5
REMARK    5  A    between atoms: C_5  and  C_6
REMARK    6  A    between atoms: C_6  and  N_7
REMARK    7  A    between atoms: N_7  and  C_8
REMARK    8  A    between atoms: C_9  and  C_10
REMARK                            x       y       z     vdW  Elec       q    Type
REMARK                         _______ _______ _______ _____ _____    ______ ____
ROOT
ATOM      1  C   UNL     1      -9.724  -6.566  17.983  0.00  0.00    +0.000 C 
ATOM      2  C   UNL     1      -9.475  -7.312  16.898  0.00  0.00    +0.000 C 
ATOM      3  C   UNL     1      -9.460  -6.421  15.716  0.00  0.00    +0.000 C 
ATOM      4  O   UNL     1      -9.188  -6.731  14.569  0.00  0.00    +0.000 OA
ATOM      5  N   UNL     1      -9.798  -5.188  16.149  0.00  0.00    +0.000 N 
ATOM      6  C   UNL     1      -9.970  -5.180  17.488  0.00  0.00    +0.000 C 
ATOM      7  O   UNL     1     -10.259  -4.234  18.195  0.00  0.00    +0.000 OA
ATOM      8  H   UNL     1      -9.878  -4.382  15.556  0.00  0.00    +0.000 HD
ENDROOT
BRANCH   2   9
ATOM      9  C   UNL     1      -9.296  -8.708  16.875  0.00  0.00    +0.000 A 
ATOM     10  C   UNL     1      -9.160  -9.662  17.860  0.00  0.00    +0.000 A 
ATOM     11  C   UNL     1      -8.919 -10.911  17.231  0.00  0.00    +0.000 A 
ATOM     12  C   UNL     1      -8.693 -12.213  17.715  0.00  0.00    +0.000 A 
ATOM     13  C   UNL     1      -8.466 -13.247  16.806  0.00  0.00    +0.000 A 
ATOM     14  C   UNL     1      -8.454 -13.001  15.434  0.00  0.00    +0.000 A 
ATOM     15  C   UNL     1      -8.672 -11.714  14.929  0.00  0.00    +0.000 A 
ATOM     16  C   UNL     1      -8.910 -10.690  15.855  0.00  0.00    +0.000 A 
ATOM     17  N   UNL     1      -9.161  -9.351  15.663  0.00  0.00    +0.000 N 
ATOM     18  H   UNL     1      -9.210  -9.478  18.926  0.00  0.00    +0.000 HD
ATOM     19  H   UNL     1      -8.689 -12.404  18.783  0.00  0.00    +0.000 HD
ATOM     20  H   UNL     1      -8.292 -14.254  17.176  0.00  0.00    +0.000 HD
ATOM     21  H   UNL     1      -8.269 -13.822  14.745  0.00  0.00    +0.000 HD
ATOM     22  H   UNL     1      -8.652 -11.525  13.861  0.00  0.00    +0.000 HD
ATOM     23  H   UNL     1      -9.232  -8.899  14.760  0.00  0.00    +0.000 HD
ENDBRANCH   2   9
BRANCH   1  24
ATOM     24  N   UNL     1      -9.787  -6.875  19.338  0.00  0.00    +0.000 N 
ATOM     25  H   UNL     1     -10.424  -6.222  19.805  0.00  0.00    +0.000 HD
BRANCH  24  26
ATOM     26  C   UNL     1      -8.551  -7.049  20.110  0.00  0.00    +0.000 C 
ATOM     27  H   UNL     1      -8.819  -7.282  21.145  0.00  0.00    +0.000 HD
ATOM     28  H   UNL     1      -7.964  -7.893  19.733  0.00  0.00    +0.000 HD
BRANCH  26  29
ATOM     29  C   UNL     1      -7.695  -5.781  20.074  0.00  0.00    +0.000 C 
ATOM     30  H   UNL     1      -8.293  -4.928  19.727  0.00  0.00    +0.000 HD
ATOM     31  H   UNL     1      -7.349  -5.534  21.086  0.00  0.00    +0.000 HD
BRANCH  29  32
ATOM     32  C   UNL     1      -6.495  -5.986  19.148  0.00  0.00    +0.000 C 
ATOM     33  H   UNL     1      -6.428  -7.045  18.869  0.00  0.00    +0.000 HD
ATOM     34  H   UNL     1      -6.648  -5.418  18.222  0.00  0.00    +0.000 HD
BRANCH  32  35
ATOM     35  C   UNL     1      -5.184  -5.550  19.800  0.00  0.00    +0.000 C 
ATOM     36  H   UNL     1      -4.689  -6.420  20.248  0.00  0.00    +0.000 HD
ATOM     37  H   UNL     1      -4.508  -5.152  19.032  0.00  0.00    +0.000 HD
BRANCH  35  38
ATOM     38  C   UNL     1      -5.438  -4.489  20.872  0.00  0.00    +0.000 C 
ATOM     39  H   UNL     1      -6.340  -3.916  20.631  0.00  0.00    +0.000 HD
ATOM     40  H   UNL     1      -5.596  -4.967  21.845  0.00  0.00    +0.000 HD
BRANCH  38  41
ATOM     41  N   UNL     1      -4.300  -3.585  20.964  0.00  0.00    +0.000 NA
ATOM     42  H   UNL     1      -4.046  -3.259  20.033  0.00  0.00    +0.000 HD
ATOM     43  H   UNL     1      -3.489  -4.088  21.322  0.00  0.00    +0.000 HD
ENDBRANCH  38  41
ENDBRANCH  35  38
ENDBRANCH  32  35
ENDBRANCH  29  32
ENDBRANCH  26  29
ENDBRANCH  24  26
ENDBRANCH   1  24
TORSDOF 8
ENDMDL
MODEL 6
REMARK VINA RESULT:    -8.569      2.708      6.700
REMARK INTER + INTRA:         -13.781
REMARK INTER:                 -12.927
REMARK INTRA:                  -0.855
REMARK UNBOUND:                -1.455
REMARK  Name = 
REMARK  8 active torsions:
REMARK  status: ('A' for Active; 'I' for Inactive)
REMARK    1  A    between atoms: N_1  and  C_2
REMARK    2  A    between atoms: C_2  and  C_3
REMARK    3  A    between atoms: C_3  and  C_4
REMARK    4  A    between atoms: C_4  and  C_5
REMARK    5  A    between atoms: C_5  and  C_6
REMARK    6  A    between atoms: C_6  and  N_7
REMARK    7  A    between atoms: N_7  and  C_8
REMARK    8  A    between atoms: C_9  and  C_10
REMARK                            x       y       z     vdW  Elec       q    Type
REMARK                         _______ _______ _______ _____ _____    ______ ____
ROOT
ATOM      1  C   UNL     1      -9.395  -6.254  17.648  0.00  0.00    +0.000 C 
ATOM      2  C   UNL     1      -9.079  -7.441  18.184  0.00  0.00    +0.000 C 
ATOM      3  C   UNL     1      -8.833  -7.247  19.631  0.00  0.00    +0.000 C 
ATOM      4  O   UNL     1      -8.601  -8.112  20.456  0.00  0.00    +0.000 OA
ATOM      5  N   UNL     1      -8.927  -5.922  19.871  0.00  0.00    +0.000 N 
ATOM      6  C   UNL     1      -9.262  -5.254  18.747  0.00  0.00    +0.000 C 
ATOM      7  O   UNL     1      -9.444  -4.058  18.619  0.00  0.00    +0.000 OA
ATOM      8  H   UNL     1      -8.796  -5.498  20.771  0.00  0.00    +0.000 HD
ENDROOT
BRANCH   2   9
ATOM      9  C   UNL     1      -8.958  -8.659  17.488  0.00  0.00    +0.000 A 
ATOM     10  C   UNL     1      -9.072  -9.006  16.159  0.00  0.00    +0.000 A 
ATOM     11  C   UNL     1      -8.932 -10.415  16.060  0.00  0.00    +0.000 A 
ATOM     12  C   UNL     1      -8.969 -11.320  14.983  0.00  0.00    +0.000 A 
ATOM     13  C   UNL     1      -8.808 -12.683  15.234  0.00  0.00    +0.000 A 
ATOM     14  C   UNL     1      -8.621 -13.152  16.533  0.00  0.00    +0.000 A 
ATOM     15  C   UNL     1      -8.585 -12.272  17.620  0.00  0.00    +0.000 A 
ATOM     16  C   UNL     1      -8.736 -10.906  17.350  0.00  0.00    +0.000 A 
ATOM     17  N   UNL     1      -8.735  -9.821  18.195  0.00  0.00    +0.000 N 
ATOM     18  H   UNL     1      -9.255  -8.319  15.343  0.00  0.00    +0.000 HD
ATOM     19  H   UNL     1      -9.128 -10.957  13.973  0.00  0.00    +0.000 HD
ATOM     20  H   UNL     1      -8.836 -13.385  14.404  0.00  0.00    +0.000 HD
ATOM     21  H   UNL     1      -8.505 -14.220  16.704  0.00  0.00    +0.000 HD
ATOM     22  H   UNL     1      -8.449 -12.643  18.631  0.00  0.00    +0.000 HD
ATOM     23  H   UNL     1      -8.596  -9.868  19.198  0.00  0.00    +0.000 HD
ENDBRANCH   2   9
BRANCH   1  24
ATOM     24  N   UNL     1      -9.773  -5.877  16.364  0.00  0.00    +0.000 N 
ATOM     25  H   UNL     1      -9.208  -5.077  16.066  0.00  0.00    +0.000 HD
BRANCH  24  26
ATOM     26  C   UNL     1     -11.191  -5.668  16.047  0.00  0.00    +0.000 C 
ATOM     27  H   UNL     1     -11.486  -6.392  15.282  0.00  0.00    +0.000 HD
ATOM     28  H   UNL     1     -11.823  -5.852  16.923  0.00  0.00    +0.000 HD
BRANCH  26  29
ATOM     29  C   UNL     1     -11.438  -4.247  15.534  0.00  0.00    +0.000 C 
ATOM     30  H   UNL     1     -12.276  -3.788  16.074  0.00  0.00    +0.000 HD
ATOM     31  H   UNL     1     -10.556  -3.622  15.729  0.00  0.00    +0.000 HD
BRANCH  29  32
ATOM     32  C   UNL     1     -11.736  -4.276  14.035  0.00  0.00    +0.000 C 
ATOM     33  H   UNL     1     -11.525  -5.279  13.642  0.00  0.00    +0.000 HD
ATOM     34  H   UNL     1     -12.804  -4.085  13.872  0.00  0.00    +0.000 HD
BRANCH  32  35
ATOM     35  C   UNL     1     -10.913  -3.246  13.264  0.00  0.00    +0.000 C 
ATOM     36  H   UNL     1     -10.792  -3.576  12.225  0.00  0.00    +0.000 HD
ATOM     37  H   UNL     1     -11.452  -2.290  13.240  0.00  0.00    +0.000 HD
BRANCH  35  38
ATOM     38  C   UNL     1      -9.541  -3.055  13.911  0.00  0.00    +0.000 C 
ATOM     39  H   UNL     1      -9.074  -2.135  13.543  0.00  0.00    +0.000 HD
ATOM     40  H   UNL     1      -9.646  -2.963  14.997  0.00  0.00    +0.000 HD
BRANCH  38  41
ATOM     41  N   UNL     1      -8.680  -4.189  13.608  0.00  0.00    +0.000 NA
ATOM     42  H   UNL     1      -8.526  -4.737  14.454  0.00  0.00    +0.000 HD
ATOM     43  H   UNL     1      -7.763  -3.857  13.312  0.00  0.00    +0.000 HD
ENDBRANCH  38  41
ENDBRANCH  35  38
ENDBRANCH  32  35
ENDBRANCH  29  32
ENDBRANCH  26  29
ENDBRANCH  24  26
ENDBRANCH   1  24
TORSDOF 8
ENDMDL
MODEL 7
REMARK VINA RESULT:    -8.270      2.279      5.811
REMARK INTER + INTRA:         -13.351
REMARK INTER:                 -11.876
REMARK INTRA:                  -1.475
REMARK UNBOUND:                -1.455
REMARK  Name = 
REMARK  8 active torsions:
REMARK  status: ('A' for Active; 'I' for Inactive)
REMARK    1  A    between atoms: N_1  and  C_2
REMARK    2  A    between atoms: C_2  and  C_3
REMARK    3  A    between atoms: C_3  and  C_4
REMARK    4  A    between atoms: C_4  and  C_5
REMARK    5  A    between atoms: C_5  and  C_6
REMARK    6  A    between atoms: C_6  and  N_7
REMARK    7  A    between atoms: N_7  and  C_8
REMARK    8  A    between atoms: C_9  and  C_10
REMARK                            x       y       z     vdW  Elec       q    Type
REMARK                         _______ _______ _______ _____ _____    ______ ____
ROOT
ATOM      1  C   UNL     1     -10.598  -5.019  17.951  0.00  0.00    +0.000 C 
ATOM      2  C   UNL     1     -10.824  -5.714  16.829  0.00  0.00    +0.000 C 
ATOM      3  C   UNL     1     -11.542  -4.838  15.876  0.00  0.00    +0.000 C 
ATOM      4  O   UNL     1     -11.844  -5.100  14.725  0.00  0.00    +0.000 OA
ATOM      5  N   UNL     1     -11.792  -3.679  16.521  0.00  0.00    +0.000 N 
ATOM      6  C   UNL     1     -11.263  -3.697  17.763  0.00  0.00    +0.000 C 
ATOM      7  O   UNL     1     -11.292  -2.812  18.597  0.00  0.00    +0.000 OA
ATOM      8  H   UNL     1     -12.280  -2.900  16.117  0.00  0.00    +0.000 HD
ENDROOT
BRANCH   2   9
ATOM      9  C   UNL     1     -10.477  -7.060  16.603  0.00  0.00    +0.000 A 
ATOM     10  C   UNL     1     -10.594  -8.207  17.356  0.00  0.00    +0.000 A 
ATOM     11  C   UNL     1      -9.985  -9.269  16.637  0.00  0.00    +0.000 A 
ATOM     12  C   UNL     1      -9.792 -10.637  16.905  0.00  0.00    +0.000 A 
ATOM     13  C   UNL     1      -9.121 -11.426  15.970  0.00  0.00    +0.000 A 
ATOM     14  C   UNL     1      -8.636 -10.871  14.786  0.00  0.00    +0.000 A 
ATOM     15  C   UNL     1      -8.813  -9.513  14.499  0.00  0.00    +0.000 A 
ATOM     16  C   UNL     1      -9.499  -8.739  15.443  0.00  0.00    +0.000 A 
ATOM     17  N   UNL     1      -9.828  -7.403  15.436  0.00  0.00    +0.000 N 
ATOM     18  H   UNL     1     -11.054  -8.275  18.334  0.00  0.00    +0.000 HD
ATOM     19  H   UNL     1     -10.157 -11.067  17.832  0.00  0.00    +0.000 HD
ATOM     20  H   UNL     1      -8.970 -12.483  16.173  0.00  0.00    +0.000 HD
ATOM     21  H   UNL     1      -8.110 -11.504  14.075  0.00  0.00    +0.000 HD
ATOM     22  H   UNL     1      -8.425  -9.084  13.580  0.00  0.00    +0.000 HD
ATOM     23  H   UNL     1      -9.618  -6.759  14.683  0.00  0.00    +0.000 HD
ENDBRANCH   2   9
BRANCH   1  24
ATOM     24  N   UNL     1      -9.921  -5.331  19.126  0.00  0.00    +0.000 N 
ATOM     25  H   UNL     1     -10.432  -4.942  19.925  0.00  0.00    +0.000 HD
BRANCH  24  26
ATOM     26  C   UNL     1      -8.482  -5.061  19.238  0.00  0.00    +0.000 C 
ATOM     27  H   UNL     1      -8.173  -4.466  18.374  0.00  0.00    +0.000 HD
ATOM     28  H   UNL     1      -8.260  -4.468  20.133  0.00  0.00    +0.000 HD
BRANCH  26  29
ATOM     29  C   UNL     1      -7.679  -6.363  19.281  0.00  0.00    +0.000 C 
ATOM     30  H   UNL     1      -7.488  -6.725  18.263  0.00  0.00    +0.000 HD
ATOM     31  H   UNL     1      -6.699  -6.182  19.742  0.00  0.00    +0.000 HD
BRANCH  29  32
ATOM     32  C   UNL     1      -8.442  -7.423  20.077  0.00  0.00    +0.000 C 
ATOM     33  H   UNL     1      -8.429  -7.158  21.142  0.00  0.00    +0.000 HD
ATOM     34  H   UNL     1      -9.492  -7.430  19.761  0.00  0.00    +0.000 HD
BRANCH  32  35
ATOM     35  C   UNL     1      -7.848  -8.819  19.894  0.00  0.00    +0.000 C 
ATOM     36  H   UNL     1      -7.581  -8.969  18.841  0.00  0.00    +0.000 HD
ATOM     37  H   UNL     1      -6.922  -8.901  20.479  0.00  0.00    +0.000 HD
BRANCH  35  38
ATOM     38  C   UNL     1      -8.841  -9.893  20.337  0.00  0.00    +0.000 C 
ATOM     39  H   UNL     1      -9.850  -9.640  19.995  0.00  0.00    +0.000 HD
ATOM     40  H   UNL     1      -8.572 -10.859  19.896  0.00  0.00    +0.000 HD
BRANCH  38  41
ATOM     41  N   UNL     1      -8.837 -10.014  21.788  0.00  0.00    +0.000 NA
ATOM     42  H   UNL     1      -9.764  -9.795  22.151  0.00  0.00    +0.000 HD
ATOM     43  H   UNL     1      -8.203  -9.324  22.190  0.00  0.00    +0.000 HD
ENDBRANCH  38  41
ENDBRANCH  35  38
ENDBRANCH  32  35
ENDBRANCH  29  32
ENDBRANCH  26  29
ENDBRANCH  24  26
ENDBRANCH   1  24
TORSDOF 8
ENDMDL
MODEL 8
REMARK VINA RESULT:    -8.266      1.718      6.470
REMARK INTER + INTRA:         -13.345
REMARK INTER:                 -12.283
REMARK INTRA:                  -1.062
REMARK UNBOUND:                -1.455
REMARK  Name = 
REMARK  8 active torsions:
REMARK  status: ('A' for Active; 'I' for Inactive)
REMARK    1  A    between atoms: N_1  and  C_2
REMARK    2  A    between atoms: C_2  and  C_3
REMARK    3  A    between atoms: C_3  and  C_4
REMARK    4  A    between atoms: C_4  and  C_5
REMARK    5  A    between atoms: C_5  and  C_6
REMARK    6  A    between atoms: C_6  and  N_7
REMARK    7  A    between atoms: N_7  and  C_8
REMARK    8  A    between atoms: C_9  and  C_10
REMARK                            x       y       z     vdW  Elec       q    Type
REMARK                         _______ _______ _______ _____ _____    ______ ____
ROOT
ATOM      1  C   UNL     1      -9.233  -5.084  18.056  0.00  0.00    +0.000 C 
ATOM      2  C   UNL     1      -9.958  -5.947  17.331  0.00  0.00    +0.000 C 
ATOM      3  C   UNL     1     -11.068  -5.201  16.696  0.00  0.00    +0.000 C 
ATOM      4  O   UNL     1     -11.883  -5.638  15.902  0.00  0.00    +0.000 OA
ATOM      5  N   UNL     1     -11.002  -3.933  17.153  0.00  0.00    +0.000 N 
ATOM      6  C   UNL     1      -9.937  -3.772  17.967  0.00  0.00    +0.000 C 
ATOM      7  O   UNL     1      -9.579  -2.755  18.531  0.00  0.00    +0.000 OA
ATOM      8  H   UNL     1     -11.642  -3.204  16.896  0.00  0.00    +0.000 HD
ENDROOT
BRANCH   2   9
ATOM      9  C   UNL     1      -9.732  -7.332  17.221  0.00  0.00    +0.000 A 
ATOM     10  C   UNL     1      -9.398  -8.312  18.130  0.00  0.00    +0.000 A 
ATOM     11  C   UNL     1      -9.217  -9.527  17.419  0.00  0.00    +0.000 A 
ATOM     12  C   UNL     1      -8.864 -10.834  17.804  0.00  0.00    +0.000 A 
ATOM     13  C   UNL     1      -8.752 -11.825  16.829  0.00  0.00    +0.000 A 
ATOM     14  C   UNL     1      -8.977 -11.531  15.484  0.00  0.00    +0.000 A 
ATOM     15  C   UNL     1      -9.325 -10.238  15.076  0.00  0.00    +0.000 A 
ATOM     16  C   UNL     1      -9.445  -9.259  16.070  0.00  0.00    +0.000 A 
ATOM     17  N   UNL     1      -9.776  -7.927  15.978  0.00  0.00    +0.000 N 
ATOM     18  H   UNL     1      -9.277  -8.168  19.196  0.00  0.00    +0.000 HD
ATOM     19  H   UNL     1      -8.675 -11.061  18.849  0.00  0.00    +0.000 HD
ATOM     20  H   UNL     1      -8.480 -12.835  17.123  0.00  0.00    +0.000 HD
ATOM     21  H   UNL     1      -8.877 -12.318  14.741  0.00  0.00    +0.000 HD
ATOM     22  H   UNL     1      -9.490 -10.012  14.028  0.00  0.00    +0.000 HD
ATOM     23  H   UNL     1     -10.013  -7.447  15.118  0.00  0.00    +0.000 HD
ENDBRANCH   2   9
BRANCH   1  24
ATOM     24  N   UNL     1      -8.065  -5.233  18.796  0.00  0.00    +0.000 N 
ATOM     25  H   UNL     1      -7.529  -6.025  18.428  0.00  0.00    +0.000 HD
BRANCH  24  26
ATOM     26  C   UNL     1      -8.124  -5.273  20.262  0.00  0.00    +0.000 C 
ATOM     27  H   UNL     1      -9.168  -5.410  20.563  0.00  0.00    +0.000 HD
ATOM     28  H   UNL     1      -7.562  -6.126  20.658  0.00  0.00    +0.000 HD
BRANCH  26  29
ATOM     29  C   UNL     1      -7.578  -3.980  20.872  0.00  0.00    +0.000 C 
ATOM     30  H   UNL     1      -7.338  -3.258  20.080  0.00  0.00    +0.000 HD
ATOM     31  H   UNL     1      -8.344  -3.513  21.505  0.00  0.00    +0.000 HD
BRANCH  29  32
ATOM     32  C   UNL     1      -6.327  -4.279  21.700  0.00  0.00    +0.000 C 
ATOM     33  H   UNL     1      -6.336  -3.661  22.606  0.00  0.00    +0.000 HD
ATOM     34  H   UNL     1      -6.347  -5.326  22.024  0.00  0.00    +0.000 HD
BRANCH  32  35
ATOM     35  C   UNL     1      -5.042  -4.014  20.918  0.00  0.00    +0.000 C 
ATOM     36  H   UNL     1      -5.231  -3.256  20.148  0.00  0.00    +0.000 HD
ATOM     37  H   UNL     1      -4.280  -3.606  21.594  0.00  0.00    +0.000 HD
BRANCH  35  38
ATOM     38  C   UNL     1      -4.528  -5.298  20.268  0.00  0.00    +0.000 C 
ATOM     39  H   UNL     1      -3.447  -5.392  20.416  0.00  0.00    +0.000 HD
ATOM     40  H   UNL     1      -5.004  -6.171  20.729  0.00  0.00    +0.000 HD
BRANCH  38  41
ATOM     41  N   UNL     1      -4.822  -5.293  18.841  0.00  0.00    +0.000 NA
ATOM     42  H   UNL     1      -4.137  -5.864  18.349  0.00  0.00    +0.000 HD
ATOM     43  H   UNL     1      -4.724  -4.347  18.473  0.00  0.00    +0.000 HD
ENDBRANCH  38  41
ENDBRANCH  35  38
ENDBRANCH  32  35
ENDBRANCH  29  32
ENDBRANCH  26  29
ENDBRANCH  24  26
ENDBRANCH   1  24
TORSDOF 8
ENDMDL
MODEL 9
REMARK VINA RESULT:    -8.115      2.655      7.099
REMARK INTER + INTRA:         -13.128
REMARK INTER:                 -12.427
REMARK INTRA:                  -0.701
REMARK UNBOUND:                -1.455
REMARK  Name = 
REMARK  8 active torsions:
REMARK  status: ('A' for Active; 'I' for Inactive)
REMARK    1  A    between atoms: N_1  and  C_2
REMARK    2  A    between atoms: C_2  and  C_3
REMARK    3  A    between atoms: C_3  and  C_4
REMARK    4  A    between atoms: C_4  and  C_5
REMARK    5  A    between atoms: C_5  and  C_6
REMARK    6  A    between atoms: C_6  and  N_7
REMARK    7  A    between atoms: N_7  and  C_8
REMARK    8  A    between atoms: C_9  and  C_10
REMARK                            x       y       z     vdW  Elec       q    Type
REMARK                         _______ _______ _______ _____ _____    ______ ____
ROOT
ATOM      1  C   UNL     1      -9.309  -6.348  17.793  0.00  0.00    +0.000 C 
ATOM      2  C   UNL     1      -9.000  -7.549  18.299  0.00  0.00    +0.000 C 
ATOM      3  C   UNL     1      -8.725  -7.387  19.744  0.00  0.00    +0.000 C 
ATOM      4  O   UNL     1      -8.490  -8.273  20.548  0.00  0.00    +0.000 OA
ATOM      5  N   UNL     1      -8.794  -6.066  20.012  0.00  0.00    +0.000 N 
ATOM      6  C   UNL     1      -9.140  -5.371  18.908  0.00  0.00    +0.000 C 
ATOM      7  O   UNL     1      -9.306  -4.170  18.807  0.00  0.00    +0.000 OA
ATOM      8  H   UNL     1      -8.639  -5.663  20.918  0.00  0.00    +0.000 HD
ENDROOT
BRANCH   2   9
ATOM      9  C   UNL     1      -8.912  -8.755  17.577  0.00  0.00    +0.000 A 
ATOM     10  C   UNL     1      -9.057  -9.074  16.245  0.00  0.00    +0.000 A 
ATOM     11  C   UNL     1      -8.940 -10.482  16.115  0.00  0.00    +0.000 A 
ATOM     12  C   UNL     1      -9.011 -11.366  15.022  0.00  0.00    +0.000 A 
ATOM     13  C   UNL     1      -8.865 -12.736  15.242  0.00  0.00    +0.000 A 
ATOM     14  C   UNL     1      -8.659 -13.233  16.528  0.00  0.00    +0.000 A 
ATOM     15  C   UNL     1      -8.588 -12.375  17.632  0.00  0.00    +0.000 A 
ATOM     16  C   UNL     1      -8.725 -11.002  17.391  0.00  0.00    +0.000 A 
ATOM     17  N   UNL     1      -8.691  -9.934  18.257  0.00  0.00    +0.000 N 
ATOM     18  H   UNL     1      -9.247  -8.369  15.446  0.00  0.00    +0.000 HD
ATOM     19  H   UNL     1      -9.185 -10.981  14.022  0.00  0.00    +0.000 HD
ATOM     20  H   UNL     1      -8.920 -13.420  14.400  0.00  0.00    +0.000 HD
ATOM     21  H   UNL     1      -8.555 -14.305  16.677  0.00  0.00    +0.000 HD
ATOM     22  H   UNL     1      -8.438 -12.768  18.632  0.00  0.00    +0.000 HD
ATOM     23  H   UNL     1      -8.533 -10.002  19.255  0.00  0.00    +0.000 HD
ENDBRANCH   2   9
BRANCH   1  24
ATOM     24  N   UNL     1      -9.705  -5.940  16.523  0.00  0.00    +0.000 N 
ATOM     25  H   UNL     1      -9.271  -5.037  16.307  0.00  0.00    +0.000 HD
BRANCH  24  26
ATOM     26  C   UNL     1     -11.128  -5.941  16.162  0.00  0.00    +0.000 C 
ATOM     27  H   UNL     1     -11.353  -6.878  15.644  0.00  0.00    +0.000 HD
ATOM     28  H   UNL     1     -11.762  -5.908  17.054  0.00  0.00    +0.000 HD
BRANCH  26  29
ATOM     29  C   UNL     1     -11.468  -4.756  15.254  0.00  0.00    +0.000 C 
ATOM     30  H   UNL     1     -10.961  -4.862  14.286  0.00  0.00    +0.000 HD
ATOM     31  H   UNL     1     -12.546  -4.742  15.048  0.00  0.00    +0.000 HD
BRANCH  29  32
ATOM     32  C   UNL     1     -11.047  -3.447  15.923  0.00  0.00    +0.000 C 
ATOM     33  H   UNL     1     -10.264  -3.653  16.665  0.00  0.00    +0.000 HD
ATOM     34  H   UNL     1     -10.611  -2.778  15.172  0.00  0.00    +0.000 HD
BRANCH  32  35
ATOM     35  C   UNL     1     -12.221  -2.747  16.607  0.00  0.00    +0.000 C 
ATOM     36  H   UNL     1     -13.154  -3.265  16.354  0.00  0.00    +0.000 HD
ATOM     37  H   UNL     1     -12.100  -2.810  17.696  0.00  0.00    +0.000 HD
BRANCH  35  38
ATOM     38  C   UNL     1     -12.304  -1.283  16.175  0.00  0.00    +0.000 C 
ATOM     39  H   UNL     1     -11.988  -0.628  16.993  0.00  0.00    +0.000 HD
ATOM     40  H   UNL     1     -11.636  -1.102  15.326  0.00  0.00    +0.000 HD
BRANCH  38  41
ATOM     41  N   UNL     1     -13.669  -0.951  15.788  0.00  0.00    +0.000 NA
ATOM     42  H   UNL     1     -14.030  -1.667  15.161  0.00  0.00    +0.000 HD
ATOM     43  H   UNL     1     -13.674  -0.079  15.260  0.00  0.00    +0.000 HD
ENDBRANCH  38  41
ENDBRANCH  35  38
ENDBRANCH  32  35
ENDBRANCH  29  32
ENDBRANCH  26  29
ENDBRANCH  24  26
ENDBRANCH   1  24
TORSDOF 8
ENDMDL
