REMARK  Name = 
REMARK  12 active torsions:
REMARK  status: ('A' for Active; 'I' for Inactive)
REMARK    1  A    between atoms: C_1  and  C_2
REMARK    2  A    between atoms: C_2  and  C_3
REMARK    3  A    between atoms: C_3  and  C_4
REMARK    4  A    between atoms: C_4  and  C_5
REMARK    5  A    between atoms: C_5  and  O_6
REMARK    6  A    between atoms: C_5  and  C_7
REMARK    7  A    between atoms: C_7  and  N_8
REMARK    8  A    between atoms: N_8  and  C_9
REMARK    9  A    between atoms: N_8  and  C_10
REMARK   10  A    between atoms: C_14  and  C_15
REMARK   11  A    between atoms: C_16  and  O_17
REMARK   12  A    between atoms: O_17  and  C_18
REMARK                            x       y       z     vdW  Elec       q    Type
REMARK                         _______ _______ _______ _____ _____    ______ ____
ROOT
ATOM      1  C   UNL     1       1.509   0.546   0.001  0.00  0.00    +0.000 C 
ATOM      2  C   UNL     1       0.981   0.679  -1.457  0.00  0.00    +0.000 C 
ATOM      3  C   UNL     1      -0.397   0.112  -1.467  0.00  0.00    +0.000 C 
ATOM      4  O   UNL     1      -0.810   0.916  -0.296  0.00  0.00    +0.000 OA
ATOM      5  C   UNL     1      -1.198  -0.193   0.400  0.00  0.00    +0.000 C 
ATOM      6  C   UNL     1       0.638  -0.876   0.355  0.00  0.00    +0.000 C 
ATOM      7  N   UNL     1      -2.562  -0.074  -0.504  0.00  0.00    +0.000 N 
ATOM      8  C   UNL     1      -3.445   1.047  -0.799  0.00  0.00    +0.000 A 
ATOM      9  C   UNL     1      -3.569   2.309  -0.206  0.00  0.00    +0.000 A 
ATOM     10  C   UNL     1      -4.560   3.181  -0.689  0.00  0.00    +0.000 A 
ATOM     11  C   UNL     1      -5.452   2.822  -1.705  0.00  0.00    +0.000 A 
ATOM     12  C   UNL     1      -5.279   1.649  -2.419  0.00  0.00    +0.000 A 
ATOM     13  C   UNL     1      -4.201   0.831  -2.084  0.00  0.00    +0.000 A 
ATOM     14  C   UNL     1      -3.547  -0.120  -2.851  0.00  0.00    +0.000 A 
ATOM     15  C   UNL     1      -3.841  -0.919  -4.000  0.00  0.00    +0.000 A 
ATOM     16  C   UNL     1      -3.966  -2.318  -3.581  0.00  0.00    +0.000 A 
ATOM     17  C   UNL     1      -2.840  -2.588  -2.681  0.00  0.00    +0.000 A 
ATOM     18  C   UNL     1      -3.137  -2.913  -1.336  0.00  0.00    +0.000 A 
ATOM     19  C   UNL     1      -4.371  -2.888  -0.613  0.00  0.00    +0.000 A 
ATOM     20  C   UNL     1      -4.386  -2.944   0.767  0.00  0.00    +0.000 A 
ATOM     21  C   UNL     1      -3.187  -3.240   1.405  0.00  0.00    +0.000 A 
ATOM     22  C   UNL     1      -1.916  -3.141   0.746  0.00  0.00    +0.000 A 
ATOM     23  C   UNL     1      -1.843  -2.641  -0.584  0.00  0.00    +0.000 A 
ATOM     24  N   UNL     1      -0.945  -1.576  -1.439  0.00  0.00    +0.000 N 
ATOM     25  C   UNL     1      -1.928  -1.591  -2.302  0.00  0.00    +0.000 A 
ATOM     26  C   UNL     1      -2.692  -0.510  -1.826  0.00  0.00    +0.000 A 
ATOM     27  C   UNL     1      -4.045  -3.153  -4.752  0.00  0.00    +0.000 C 
ATOM     28  O   UNL     1      -4.440  -4.299  -4.930  0.00  0.00    +0.000 OA
ATOM     29  N   UNL     1      -3.414  -2.384  -5.718  0.00  0.00    +0.000 N 
ATOM     30  C   UNL     1      -2.964  -1.073  -5.251  0.00  0.00    +0.000 C 
ATOM     31  H   UNL     1       1.143   1.287   0.726  0.00  0.00    +0.000 HD
ATOM     32  H   UNL     1       0.821   1.757  -1.636  0.00  0.00    +0.000 HD
ATOM     33  H   UNL     1       1.609   0.293  -2.262  0.00  0.00    +0.000 HD
ATOM     34  H   UNL     1      -0.836   0.506  -2.396  0.00  0.00    +0.000 HD
ATOM     35  H   UNL     1       0.915  -1.287   1.328  0.00  0.00    +0.000 HD
ATOM     36  H   UNL     1      -2.871   2.639   0.556  0.00  0.00    +0.000 HD
ATOM     37  H   UNL     1      -4.637   4.179  -0.267  0.00  0.00    +0.000 HD
ATOM     38  H   UNL     1      -6.239   3.502  -2.009  0.00  0.00    +0.000 HD
ATOM     39  H   UNL     1      -5.870   1.433  -3.306  0.00  0.00    +0.000 HD
ATOM     40  H   UNL     1      -5.295  -2.633  -1.139  0.00  0.00    +0.000 HD
ATOM     41  H   UNL     1      -5.326  -2.831   1.306  0.00  0.00    +0.000 HD
ATOM     42  H   UNL     1      -3.256  -3.544   2.444  0.00  0.00    +0.000 HD
ATOM     43  H   UNL     1      -1.057  -3.582   1.241  0.00  0.00    +0.000 HD
ATOM     44  H   UNL     1      -3.036  -2.878  -6.516  0.00  0.00    +0.000 HD
ATOM     45  H   UNL     1      -3.053  -0.316  -6.026  0.00  0.00    +0.000 HD
ATOM     46  H   UNL     1      -1.897  -1.202  -4.983  0.00  0.00    +0.000 HD
ENDROOT
BRANCH   5  47
ATOM     47  C   UNL     1      -1.419  -0.124   1.920  0.00  0.00    +0.000 C 
ATOM     48  H   UNL     1      -1.432  -1.142   2.343  0.00  0.00    +0.000 HD
ATOM     49  H   UNL     1      -0.566   0.355   2.420  0.00  0.00    +0.000 HD
ATOM     50  H   UNL     1      -2.331   0.371   2.245  0.00  0.00    +0.000 HD
ENDBRANCH   5  47
BRANCH   1  51
ATOM     51  N   UNL     1       2.945   0.894  -0.246  0.00  0.00    +0.000 NA
BRANCH  51  52
ATOM     52  C   UNL     1       3.104   2.290  -0.742  0.00  0.00    +0.000 C 
ATOM     53  H   UNL     1       2.746   3.036  -0.025  0.00  0.00    +0.000 HD
ATOM     54  H   UNL     1       2.574   2.504  -1.675  0.00  0.00    +0.000 HD
ATOM     55  H   UNL     1       4.148   2.497  -1.002  0.00  0.00    +0.000 HD
ENDBRANCH  51  52
BRANCH  51  56
ATOM     56  C   UNL     1       3.907   0.645   0.824  0.00  0.00    +0.000 C 
ATOM     57  H   UNL     1       3.828  -0.403   1.130  0.00  0.00    +0.000 HD
ATOM     58  H   UNL     1       4.900   0.736   0.354  0.00  0.00    +0.000 HD
BRANCH  56  59
ATOM     59  C   UNL     1       3.918   1.563   2.080  0.00  0.00    +0.000 C 
ATOM     60  H   UNL     1       2.956   1.492   2.597  0.00  0.00    +0.000 HD
BRANCH  59  61
ATOM     61  C   UNL     1       5.061   1.119   2.996  0.00  0.00    +0.000 C 
ATOM     62  H   UNL     1       6.016   1.269   2.474  0.00  0.00    +0.000 HD
ATOM     63  H   UNL     1       4.967   0.048   3.208  0.00  0.00    +0.000 HD
BRANCH  61  64
ATOM     64  C   UNL     1       5.109   1.901   4.308  0.00  0.00    +0.000 C 
ATOM     65  H   UNL     1       5.214   2.975   4.111  0.00  0.00    +0.000 HD
ATOM     66  H   UNL     1       4.168   1.762   4.855  0.00  0.00    +0.000 HD
BRANCH  64  67
ATOM     67  C   UNL     1       6.288   1.425   5.153  0.00  0.00    +0.000 C 
ATOM     68  H   UNL     1       6.210   0.346   5.329  0.00  0.00    +0.000 HD
ATOM     69  H   UNL     1       7.222   1.596   4.605  0.00  0.00    +0.000 HD
BRANCH  67  70
ATOM     70  C   UNL     1       6.352   2.147   6.486  0.00  0.00    +0.000 C 
ATOM     71  H   UNL     1       6.343   3.233   6.348  0.00  0.00    +0.000 HD
ATOM     72  H   UNL     1       5.501   1.872   7.117  0.00  0.00    +0.000 HD
ATOM     73  H   UNL     1       7.271   1.877   7.015  0.00  0.00    +0.000 HD
ENDBRANCH  67  70
ENDBRANCH  64  67
ENDBRANCH  61  64
ENDBRANCH  59  61
BRANCH  59  74
ATOM     74  O   UNL     1       4.141   2.945   1.779  0.00  0.00    +0.000 OA
ATOM     75  H   UNL     1       4.898   3.006   1.172  0.00  0.00    +0.000 HD
ENDBRANCH  59  74
ENDBRANCH  56  59
ENDBRANCH  51  56
ENDBRANCH   1  51
BRANCH   6  76
ATOM     76  O   UNL     1       1.399  -1.617  -0.683  0.00  0.00    +0.000 OA
BRANCH  76  77
ATOM     77  C   UNL     1       1.298  -2.893  -1.273  0.00  0.00    +0.000 C 
ATOM     78  H   UNL     1       1.053  -3.676  -0.564  0.00  0.00    +0.000 HD
ATOM     79  H   UNL     1       2.266  -3.108  -1.747  0.00  0.00    +0.000 HD
ATOM     80  H   UNL     1       0.638  -2.922  -2.151  0.00  0.00    +0.000 HD
ENDBRANCH  76  77
ENDBRANCH   6  76
TORSDOF 12
