REMARK  Name = 
REMARK  7 active torsions:
REMARK  status: ('A' for Active; 'I' for Inactive)
REMARK    1  A    between atoms: C_1  and  O_2
REMARK    2  A    between atoms: O_2  and  C_3
REMARK    3  A    between atoms: C_4  and  N_5
REMARK    4  A    between atoms: N_5  and  C_6
REMARK    5  A    between atoms: N_5  and  C_7
REMARK    6  A    between atoms: N_5  and  C_8
REMARK    7  A    between atoms: C_12  and  C_13
REMARK                            x       y       z     vdW  Elec       q    Type
REMARK                         _______ _______ _______ _____ _____    ______ ____
ROOT
ATOM      1  C   UNL     1       2.093  -0.258  -1.090  0.00  0.00    +0.000 C 
ATOM      2  C   UNL     1       2.669   0.702   0.070  0.00  0.00    +0.000 C 
ATOM      3  C   UNL     1       1.592   1.402   0.900  0.00  0.00    +0.000 C 
ATOM      4  C   UNL     1       0.258   0.768   0.720  0.00  0.00    +0.000 C 
ATOM      5  O   UNL     1       0.545  -0.626   0.839  0.00  0.00    +0.000 OA
ATOM      6  C   UNL     1       1.012  -1.238  -0.375  0.00  0.00    +0.000 C 
ATOM      7  N   UNL     1      -0.246  -1.702  -1.026  0.00  0.00    +0.000 N 
ATOM      8  C   UNL     1      -0.724  -3.056  -0.797  0.00  0.00    +0.000 A 
ATOM      9  C   UNL     1      -0.158  -4.293  -1.132  0.00  0.00    +0.000 A 
ATOM     10  C   UNL     1      -0.479  -5.399  -0.326  0.00  0.00    +0.000 A 
ATOM     11  C   UNL     1      -1.300  -5.274   0.790  0.00  0.00    +0.000 A 
ATOM     12  C   UNL     1      -1.999  -4.097   1.007  0.00  0.00    +0.000 A 
ATOM     13  C   UNL     1      -1.826  -3.014   0.129  0.00  0.00    +0.000 A 
ATOM     14  C   UNL     1      -2.464  -1.785  -0.075  0.00  0.00    +0.000 A 
ATOM     15  C   UNL     1      -3.610  -1.386   0.648  0.00  0.00    +0.000 A 
ATOM     16  C   UNL     1      -3.881  -0.008   0.564  0.00  0.00    +0.000 A 
ATOM     17  C   UNL     1      -2.834   0.688  -0.023  0.00  0.00    +0.000 A 
ATOM     18  C   UNL     1      -2.475   1.928   0.520  0.00  0.00    +0.000 A 
ATOM     19  C   UNL     1      -2.967   2.826   1.456  0.00  0.00    +0.000 A 
ATOM     20  C   UNL     1      -3.129   4.093   0.930  0.00  0.00    +0.000 A 
ATOM     21  C   UNL     1      -2.624   4.387  -0.345  0.00  0.00    +0.000 A 
ATOM     22  C   UNL     1      -1.681   3.542  -0.991  0.00  0.00    +0.000 A 
ATOM     23  C   UNL     1      -1.402   2.344  -0.318  0.00  0.00    +0.000 A 
ATOM     24  N   UNL     1      -0.574   1.162  -0.465  0.00  0.00    +0.000 N 
ATOM     25  C   UNL     1      -1.633   0.298  -0.637  0.00  0.00    +0.000 A 
ATOM     26  C   UNL     1      -1.457  -1.077  -0.754  0.00  0.00    +0.000 A 
ATOM     27  C   UNL     1      -4.971   0.351   1.406  0.00  0.00    +0.000 C 
ATOM     28  O   UNL     1      -5.545   1.401   1.661  0.00  0.00    +0.000 OA
ATOM     29  N   UNL     1      -5.227  -0.825   2.091  0.00  0.00    +0.000 N 
ATOM     30  C   UNL     1      -4.449  -1.983   1.667  0.00  0.00    +0.000 C 
ATOM     31  H   UNL     1       2.936  -0.860  -1.460  0.00  0.00    +0.000 HD
ATOM     32  H   UNL     1       3.199   0.016   0.745  0.00  0.00    +0.000 HD
ATOM     33  H   UNL     1       1.519   2.482   0.806  0.00  0.00    +0.000 HD
ATOM     34  H   UNL     1       1.873   1.195   1.948  0.00  0.00    +0.000 HD
ATOM     35  H   UNL     1      -0.338   1.022   1.604  0.00  0.00    +0.000 HD
ATOM     36  H   UNL     1       0.563  -4.405  -1.934  0.00  0.00    +0.000 HD
ATOM     37  H   UNL     1      -0.023  -6.367  -0.526  0.00  0.00    +0.000 HD
ATOM     38  H   UNL     1      -1.430  -6.100   1.487  0.00  0.00    +0.000 HD
ATOM     39  H   UNL     1      -2.645  -4.013   1.872  0.00  0.00    +0.000 HD
ATOM     40  H   UNL     1      -3.520   2.515   2.335  0.00  0.00    +0.000 HD
ATOM     41  H   UNL     1      -3.797   4.773   1.455  0.00  0.00    +0.000 HD
ATOM     42  H   UNL     1      -3.023   5.268  -0.846  0.00  0.00    +0.000 HD
ATOM     43  H   UNL     1      -1.336   3.758  -1.996  0.00  0.00    +0.000 HD
ATOM     44  H   UNL     1      -5.491  -0.678   3.056  0.00  0.00    +0.000 HD
ATOM     45  H   UNL     1      -3.863  -2.316   2.525  0.00  0.00    +0.000 HD
ATOM     46  H   UNL     1      -5.120  -2.751   1.280  0.00  0.00    +0.000 HD
ENDROOT
BRANCH   6  47
ATOM     47  C   UNL     1       1.861  -2.427   0.165  0.00  0.00    +0.000 C 
ATOM     48  H   UNL     1       2.228  -3.067  -0.647  0.00  0.00    +0.000 HD
ATOM     49  H   UNL     1       1.292  -3.035   0.886  0.00  0.00    +0.000 HD
ATOM     50  H   UNL     1       2.735  -2.087   0.730  0.00  0.00    +0.000 HD
ENDBRANCH   6  47
BRANCH   1  51
ATOM     51  O   UNL     1       1.614   0.503  -2.199  0.00  0.00    +0.000 OA
BRANCH  51  52
ATOM     52  C   UNL     1       1.347  -0.286  -3.364  0.00  0.00    +0.000 C 
ATOM     53  H   UNL     1       1.432   0.357  -4.245  0.00  0.00    +0.000 HD
ATOM     54  H   UNL     1       0.326  -0.671  -3.336  0.00  0.00    +0.000 HD
ATOM     55  H   UNL     1       2.055  -1.114  -3.477  0.00  0.00    +0.000 HD
ENDBRANCH  51  52
ENDBRANCH   1  51
BRANCH   2  56
ATOM     56  N   UNL     1       3.796   1.772  -0.238  0.00  0.00    +0.000 N 
BRANCH  56  57
ATOM     57  C   UNL     1       3.303   2.898  -1.149  0.00  0.00    +0.000 C 
ATOM     58  H   UNL     1       2.738   2.481  -1.977  0.00  0.00    +0.000 HD
ATOM     59  H   UNL     1       4.175   3.440  -1.526  0.00  0.00    +0.000 HD
ATOM     60  H   UNL     1       2.681   3.584  -0.567  0.00  0.00    +0.000 HD
ENDBRANCH  56  57
BRANCH  56  61
ATOM     61  C   UNL     1       4.265   2.420   1.103  0.00  0.00    +0.000 C 
ATOM     62  H   UNL     1       5.056   3.141   0.887  0.00  0.00    +0.000 HD
ATOM     63  H   UNL     1       3.431   2.952   1.572  0.00  0.00    +0.000 HD
ATOM     64  H   UNL     1       4.622   1.623   1.761  0.00  0.00    +0.000 HD
ENDBRANCH  56  61
BRANCH  56  65
ATOM     65  C   UNL     1       5.037   1.131  -0.843  0.00  0.00    +0.000 C 
ATOM     66  H   UNL     1       5.255   0.208  -0.299  0.00  0.00    +0.000 HD
ATOM     67  H   UNL     1       4.855   0.938  -1.901  0.00  0.00    +0.000 HD
ATOM     68  H   UNL     1       5.875   1.829  -0.727  0.00  0.00    +0.000 HD
ENDBRANCH  56  65
ENDBRANCH   2  56
TORSDOF 7
