REMARK  Name = 
REMARK  7 active torsions:
REMARK  status: ('A' for Active; 'I' for Inactive)
REMARK    1  A    between atoms: N_1  and  C_2
REMARK    2  A    between atoms: C_2  and  C_3
REMARK    3  A    between atoms: C_2  and  C_20
REMARK    4  A    between atoms: C_3  and  O_4
REMARK    5  A    between atoms: O_4  and  C_5
REMARK    6  A    between atoms: C_9  and  C_10
REMARK    7  A    between atoms: C_20  and  C_21
REMARK                            x       y       z     vdW  Elec       q    Type
REMARK                         _______ _______ _______ _____ _____    ______ ____
ROOT
ATOM      1  C   UNL     1       0.449   0.045   0.591  0.00  0.00    +0.000 C 
ATOM      2  H   UNL     1       0.058  -0.079   1.609  0.00  0.00    +0.000 HD
ATOM      3  H   UNL     1       0.094   0.998   0.177  0.00  0.00    +0.000 HD
ENDROOT
BRANCH   1   4
ATOM      4  C   UNL     1       1.987   0.075   0.639  0.00  0.00    +0.000 C 
ATOM      5  H   UNL     1       2.291   0.925   1.261  0.00  0.00    +0.000 HD
BRANCH   4   6
ATOM      6  N   UNL     1       2.472  -1.147   1.313  0.00  0.00    +0.000 NA
ATOM      7  H   UNL     1       3.494  -1.136   1.317  0.00  0.00    +0.000 HD
ATOM      8  H   UNL     1       2.213  -1.953   0.741  0.00  0.00    +0.000 HD
ENDBRANCH   4   6
BRANCH   4   9
ATOM      9  C   UNL     1       2.560   0.270  -0.786  0.00  0.00    +0.000 C 
ATOM     10  H   UNL     1       2.174   1.211  -1.200  0.00  0.00    +0.000 HD
ATOM     11  H   UNL     1       2.207  -0.522  -1.458  0.00  0.00    +0.000 HD
BRANCH   9  12
ATOM     12  C   UNL     1       4.057   0.307  -0.820  0.00  0.00    +0.000 A 
ATOM     13  C   UNL     1       4.865   1.416  -0.667  0.00  0.00    +0.000 A 
ATOM     14  N   UNL     1       6.170   1.003  -0.718  0.00  0.00    +0.000 N 
ATOM     15  C   UNL     1       6.233  -0.358  -0.907  0.00  0.00    +0.000 A 
ATOM     16  C   UNL     1       7.340  -1.209  -1.003  0.00  0.00    +0.000 A 
ATOM     17  C   UNL     1       7.094  -2.572  -1.192  0.00  0.00    +0.000 A 
ATOM     18  C   UNL     1       5.795  -3.064  -1.286  0.00  0.00    +0.000 A 
ATOM     19  C   UNL     1       4.702  -2.198  -1.194  0.00  0.00    +0.000 A 
ATOM     20  C   UNL     1       4.921  -0.820  -0.995  0.00  0.00    +0.000 A 
ATOM     21  H   UNL     1       4.624   2.460  -0.513  0.00  0.00    +0.000 HD
ATOM     22  H   UNL     1       6.976   1.605  -0.619  0.00  0.00    +0.000 HD
ATOM     23  H   UNL     1       8.354  -0.832  -0.930  0.00  0.00    +0.000 HD
ATOM     24  H   UNL     1       7.932  -3.262  -1.265  0.00  0.00    +0.000 HD
ATOM     25  H   UNL     1       5.625  -4.128  -1.430  0.00  0.00    +0.000 HD
ATOM     26  H   UNL     1       3.692  -2.592  -1.266  0.00  0.00    +0.000 HD
ENDBRANCH   9  12
ENDBRANCH   4   9
ENDBRANCH   1   4
BRANCH   1  27
ATOM     27  O   UNL     1       0.006  -1.043  -0.234  0.00  0.00    +0.000 OA
BRANCH  27  28
ATOM     28  C   UNL     1      -1.342  -1.160  -0.410  0.00  0.00    +0.000 A 
ATOM     29  C   UNL     1      -1.781  -2.195  -1.222  0.00  0.00    +0.000 A 
ATOM     30  N   UNL     1      -3.080  -2.427  -1.520  0.00  0.00    +0.000 NA
ATOM     31  C   UNL     1      -3.984  -1.572  -0.984  0.00  0.00    +0.000 A 
ATOM     32  C   UNL     1      -3.675  -0.499  -0.144  0.00  0.00    +0.000 A 
ATOM     33  C   UNL     1      -2.311  -0.327   0.145  0.00  0.00    +0.000 A 
ATOM     34  H   UNL     1      -1.075  -2.886  -1.673  0.00  0.00    +0.000 HD
ATOM     35  H   UNL     1      -5.008  -1.783  -1.279  0.00  0.00    +0.000 HD
ATOM     36  H   UNL     1      -2.020   0.471   0.819  0.00  0.00    +0.000 HD
BRANCH  32  37
ATOM     37  C   UNL     1      -4.700   0.419   0.402  0.00  0.00    +0.000 A 
ATOM     38  C   UNL     1      -6.000  -0.026   0.710  0.00  0.00    +0.000 A 
ATOM     39  C   UNL     1      -6.992   0.825   1.220  0.00  0.00    +0.000 A 
ATOM     40  C   UNL     1      -6.635   2.156   1.436  0.00  0.00    +0.000 A 
ATOM     41  N   UNL     1      -7.338   3.225   1.920  0.00  0.00    +0.000 N 
ATOM     42  N   UNL     1      -6.628   4.368   1.992  0.00  0.00    +0.000 NA
ATOM     43  C   UNL     1      -5.428   4.011   1.526  0.00  0.00    +0.000 A 
ATOM     44  C   UNL     1      -5.369   2.650   1.159  0.00  0.00    +0.000 A 
ATOM     45  C   UNL     1      -4.398   1.782   0.631  0.00  0.00    +0.000 A 
ATOM     46  H   UNL     1      -6.268  -1.073   0.566  0.00  0.00    +0.000 HD
ATOM     47  H   UNL     1      -7.986   0.453   1.443  0.00  0.00    +0.000 HD
ATOM     48  H   UNL     1      -8.306   3.244   2.222  0.00  0.00    +0.000 HD
ATOM     49  H   UNL     1      -4.643   4.755   1.477  0.00  0.00    +0.000 HD
ATOM     50  H   UNL     1      -3.418   2.188   0.398  0.00  0.00    +0.000 HD
ENDBRANCH  32  37
ENDBRANCH  27  28
ENDBRANCH   1  27
TORSDOF 7
