MODEL 1
REMARK VINA RESULT:    -9.691      0.000      0.000
REMARK INTER + INTRA:         -15.161
REMARK INTER:                 -14.507
REMARK INTRA:                  -0.655
REMARK UNBOUND:                -0.655
REMARK  Name = 
REMARK  10 active torsions:
REMARK  status: ('A' for Active; 'I' for Inactive)
REMARK    1  A    between atoms: C_1  and  O_2
REMARK    2  A    between atoms: O_2  and  C_3
REMARK    3  A    between atoms: C_3  and  C_5
REMARK    4  A    between atoms: C_9  and  N_10
REMARK    5  A    between atoms: C_11  and  C_13
REMARK    6  A    between atoms: C_13  and  C_14
REMARK    7  A    between atoms: C_14  and  N_15
REMARK    8  A    between atoms: N_15  and  C_16
REMARK    9  A    between atoms: N_15  and  C_17
REMARK   10  A    between atoms: N_20  and  C_21
REMARK                            x       y       z     vdW  Elec       q    Type
REMARK                         _______ _______ _______ _____ _____    ______ ____
ROOT
ATOM      1  C   UNL     1     -10.182  -6.791  17.280  0.00  0.00    +0.000 C 
ATOM      2  C   UNL     1      -8.847  -6.203  16.680  0.00  0.00    +0.000 C 
ATOM      3  C   UNL     1      -7.566  -6.499  17.484  0.00  0.00    +0.000 C 
ATOM      4  N   UNL     1      -7.862  -6.186  18.876  0.00  0.00    +0.000 N 
ATOM      5  C   UNL     1      -8.830  -7.099  19.452  0.00  0.00    +0.000 C 
ATOM      6  C   UNL     1     -10.172  -6.752  18.827  0.00  0.00    +0.000 C 
ATOM      7  H   UNL     1      -8.936  -5.110  16.614  0.00  0.00    +0.000 HD
ATOM      8  H   UNL     1      -8.703  -6.558  15.650  0.00  0.00    +0.000 HD
ATOM      9  H   UNL     1      -6.752  -5.888  17.075  0.00  0.00    +0.000 HD
ATOM     10  H   UNL     1      -7.256  -7.546  17.382  0.00  0.00    +0.000 HD
ATOM     11  H   UNL     1      -8.907  -7.033  20.539  0.00  0.00    +0.000 HD
ATOM     12  H   UNL     1      -8.559  -8.141  19.247  0.00  0.00    +0.000 HD
ATOM     13  H   UNL     1     -10.447  -5.742  19.156  0.00  0.00    +0.000 HD
ATOM     14  H   UNL     1     -10.888  -7.459  19.246  0.00  0.00    +0.000 HD
ENDROOT
BRANCH   4  15
ATOM     15  C   UNL     1      -6.970  -5.492  19.661  0.00  0.00    +0.000 A 
ATOM     16  N   UNL     1      -5.660  -5.808  19.616  0.00  0.00    +0.000 NA
ATOM     17  C   UNL     1      -4.793  -5.062  20.338  0.00  0.00    +0.000 A 
ATOM     18  N   UNL     1      -5.081  -3.985  21.083  0.00  0.00    +0.000 NA
ATOM     19  C   UNL     1      -6.374  -3.704  21.075  0.00  0.00    +0.000 A 
ATOM     20  C   UNL     1      -7.356  -4.414  20.419  0.00  0.00    +0.000 A 
ATOM     21  C   UNL     1      -8.674  -3.745  20.636  0.00  0.00    +0.000 C 
ATOM     22  C   UNL     1      -8.293  -2.524  21.473  0.00  0.00    +0.000 C 
ATOM     23  O   UNL     1      -9.048  -1.661  21.874  0.00  0.00    +0.000 OA
ATOM     24  N   UNL     1      -6.931  -2.604  21.701  0.00  0.00    +0.000 N 
ATOM     25  H   UNL     1      -3.752  -5.366  20.303  0.00  0.00    +0.000 HD
ATOM     26  H   UNL     1      -9.354  -4.355  21.237  0.00  0.00    +0.000 HD
ATOM     27  H   UNL     1      -9.130  -3.421  19.698  0.00  0.00    +0.000 HD
ATOM     28  H   UNL     1      -6.397  -1.925  22.213  0.00  0.00    +0.000 HD
ENDBRANCH   4  15
BRANCH   1  30
ATOM     29  N   UNL     1      -9.073  -8.912  16.664  0.00  0.00    +0.000 N 
ATOM     30  C   UNL     1     -10.283  -8.265  16.824  0.00  0.00    +0.000 C 
ATOM     31  O   UNL     1     -11.381  -8.752  16.559  0.00  0.00    +0.000 OA
ATOM     32  H   UNL     1      -8.244  -8.384  16.951  0.00  0.00    +0.000 HD
BRANCH  29  37
ATOM     33  C   UNL     1      -8.479 -12.537  17.127  0.00  0.00    +0.000 A 
ATOM     34  C   UNL     1      -8.498 -12.996  15.804  0.00  0.00    +0.000 A 
ATOM     35  C   UNL     1      -8.681 -12.097  14.758  0.00  0.00    +0.000 A 
ATOM     36  C   UNL     1      -8.856 -10.740  15.021  0.00  0.00    +0.000 A 
ATOM     37  C   UNL     1      -8.852 -10.263  16.331  0.00  0.00    +0.000 A 
ATOM     38  C   UNL     1      -8.648 -11.167  17.385  0.00  0.00    +0.000 A 
ATOM     39  H   UNL     1      -8.376 -14.050  15.571  0.00  0.00    +0.000 HD
ATOM     40  H   UNL     1      -8.697 -12.453  13.731  0.00  0.00    +0.000 HD
ATOM     41  H   UNL     1      -9.002 -10.081  14.172  0.00  0.00    +0.000 HD
ATOM     42  H   UNL     1      -8.640 -10.817  18.417  0.00  0.00    +0.000 HD
BRANCH  33  43
ATOM     43  C   UNL     1      -8.309 -13.475  18.273  0.00  0.00    +0.000 C 
ATOM     44  O   UNL     1      -7.299 -13.544  18.953  0.00  0.00    +0.000 OA
BRANCH  43  45
ATOM     45  O   UNL     1      -9.440 -14.203  18.445  0.00  0.00    +0.000 OA
BRANCH  45  46
ATOM     46  C   UNL     1      -9.513 -15.399  17.671  0.00  0.00    +0.000 C 
ATOM     47  H   UNL     1      -8.708 -16.061  18.006  0.00  0.00    +0.000 HD
ATOM     48  H   UNL     1      -9.357 -15.171  16.613  0.00  0.00    +0.000 HD
ATOM     49  H   UNL     1     -10.468 -15.911  17.826  0.00  0.00    +0.000 HD
ENDBRANCH  45  46
ENDBRANCH  43  45
ENDBRANCH  33  43
ENDBRANCH  29  37
ENDBRANCH   1  30
BRANCH   1  50
ATOM     50  C   UNL     1     -11.369  -5.930  16.704  0.00  0.00    +0.000 C 
ATOM     51  H   UNL     1     -12.087  -5.811  17.529  0.00  0.00    +0.000 HD
ATOM     52  H   UNL     1     -11.888  -6.509  15.929  0.00  0.00    +0.000 HD
BRANCH  50  53
ATOM     53  N   UNL     1     -11.095  -4.556  16.182  0.00  0.00    +0.000 NA
BRANCH  53  54
ATOM     54  C   UNL     1     -11.454  -4.350  14.773  0.00  0.00    +0.000 C 
ATOM     55  H   UNL     1     -11.223  -3.331  14.462  0.00  0.00    +0.000 HD
ATOM     56  H   UNL     1     -12.537  -4.426  14.620  0.00  0.00    +0.000 HD
ATOM     57  H   UNL     1     -10.969  -5.068  14.104  0.00  0.00    +0.000 HD
ENDBRANCH  53  54
BRANCH  53  58
ATOM     58  C   UNL     1     -11.847  -3.572  16.980  0.00  0.00    +0.000 C 
ATOM     59  H   UNL     1     -11.239  -3.188  17.806  0.00  0.00    +0.000 HD
ATOM     60  H   UNL     1     -12.771  -3.999  17.387  0.00  0.00    +0.000 HD
ATOM     61  H   UNL     1     -12.113  -2.706  16.363  0.00  0.00    +0.000 HD
ENDBRANCH  53  58
ENDBRANCH  50  53
ENDBRANCH   1  50
TORSDOF 10
ENDMDL
MODEL 2
REMARK VINA RESULT:    -9.531      2.150      9.239
REMARK INTER + INTRA:         -14.922
REMARK INTER:                 -14.293
REMARK INTRA:                  -0.629
REMARK UNBOUND:                -0.655
REMARK  Name = 
REMARK  10 active torsions:
REMARK  status: ('A' for Active; 'I' for Inactive)
REMARK    1  A    between atoms: C_1  and  O_2
REMARK    2  A    between atoms: O_2  and  C_3
REMARK    3  A    between atoms: C_3  and  C_5
REMARK    4  A    between atoms: C_9  and  N_10
REMARK    5  A    between atoms: C_11  and  C_13
REMARK    6  A    between atoms: C_13  and  C_14
REMARK    7  A    between atoms: C_14  and  N_15
REMARK    8  A    between atoms: N_15  and  C_16
REMARK    9  A    between atoms: N_15  and  C_17
REMARK   10  A    between atoms: N_20  and  C_21
REMARK                            x       y       z     vdW  Elec       q    Type
REMARK                         _______ _______ _______ _____ _____    ______ ____
ROOT
ATOM      1  C   UNL     1      -8.243  -6.140  19.080  0.00  0.00    +0.000 C 
ATOM      2  C   UNL     1      -7.592  -6.235  17.646  0.00  0.00    +0.000 C 
ATOM      3  C   UNL     1      -8.496  -6.814  16.540  0.00  0.00    +0.000 C 
ATOM      4  N   UNL     1      -9.095  -8.028  17.079  0.00  0.00    +0.000 N 
ATOM      5  C   UNL     1     -10.027  -7.752  18.155  0.00  0.00    +0.000 C 
ATOM      6  C   UNL     1      -9.189  -7.333  19.352  0.00  0.00    +0.000 C 
ATOM      7  H   UNL     1      -6.703  -6.878  17.699  0.00  0.00    +0.000 HD
ATOM      8  H   UNL     1      -7.234  -5.248  17.323  0.00  0.00    +0.000 HD
ATOM      9  H   UNL     1      -7.879  -7.002  15.652  0.00  0.00    +0.000 HD
ATOM     10  H   UNL     1      -9.273  -6.102  16.238  0.00  0.00    +0.000 HD
ATOM     11  H   UNL     1     -10.651  -8.605  18.427  0.00  0.00    +0.000 HD
ATOM     12  H   UNL     1     -10.731  -6.961  17.872  0.00  0.00    +0.000 HD
ATOM     13  H   UNL     1      -8.587  -8.197  19.662  0.00  0.00    +0.000 HD
ATOM     14  H   UNL     1      -9.898  -7.104  20.148  0.00  0.00    +0.000 HD
ENDROOT
BRANCH   4  15
ATOM     15  C   UNL     1      -9.177  -9.181  16.332  0.00  0.00    +0.000 A 
ATOM     16  N   UNL     1      -9.370  -9.096  15.000  0.00  0.00    +0.000 NA
ATOM     17  C   UNL     1      -9.371 -10.238  14.276  0.00  0.00    +0.000 A 
ATOM     18  N   UNL     1      -9.155 -11.481  14.729  0.00  0.00    +0.000 NA
ATOM     19  C   UNL     1      -8.947 -11.507  16.036  0.00  0.00    +0.000 A 
ATOM     20  C   UNL     1      -8.968 -10.420  16.883  0.00  0.00    +0.000 A 
ATOM     21  C   UNL     1      -8.651 -10.874  18.272  0.00  0.00    +0.000 C 
ATOM     22  C   UNL     1      -8.402 -12.370  18.083  0.00  0.00    +0.000 C 
ATOM     23  O   UNL     1      -8.085 -13.162  18.948  0.00  0.00    +0.000 OA
ATOM     24  N   UNL     1      -8.627 -12.649  16.747  0.00  0.00    +0.000 N 
ATOM     25  H   UNL     1      -9.563 -10.134  13.213  0.00  0.00    +0.000 HD
ATOM     26  H   UNL     1      -9.504 -10.766  18.946  0.00  0.00    +0.000 HD
ATOM     27  H   UNL     1      -7.751 -10.396  18.664  0.00  0.00    +0.000 HD
ATOM     28  H   UNL     1      -8.523 -13.555  16.328  0.00  0.00    +0.000 HD
ENDBRANCH   4  15
BRANCH   1  30
ATOM     29  N   UNL     1      -8.699  -3.943  20.116  0.00  0.00    +0.000 N 
ATOM     30  C   UNL     1      -9.068  -4.834  19.126  0.00  0.00    +0.000 C 
ATOM     31  O   UNL     1     -10.024  -4.685  18.367  0.00  0.00    +0.000 OA
ATOM     32  H   UNL     1      -7.864  -4.193  20.652  0.00  0.00    +0.000 HD
BRANCH  29  37
ATOM     33  C   UNL     1      -9.794  -0.946  21.995  0.00  0.00    +0.000 A 
ATOM     34  C   UNL     1     -10.135  -0.072  20.956  0.00  0.00    +0.000 A 
ATOM     35  C   UNL     1     -10.026  -0.487  19.632  0.00  0.00    +0.000 A 
ATOM     36  C   UNL     1      -9.569  -1.770  19.335  0.00  0.00    +0.000 A 
ATOM     37  C   UNL     1      -9.214  -2.653  20.354  0.00  0.00    +0.000 A 
ATOM     38  C   UNL     1      -9.342  -2.240  21.689  0.00  0.00    +0.000 A 
ATOM     39  H   UNL     1     -10.482   0.937  21.159  0.00  0.00    +0.000 HD
ATOM     40  H   UNL     1     -10.288   0.192  18.825  0.00  0.00    +0.000 HD
ATOM     41  H   UNL     1      -9.495  -2.044  18.288  0.00  0.00    +0.000 HD
ATOM     42  H   UNL     1      -9.072  -2.914  22.502  0.00  0.00    +0.000 HD
BRANCH  33  43
ATOM     43  C   UNL     1      -9.877  -0.527  23.423  0.00  0.00    +0.000 C 
ATOM     44  O   UNL     1      -9.719   0.620  23.808  0.00  0.00    +0.000 OA
BRANCH  43  45
ATOM     45  O   UNL     1     -10.173  -1.597  24.201  0.00  0.00    +0.000 OA
BRANCH  45  46
ATOM     46  C   UNL     1      -9.386  -1.719  25.386  0.00  0.00    +0.000 C 
ATOM     47  H   UNL     1      -8.455  -2.227  25.116  0.00  0.00    +0.000 HD
ATOM     48  H   UNL     1      -9.914  -2.329  26.125  0.00  0.00    +0.000 HD
ATOM     49  H   UNL     1      -9.136  -0.735  25.795  0.00  0.00    +0.000 HD
ENDBRANCH  45  46
ENDBRANCH  43  45
ENDBRANCH  33  43
ENDBRANCH  29  37
ENDBRANCH   1  30
BRANCH   1  50
ATOM     50  C   UNL     1      -7.063  -6.109  20.124  0.00  0.00    +0.000 C 
ATOM     51  H   UNL     1      -6.602  -7.108  20.092  0.00  0.00    +0.000 HD
ATOM     52  H   UNL     1      -7.480  -5.998  21.133  0.00  0.00    +0.000 HD
BRANCH  50  53
ATOM     53  N   UNL     1      -5.950  -5.126  19.947  0.00  0.00    +0.000 NA
BRANCH  53  54
ATOM     54  C   UNL     1      -5.701  -4.263  21.109  0.00  0.00    +0.000 C 
ATOM     55  H   UNL     1      -5.039  -4.758  21.820  0.00  0.00    +0.000 HD
ATOM     56  H   UNL     1      -6.618  -4.094  21.686  0.00  0.00    +0.000 HD
ATOM     57  H   UNL     1      -5.294  -3.286  20.831  0.00  0.00    +0.000 HD
ENDBRANCH  53  54
BRANCH  53  58
ATOM     58  C   UNL     1      -4.701  -5.851  19.657  0.00  0.00    +0.000 C 
ATOM     59  H   UNL     1      -4.749  -6.880  20.027  0.00  0.00    +0.000 HD
ATOM     60  H   UNL     1      -3.829  -5.354  20.098  0.00  0.00    +0.000 HD
ATOM     61  H   UNL     1      -4.544  -5.918  18.574  0.00  0.00    +0.000 HD
ENDBRANCH  53  58
ENDBRANCH  50  53
ENDBRANCH   1  50
TORSDOF 10
ENDMDL
MODEL 3
REMARK VINA RESULT:    -9.356      2.434      9.199
REMARK INTER + INTRA:         -14.659
REMARK INTER:                 -13.800
REMARK INTRA:                  -0.859
REMARK UNBOUND:                -0.655
REMARK  Name = 
REMARK  10 active torsions:
REMARK  status: ('A' for Active; 'I' for Inactive)
REMARK    1  A    between atoms: C_1  and  O_2
REMARK    2  A    between atoms: O_2  and  C_3
REMARK    3  A    between atoms: C_3  and  C_5
REMARK    4  A    between atoms: C_9  and  N_10
REMARK    5  A    between atoms: C_11  and  C_13
REMARK    6  A    between atoms: C_13  and  C_14
REMARK    7  A    between atoms: C_14  and  N_15
REMARK    8  A    between atoms: N_15  and  C_16
REMARK    9  A    between atoms: N_15  and  C_17
REMARK   10  A    between atoms: N_20  and  C_21
REMARK                            x       y       z     vdW  Elec       q    Type
REMARK                         _______ _______ _______ _____ _____    ______ ____
ROOT
ATOM      1  C   UNL     1      -8.805  -6.225  18.864  0.00  0.00    +0.000 C 
ATOM      2  C   UNL     1      -7.942  -6.299  17.544  0.00  0.00    +0.000 C 
ATOM      3  C   UNL     1      -8.613  -6.999  16.347  0.00  0.00    +0.000 C 
ATOM      4  N   UNL     1      -9.168  -8.250  16.848  0.00  0.00    +0.000 N 
ATOM      5  C   UNL     1     -10.271  -8.036  17.764  0.00  0.00    +0.000 C 
ATOM      6  C   UNL     1      -9.663  -7.498  19.050  0.00  0.00    +0.000 C 
ATOM      7  H   UNL     1      -7.014  -6.847  17.755  0.00  0.00    +0.000 HD
ATOM      8  H   UNL     1      -7.636  -5.290  17.233  0.00  0.00    +0.000 HD
ATOM      9  H   UNL     1      -7.857  -7.151  15.567  0.00  0.00    +0.000 HD
ATOM     10  H   UNL     1      -9.401  -6.378  15.904  0.00  0.00    +0.000 HD
ATOM     11  H   UNL     1     -10.845  -8.938  17.982  0.00  0.00    +0.000 HD
ATOM     12  H   UNL     1     -10.997  -7.329  17.347  0.00  0.00    +0.000 HD
ATOM     13  H   UNL     1      -9.035  -8.287  19.483  0.00  0.00    +0.000 HD
ATOM     14  H   UNL     1     -10.501  -7.317  19.723  0.00  0.00    +0.000 HD
ENDROOT
BRANCH   4  15
ATOM     15  C   UNL     1      -9.029  -9.428  16.149  0.00  0.00    +0.000 A 
ATOM     16  N   UNL     1      -8.921  -9.393  14.806  0.00  0.00    +0.000 NA
ATOM     17  C   UNL     1      -8.709 -10.556  14.148  0.00  0.00    +0.000 A 
ATOM     18  N   UNL     1      -8.544 -11.771  14.689  0.00  0.00    +0.000 NA
ATOM     19  C   UNL     1      -8.634 -11.746  16.009  0.00  0.00    +0.000 A 
ATOM     20  C   UNL     1      -8.893 -10.637  16.785  0.00  0.00    +0.000 A 
ATOM     21  C   UNL     1      -8.876 -11.030  18.226  0.00  0.00    +0.000 C 
ATOM     22  C   UNL     1      -8.525 -12.517  18.160  0.00  0.00    +0.000 C 
ATOM     23  O   UNL     1      -8.375 -13.264  19.106  0.00  0.00    +0.000 OA
ATOM     24  N   UNL     1      -8.432 -12.847  16.821  0.00  0.00    +0.000 N 
ATOM     25  H   UNL     1      -8.661 -10.494  13.065  0.00  0.00    +0.000 HD
ATOM     26  H   UNL     1      -9.863 -10.947  18.689  0.00  0.00    +0.000 HD
ATOM     27  H   UNL     1      -8.110 -10.495  18.790  0.00  0.00    +0.000 HD
ATOM     28  H   UNL     1      -8.196 -13.759  16.473  0.00  0.00    +0.000 HD
ENDBRANCH   4  15
BRANCH   1  30
ATOM     29  N   UNL     1      -9.320  -3.862  19.376  0.00  0.00    +0.000 N 
ATOM     30  C   UNL     1      -9.748  -5.007  18.731  0.00  0.00    +0.000 C 
ATOM     31  O   UNL     1     -10.826  -5.126  18.151  0.00  0.00    +0.000 OA
ATOM     32  H   UNL     1      -8.386  -3.908  19.793  0.00  0.00    +0.000 HD
BRANCH  29  37
ATOM     33  C   UNL     1     -11.205  -0.922  20.606  0.00  0.00    +0.000 A 
ATOM     34  C   UNL     1     -11.092  -0.043  19.522  0.00  0.00    +0.000 A 
ATOM     35  C   UNL     1     -10.413  -0.437  18.374  0.00  0.00    +0.000 A 
ATOM     36  C   UNL     1      -9.835  -1.702  18.300  0.00  0.00    +0.000 A 
ATOM     37  C   UNL     1      -9.926  -2.590  19.372  0.00  0.00    +0.000 A 
ATOM     38  C   UNL     1     -10.627  -2.199  20.523  0.00  0.00    +0.000 A 
ATOM     39  H   UNL     1     -11.523   0.954  19.558  0.00  0.00    +0.000 HD
ATOM     40  H   UNL     1     -10.323   0.246  17.533  0.00  0.00    +0.000 HD
ATOM     41  H   UNL     1      -9.310  -1.960  17.386  0.00  0.00    +0.000 HD
ATOM     42  H   UNL     1     -10.712  -2.877  21.372  0.00  0.00    +0.000 HD
BRANCH  33  43
ATOM     43  C   UNL     1     -11.905  -0.525  21.860  0.00  0.00    +0.000 C 
ATOM     44  O   UNL     1     -13.077  -0.190  21.911  0.00  0.00    +0.000 OA
BRANCH  43  45
ATOM     45  O   UNL     1     -11.054  -0.617  22.912  0.00  0.00    +0.000 OA
BRANCH  45  46
ATOM     46  C   UNL     1     -10.236   0.532  23.131  0.00  0.00    +0.000 C 
ATOM     47  H   UNL     1     -10.882   1.333  23.505  0.00  0.00    +0.000 HD
ATOM     48  H   UNL     1      -9.789   0.858  22.188  0.00  0.00    +0.000 HD
ATOM     49  H   UNL     1      -9.467   0.330  23.882  0.00  0.00    +0.000 HD
ENDBRANCH  45  46
ENDBRANCH  43  45
ENDBRANCH  33  43
ENDBRANCH  29  37
ENDBRANCH   1  30
BRANCH   1  50
ATOM     50  C   UNL     1      -7.801  -6.043  20.065  0.00  0.00    +0.000 C 
ATOM     51  H   UNL     1      -7.353  -7.034  20.239  0.00  0.00    +0.000 HD
ATOM     52  H   UNL     1      -8.369  -5.801  20.973  0.00  0.00    +0.000 HD
BRANCH  50  53
ATOM     53  N   UNL     1      -6.662  -5.083  19.933  0.00  0.00    +0.000 NA
BRANCH  53  54
ATOM     54  C   UNL     1      -6.446  -4.221  21.102  0.00  0.00    +0.000 C 
ATOM     55  H   UNL     1      -6.065  -4.803  21.942  0.00  0.00    +0.000 HD
ATOM     56  H   UNL     1      -7.391  -3.813  21.480  0.00  0.00    +0.000 HD
ATOM     57  H   UNL     1      -5.777  -3.381  20.890  0.00  0.00    +0.000 HD
ENDBRANCH  53  54
BRANCH  53  58
ATOM     58  C   UNL     1      -5.416  -5.833  19.697  0.00  0.00    +0.000 C 
ATOM     59  H   UNL     1      -5.608  -6.740  19.114  0.00  0.00    +0.000 HD
ATOM     60  H   UNL     1      -4.924  -6.112  20.637  0.00  0.00    +0.000 HD
ATOM     61  H   UNL     1      -4.715  -5.230  19.110  0.00  0.00    +0.000 HD
ENDBRANCH  53  58
ENDBRANCH  50  53
ENDBRANCH   1  50
TORSDOF 10
ENDMDL
MODEL 4
REMARK VINA RESULT:    -9.282      1.896      7.964
REMARK INTER + INTRA:         -14.549
REMARK INTER:                 -15.066
REMARK INTRA:                   0.518
REMARK UNBOUND:                -0.655
REMARK  Name = 
REMARK  10 active torsions:
REMARK  status: ('A' for Active; 'I' for Inactive)
REMARK    1  A    between atoms: C_1  and  O_2
REMARK    2  A    between atoms: O_2  and  C_3
REMARK    3  A    between atoms: C_3  and  C_5
REMARK    4  A    between atoms: C_9  and  N_10
REMARK    5  A    between atoms: C_11  and  C_13
REMARK    6  A    between atoms: C_13  and  C_14
REMARK    7  A    between atoms: C_14  and  N_15
REMARK    8  A    between atoms: N_15  and  C_16
REMARK    9  A    between atoms: N_15  and  C_17
REMARK   10  A    between atoms: N_20  and  C_21
REMARK                            x       y       z     vdW  Elec       q    Type
REMARK                         _______ _______ _______ _____ _____    ______ ____
ROOT
ATOM      1  C   UNL     1     -10.192  -5.788  17.343  0.00  0.00    +0.000 C 
ATOM      2  C   UNL     1     -10.730  -7.117  18.003  0.00  0.00    +0.000 C 
ATOM      3  C   UNL     1      -9.748  -8.304  18.012  0.00  0.00    +0.000 C 
ATOM      4  N   UNL     1      -9.201  -8.407  16.664  0.00  0.00    +0.000 N 
ATOM      5  C   UNL     1      -8.353  -7.280  16.326  0.00  0.00    +0.000 C 
ATOM      6  C   UNL     1      -9.278  -6.090  16.131  0.00  0.00    +0.000 C 
ATOM      7  H   UNL     1     -11.625  -7.448  17.460  0.00  0.00    +0.000 HD
ATOM      8  H   UNL     1     -11.055  -6.925  19.035  0.00  0.00    +0.000 HD
ATOM      9  H   UNL     1     -10.295  -9.204  18.318  0.00  0.00    +0.000 HD
ATOM     10  H   UNL     1      -8.944  -8.159  18.744  0.00  0.00    +0.000 HD
ATOM     11  H   UNL     1      -7.758  -7.432  15.424  0.00  0.00    +0.000 HD
ATOM     12  H   UNL     1      -7.624  -7.085  17.121  0.00  0.00    +0.000 HD
ATOM     13  H   UNL     1      -9.909  -6.291  15.256  0.00  0.00    +0.000 HD
ATOM     14  H   UNL     1      -8.631  -5.243  15.902  0.00  0.00    +0.000 HD
ENDROOT
BRANCH   4  15
ATOM     15  C   UNL     1      -9.070  -9.623  16.034  0.00  0.00    +0.000 A 
ATOM     16  N   UNL     1      -8.982  -9.668  14.689  0.00  0.00    +0.000 NA
ATOM     17  C   UNL     1      -8.776 -10.867  14.097  0.00  0.00    +0.000 A 
ATOM     18  N   UNL     1      -8.601 -12.048  14.707  0.00  0.00    +0.000 NA
ATOM     19  C   UNL     1      -8.673 -11.946  16.024  0.00  0.00    +0.000 A 
ATOM     20  C   UNL     1      -8.923 -10.793  16.737  0.00  0.00    +0.000 A 
ATOM     21  C   UNL     1      -8.885 -11.101  18.199  0.00  0.00    +0.000 C 
ATOM     22  C   UNL     1      -8.531 -12.588  18.215  0.00  0.00    +0.000 C 
ATOM     23  O   UNL     1      -8.366 -13.279  19.201  0.00  0.00    +0.000 OA
ATOM     24  N   UNL     1      -8.456 -12.997  16.896  0.00  0.00    +0.000 N 
ATOM     25  H   UNL     1      -8.744 -10.869  13.013  0.00  0.00    +0.000 HD
ATOM     26  H   UNL     1      -9.865 -10.992  18.670  0.00  0.00    +0.000 HD
ATOM     27  H   UNL     1      -8.111 -10.532  18.719  0.00  0.00    +0.000 HD
ATOM     28  H   UNL     1      -8.223 -13.927  16.599  0.00  0.00    +0.000 HD
ENDBRANCH   4  15
BRANCH   1  30
ATOM     29  N   UNL     1      -8.122  -5.593  18.679  0.00  0.00    +0.000 N 
ATOM     30  C   UNL     1      -9.362  -5.044  18.414  0.00  0.00    +0.000 C 
ATOM     31  O   UNL     1      -9.850  -4.088  19.014  0.00  0.00    +0.000 OA
ATOM     32  H   UNL     1      -7.841  -6.372  18.078  0.00  0.00    +0.000 HD
BRANCH  29  37
ATOM     33  C   UNL     1      -6.596  -3.798  21.536  0.00  0.00    +0.000 A 
ATOM     34  C   UNL     1      -5.243  -4.130  21.386  0.00  0.00    +0.000 A 
ATOM     35  C   UNL     1      -4.836  -4.928  20.322  0.00  0.00    +0.000 A 
ATOM     36  C   UNL     1      -5.771  -5.407  19.406  0.00  0.00    +0.000 A 
ATOM     37  C   UNL     1      -7.124  -5.098  19.543  0.00  0.00    +0.000 A 
ATOM     38  C   UNL     1      -7.532  -4.278  20.606  0.00  0.00    +0.000 A 
ATOM     39  H   UNL     1      -4.495  -3.780  22.092  0.00  0.00    +0.000 HD
ATOM     40  H   UNL     1      -3.787  -5.188  20.206  0.00  0.00    +0.000 HD
ATOM     41  H   UNL     1      -5.404  -6.031  18.598  0.00  0.00    +0.000 HD
ATOM     42  H   UNL     1      -8.584  -4.022  20.731  0.00  0.00    +0.000 HD
BRANCH  33  43
ATOM     43  C   UNL     1      -7.070  -2.965  22.677  0.00  0.00    +0.000 C 
ATOM     44  O   UNL     1      -7.123  -1.747  22.657  0.00  0.00    +0.000 OA
BRANCH  43  45
ATOM     45  O   UNL     1      -7.446  -3.765  23.706  0.00  0.00    +0.000 OA
BRANCH  45  46
ATOM     46  C   UNL     1      -8.607  -3.334  24.414  0.00  0.00    +0.000 C 
ATOM     47  H   UNL     1      -9.200  -4.223  24.654  0.00  0.00    +0.000 HD
ATOM     48  H   UNL     1      -9.210  -2.676  23.781  0.00  0.00    +0.000 HD
ATOM     49  H   UNL     1      -8.336  -2.837  25.351  0.00  0.00    +0.000 HD
ENDBRANCH  45  46
ENDBRANCH  43  45
ENDBRANCH  33  43
ENDBRANCH  29  37
ENDBRANCH   1  30
BRANCH   1  50
ATOM     50  C   UNL     1     -11.449  -4.946  16.904  0.00  0.00    +0.000 C 
ATOM     51  H   UNL     1     -11.861  -4.512  17.827  0.00  0.00    +0.000 HD
ATOM     52  H   UNL     1     -12.219  -5.627  16.517  0.00  0.00    +0.000 HD
BRANCH  50  53
ATOM     53  N   UNL     1     -11.276  -3.812  15.945  0.00  0.00    +0.000 NA
BRANCH  53  54
ATOM     54  C   UNL     1     -11.714  -4.096  14.572  0.00  0.00    +0.000 C 
ATOM     55  H   UNL     1     -12.796  -3.998  14.485  0.00  0.00    +0.000 HD
ATOM     56  H   UNL     1     -11.529  -5.143  14.301  0.00  0.00    +0.000 HD
ATOM     57  H   UNL     1     -11.216  -3.464  13.830  0.00  0.00    +0.000 HD
ENDBRANCH  53  54
BRANCH  53  58
ATOM     58  C   UNL     1     -12.042  -2.648  16.423  0.00  0.00    +0.000 C 
ATOM     59  H   UNL     1     -12.472  -2.840  17.412  0.00  0.00    +0.000 HD
ATOM     60  H   UNL     1     -12.848  -2.378  15.731  0.00  0.00    +0.000 HD
ATOM     61  H   UNL     1     -11.382  -1.780  16.536  0.00  0.00    +0.000 HD
ENDBRANCH  53  58
ENDBRANCH  50  53
ENDBRANCH   1  50
TORSDOF 10
ENDMDL
MODEL 5
REMARK VINA RESULT:    -9.276      2.713      8.787
REMARK INTER + INTRA:         -14.540
REMARK INTER:                 -13.104
REMARK INTRA:                  -1.437
REMARK UNBOUND:                -0.655
REMARK  Name = 
REMARK  10 active torsions:
REMARK  status: ('A' for Active; 'I' for Inactive)
REMARK    1  A    between atoms: C_1  and  O_2
REMARK    2  A    between atoms: O_2  and  C_3
REMARK    3  A    between atoms: C_3  and  C_5
REMARK    4  A    between atoms: C_9  and  N_10
REMARK    5  A    between atoms: C_11  and  C_13
REMARK    6  A    between atoms: C_13  and  C_14
REMARK    7  A    between atoms: C_14  and  N_15
REMARK    8  A    between atoms: N_15  and  C_16
REMARK    9  A    between atoms: N_15  and  C_17
REMARK   10  A    between atoms: N_20  and  C_21
REMARK                            x       y       z     vdW  Elec       q    Type
REMARK                         _______ _______ _______ _____ _____    ______ ____
ROOT
ATOM      1  C   UNL     1      -8.944  -6.526  18.652  0.00  0.00    +0.000 C 
ATOM      2  C   UNL     1      -8.072  -6.611  17.339  0.00  0.00    +0.000 C 
ATOM      3  C   UNL     1      -8.713  -7.368  16.159  0.00  0.00    +0.000 C 
ATOM      4  N   UNL     1      -9.229  -8.621  16.696  0.00  0.00    +0.000 N 
ATOM      5  C   UNL     1     -10.345  -8.416  17.599  0.00  0.00    +0.000 C 
ATOM      6  C   UNL     1      -9.762  -7.821  18.872  0.00  0.00    +0.000 C 
ATOM      7  H   UNL     1      -7.128  -7.122  17.571  0.00  0.00    +0.000 HD
ATOM      8  H   UNL     1      -7.796  -5.603  16.999  0.00  0.00    +0.000 HD
ATOM      9  H   UNL     1      -7.947  -7.519  15.388  0.00  0.00    +0.000 HD
ATOM     10  H   UNL     1      -9.518  -6.787  15.695  0.00  0.00    +0.000 HD
ATOM     11  H   UNL     1     -10.890  -9.330  17.841  0.00  0.00    +0.000 HD
ATOM     12  H   UNL     1     -11.090  -7.746  17.157  0.00  0.00    +0.000 HD
ATOM     13  H   UNL     1      -9.111  -8.576  19.331  0.00  0.00    +0.000 HD
ATOM     14  H   UNL     1     -10.610  -7.647  19.535  0.00  0.00    +0.000 HD
ENDROOT
BRANCH   4  15
ATOM     15  C   UNL     1      -9.048  -9.814  16.033  0.00  0.00    +0.000 A 
ATOM     16  N   UNL     1      -8.924  -9.815  14.691  0.00  0.00    +0.000 NA
ATOM     17  C   UNL     1      -8.670 -10.990  14.069  0.00  0.00    +0.000 A 
ATOM     18  N   UNL     1      -8.479 -12.184  14.647  0.00  0.00    +0.000 NA
ATOM     19  C   UNL     1      -8.587 -12.124  15.965  0.00  0.00    +0.000 A 
ATOM     20  C   UNL     1      -8.888 -11.000  16.705  0.00  0.00    +0.000 A 
ATOM     21  C   UNL     1      -8.879 -11.352  18.157  0.00  0.00    +0.000 C 
ATOM     22  C   UNL     1      -8.485 -12.829  18.138  0.00  0.00    +0.000 C 
ATOM     23  O   UNL     1      -8.327 -13.544  19.108  0.00  0.00    +0.000 OA
ATOM     24  N   UNL     1      -8.365 -13.195  16.811  0.00  0.00    +0.000 N 
ATOM     25  H   UNL     1      -8.610 -10.958  12.986  0.00  0.00    +0.000 HD
ATOM     26  H   UNL     1      -9.874 -11.284  18.605  0.00  0.00    +0.000 HD
ATOM     27  H   UNL     1      -8.135 -10.779  18.714  0.00  0.00    +0.000 HD
ATOM     28  H   UNL     1      -8.099 -14.109  16.493  0.00  0.00    +0.000 HD
ENDBRANCH   4  15
BRANCH   1  30
ATOM     29  N   UNL     1      -9.353  -4.169  18.030  0.00  0.00    +0.000 N 
ATOM     30  C   UNL     1      -9.926  -5.345  18.477  0.00  0.00    +0.000 C 
ATOM     31  O   UNL     1     -11.104  -5.473  18.804  0.00  0.00    +0.000 OA
ATOM     32  H   UNL     1      -8.364  -4.225  17.772  0.00  0.00    +0.000 HD
BRANCH  29  37
ATOM     33  C   UNL     1     -11.453  -1.754  16.169  0.00  0.00    +0.000 A 
ATOM     34  C   UNL     1     -11.411  -0.637  17.013  0.00  0.00    +0.000 A 
ATOM     35  C   UNL     1     -10.665  -0.678  18.187  0.00  0.00    +0.000 A 
ATOM     36  C   UNL     1      -9.963  -1.831  18.532  0.00  0.00    +0.000 A 
ATOM     37  C   UNL     1     -10.000  -2.959  17.711  0.00  0.00    +0.000 A 
ATOM     38  C   UNL     1     -10.738  -2.910  16.519  0.00  0.00    +0.000 A 
ATOM     39  H   UNL     1     -11.958   0.271  16.775  0.00  0.00    +0.000 HD
ATOM     40  H   UNL     1     -10.633   0.188  18.843  0.00  0.00    +0.000 HD
ATOM     41  H   UNL     1      -9.401  -1.816  19.460  0.00  0.00    +0.000 HD
ATOM     42  H   UNL     1     -10.779  -3.779  15.862  0.00  0.00    +0.000 HD
BRANCH  33  43
ATOM     43  C   UNL     1     -12.261  -1.752  14.917  0.00  0.00    +0.000 C 
ATOM     44  O   UNL     1     -13.073  -0.888  14.630  0.00  0.00    +0.000 OA
BRANCH  43  45
ATOM     45  O   UNL     1     -11.937  -2.829  14.159  0.00  0.00    +0.000 OA
BRANCH  45  46
ATOM     46  C   UNL     1     -11.975  -2.609  12.749  0.00  0.00    +0.000 C 
ATOM     47  H   UNL     1     -11.110  -3.117  12.310  0.00  0.00    +0.000 HD
ATOM     48  H   UNL     1     -11.895  -1.540  12.534  0.00  0.00    +0.000 HD
ATOM     49  H   UNL     1     -12.884  -3.031  12.309  0.00  0.00    +0.000 HD
ENDBRANCH  45  46
ENDBRANCH  43  45
ENDBRANCH  33  43
ENDBRANCH  29  37
ENDBRANCH   1  30
BRANCH   1  50
ATOM     50  C   UNL     1      -7.954  -6.277  19.851  0.00  0.00    +0.000 C 
ATOM     51  H   UNL     1      -7.253  -7.126  19.849  0.00  0.00    +0.000 HD
ATOM     52  H   UNL     1      -8.511  -6.344  20.795  0.00  0.00    +0.000 HD
BRANCH  50  53
ATOM     53  N   UNL     1      -7.116  -5.038  19.868  0.00  0.00    +0.000 NA
BRANCH  53  54
ATOM     54  C   UNL     1      -7.327  -4.168  21.032  0.00  0.00    +0.000 C 
ATOM     55  H   UNL     1      -7.915  -3.292  20.755  0.00  0.00    +0.000 HD
ATOM     56  H   UNL     1      -6.383  -3.741  21.390  0.00  0.00    +0.000 HD
ATOM     57  H   UNL     1      -7.800  -4.690  21.870  0.00  0.00    +0.000 HD
ENDBRANCH  53  54
BRANCH  53  58
ATOM     58  C   UNL     1      -5.691  -5.413  19.847  0.00  0.00    +0.000 C 
ATOM     59  H   UNL     1      -5.309  -5.445  18.821  0.00  0.00    +0.000 HD
ATOM     60  H   UNL     1      -5.519  -6.387  20.321  0.00  0.00    +0.000 HD
ATOM     61  H   UNL     1      -5.093  -4.664  20.377  0.00  0.00    +0.000 HD
ENDBRANCH  53  58
ENDBRANCH  50  53
ENDBRANCH   1  50
TORSDOF 10
ENDMDL
MODEL 6
REMARK VINA RESULT:    -9.275      1.992      8.855
REMARK INTER + INTRA:         -14.539
REMARK INTER:                 -14.038
REMARK INTRA:                  -0.501
REMARK UNBOUND:                -0.655
REMARK  Name = 
REMARK  10 active torsions:
REMARK  status: ('A' for Active; 'I' for Inactive)
REMARK    1  A    between atoms: C_1  and  O_2
REMARK    2  A    between atoms: O_2  and  C_3
REMARK    3  A    between atoms: C_3  and  C_5
REMARK    4  A    between atoms: C_9  and  N_10
REMARK    5  A    between atoms: C_11  and  C_13
REMARK    6  A    between atoms: C_13  and  C_14
REMARK    7  A    between atoms: C_14  and  N_15
REMARK    8  A    between atoms: N_15  and  C_16
REMARK    9  A    between atoms: N_15  and  C_17
REMARK   10  A    between atoms: N_20  and  C_21
REMARK                            x       y       z     vdW  Elec       q    Type
REMARK                         _______ _______ _______ _____ _____    ______ ____
ROOT
ATOM      1  C   UNL     1      -9.818  -5.862  18.375  0.00  0.00    +0.000 C 
ATOM      2  C   UNL     1     -10.514  -7.215  18.795  0.00  0.00    +0.000 C 
ATOM      3  C   UNL     1      -9.670  -8.490  18.596  0.00  0.00    +0.000 C 
ATOM      4  N   UNL     1      -9.113  -8.419  17.251  0.00  0.00    +0.000 N 
ATOM      5  C   UNL     1      -8.137  -7.354  17.114  0.00  0.00    +0.000 C 
ATOM      6  C   UNL     1      -8.920  -6.051  17.129  0.00  0.00    +0.000 C 
ATOM      7  H   UNL     1     -11.429  -7.343  18.202  0.00  0.00    +0.000 HD
ATOM      8  H   UNL     1     -10.835  -7.169  19.844  0.00  0.00    +0.000 HD
ATOM      9  H   UNL     1     -10.321  -9.361  18.741  0.00  0.00    +0.000 HD
ATOM     10  H   UNL     1      -8.870  -8.566  19.342  0.00  0.00    +0.000 HD
ATOM     11  H   UNL     1      -7.546  -7.414  16.199  0.00  0.00    +0.000 HD
ATOM     12  H   UNL     1      -7.406  -7.383  17.930  0.00  0.00    +0.000 HD
ATOM     13  H   UNL     1      -9.552  -6.025  16.232  0.00  0.00    +0.000 HD
ATOM     14  H   UNL     1      -8.178  -5.256  17.052  0.00  0.00    +0.000 HD
ENDROOT
BRANCH   4  15
ATOM     15  C   UNL     1      -9.105  -9.515  16.419  0.00  0.00    +0.000 A 
ATOM     16  N   UNL     1      -9.198  -9.336  15.086  0.00  0.00    +0.000 NA
ATOM     17  C   UNL     1      -9.111 -10.422  14.283  0.00  0.00    +0.000 A 
ATOM     18  N   UNL     1      -8.896 -11.690  14.662  0.00  0.00    +0.000 NA
ATOM     19  C   UNL     1      -8.789 -11.807  15.976  0.00  0.00    +0.000 A 
ATOM     20  C   UNL     1      -8.905 -10.786  16.895  0.00  0.00    +0.000 A 
ATOM     21  C   UNL     1      -8.683 -11.334  18.268  0.00  0.00    +0.000 C 
ATOM     22  C   UNL     1      -8.379 -12.806  17.993  0.00  0.00    +0.000 C 
ATOM     23  O   UNL     1      -8.107 -13.652  18.821  0.00  0.00    +0.000 OA
ATOM     24  N   UNL     1      -8.492 -12.991  16.627  0.00  0.00    +0.000 N 
ATOM     25  H   UNL     1      -9.224 -10.244  13.219  0.00  0.00    +0.000 HD
ATOM     26  H   UNL     1      -9.588 -11.295  18.879  0.00  0.00    +0.000 HD
ATOM     27  H   UNL     1      -7.829 -10.867  18.763  0.00  0.00    +0.000 HD
ATOM     28  H   UNL     1      -8.331 -13.861  16.153  0.00  0.00    +0.000 HD
ENDBRANCH   4  15
BRANCH   1  30
ATOM     29  N   UNL     1      -8.834  -4.045  19.732  0.00  0.00    +0.000 N 
ATOM     30  C   UNL     1      -8.931  -5.413  19.560  0.00  0.00    +0.000 C 
ATOM     31  O   UNL     1      -8.317  -6.250  20.219  0.00  0.00    +0.000 OA
ATOM     32  H   UNL     1      -9.427  -3.476  19.122  0.00  0.00    +0.000 HD
BRANCH  29  37
ATOM     33  C   UNL     1      -8.317  -1.732  22.577  0.00  0.00    +0.000 A 
ATOM     34  C   UNL     1      -6.972  -1.968  22.889  0.00  0.00    +0.000 A 
ATOM     35  C   UNL     1      -6.231  -2.876  22.139  0.00  0.00    +0.000 A 
ATOM     36  C   UNL     1      -6.825  -3.560  21.080  0.00  0.00    +0.000 A 
ATOM     37  C   UNL     1      -8.165  -3.348  20.758  0.00  0.00    +0.000 A 
ATOM     38  C   UNL     1      -8.907  -2.419  21.503  0.00  0.00    +0.000 A 
ATOM     39  H   UNL     1      -6.488  -1.458  23.717  0.00  0.00    +0.000 HD
ATOM     40  H   UNL     1      -5.188  -3.060  22.382  0.00  0.00    +0.000 HD
ATOM     41  H   UNL     1      -6.207  -4.262  20.529  0.00  0.00    +0.000 HD
ATOM     42  H   UNL     1      -9.956  -2.237  21.269  0.00  0.00    +0.000 HD
BRANCH  33  43
ATOM     43  C   UNL     1      -9.146  -0.785  23.374  0.00  0.00    +0.000 C 
ATOM     44  O   UNL     1      -9.812   0.115  22.889  0.00  0.00    +0.000 OA
BRANCH  43  45
ATOM     45  O   UNL     1      -9.060  -1.094  24.692  0.00  0.00    +0.000 OA
BRANCH  45  46
ATOM     46  C   UNL     1      -9.962  -2.108  25.135  0.00  0.00    +0.000 C 
ATOM     47  H   UNL     1     -10.979  -1.760  24.932  0.00  0.00    +0.000 HD
ATOM     48  H   UNL     1      -9.855  -2.259  26.213  0.00  0.00    +0.000 HD
ATOM     49  H   UNL     1      -9.801  -3.043  24.590  0.00  0.00    +0.000 HD
ENDBRANCH  45  46
ENDBRANCH  43  45
ENDBRANCH  33  43
ENDBRANCH  29  37
ENDBRANCH   1  30
BRANCH   1  50
ATOM     50  C   UNL     1     -10.964  -4.820  18.090  0.00  0.00    +0.000 C 
ATOM     51  H   UNL     1     -11.152  -4.306  19.045  0.00  0.00    +0.000 HD
ATOM     52  H   UNL     1     -11.888  -5.361  17.848  0.00  0.00    +0.000 HD
BRANCH  50  53
ATOM     53  N   UNL     1     -10.747  -3.748  17.070  0.00  0.00    +0.000 NA
BRANCH  53  54
ATOM     54  C   UNL     1     -11.492  -3.931  15.818  0.00  0.00    +0.000 C 
ATOM     55  H   UNL     1     -11.582  -4.991  15.575  0.00  0.00    +0.000 HD
ATOM     56  H   UNL     1     -10.946  -3.517  14.962  0.00  0.00    +0.000 HD
ATOM     57  H   UNL     1     -12.482  -3.465  15.843  0.00  0.00    +0.000 HD
ENDBRANCH  53  54
BRANCH  53  58
ATOM     58  C   UNL     1     -11.143  -2.448  17.637  0.00  0.00    +0.000 C 
ATOM     59  H   UNL     1     -12.165  -2.186  17.343  0.00  0.00    +0.000 HD
ATOM     60  H   UNL     1     -10.467  -1.644  17.325  0.00  0.00    +0.000 HD
ATOM     61  H   UNL     1     -11.138  -2.494  18.732  0.00  0.00    +0.000 HD
ENDBRANCH  53  58
ENDBRANCH  50  53
ENDBRANCH   1  50
TORSDOF 10
ENDMDL
MODEL 7
REMARK VINA RESULT:    -9.092      2.649      5.851
REMARK INTER + INTRA:         -14.264
REMARK INTER:                 -13.091
REMARK INTRA:                  -1.173
REMARK UNBOUND:                -0.655
REMARK  Name = 
REMARK  10 active torsions:
REMARK  status: ('A' for Active; 'I' for Inactive)
REMARK    1  A    between atoms: C_1  and  O_2
REMARK    2  A    between atoms: O_2  and  C_3
REMARK    3  A    between atoms: C_3  and  C_5
REMARK    4  A    between atoms: C_9  and  N_10
REMARK    5  A    between atoms: C_11  and  C_13
REMARK    6  A    between atoms: C_13  and  C_14
REMARK    7  A    between atoms: C_14  and  N_15
REMARK    8  A    between atoms: N_15  and  C_16
REMARK    9  A    between atoms: N_15  and  C_17
REMARK   10  A    between atoms: N_20  and  C_21
REMARK                            x       y       z     vdW  Elec       q    Type
REMARK                         _______ _______ _______ _____ _____    ______ ____
ROOT
ATOM      1  C   UNL     1      -9.714  -5.479  17.803  0.00  0.00    +0.000 C 
ATOM      2  C   UNL     1     -11.145  -4.822  17.694  0.00  0.00    +0.000 C 
ATOM      3  C   UNL     1     -11.856  -4.991  16.338  0.00  0.00    +0.000 C 
ATOM      4  N   UNL     1     -10.885  -4.641  15.308  0.00  0.00    +0.000 N 
ATOM      5  C   UNL     1      -9.797  -5.596  15.230  0.00  0.00    +0.000 C 
ATOM      6  C   UNL     1      -8.941  -5.373  16.467  0.00  0.00    +0.000 C 
ATOM      7  H   UNL     1     -11.057  -3.743  17.876  0.00  0.00    +0.000 HD
ATOM      8  H   UNL     1     -11.803  -5.210  18.485  0.00  0.00    +0.000 HD
ATOM      9  H   UNL     1     -12.740  -4.341  16.327  0.00  0.00    +0.000 HD
ATOM     10  H   UNL     1     -12.218  -6.016  16.195  0.00  0.00    +0.000 HD
ATOM     11  H   UNL     1      -9.180  -5.489  14.336  0.00  0.00    +0.000 HD
ATOM     12  H   UNL     1     -10.177  -6.623  15.195  0.00  0.00    +0.000 HD
ATOM     13  H   UNL     1      -8.497  -4.373  16.395  0.00  0.00    +0.000 HD
ATOM     14  H   UNL     1      -8.141  -6.111  16.413  0.00  0.00    +0.000 HD
ENDROOT
BRANCH   4  15
ATOM     15  C   UNL     1     -11.231  -3.852  14.235  0.00  0.00    +0.000 A 
ATOM     16  N   UNL     1     -11.049  -4.317  12.983  0.00  0.00    +0.000 NA
ATOM     17  C   UNL     1     -11.466  -3.555  11.946  0.00  0.00    +0.000 A 
ATOM     18  N   UNL     1     -12.097  -2.374  12.015  0.00  0.00    +0.000 NA
ATOM     19  C   UNL     1     -12.271  -1.974  13.265  0.00  0.00    +0.000 A 
ATOM     20  C   UNL     1     -11.851  -2.638  14.397  0.00  0.00    +0.000 A 
ATOM     21  C   UNL     1     -12.277  -1.868  15.605  0.00  0.00    +0.000 C 
ATOM     22  C   UNL     1     -13.040  -0.692  14.996  0.00  0.00    +0.000 C 
ATOM     23  O   UNL     1     -13.597   0.199  15.606  0.00  0.00    +0.000 OA
ATOM     24  N   UNL     1     -12.957  -0.828  13.622  0.00  0.00    +0.000 N 
ATOM     25  H   UNL     1     -11.274  -3.947  10.953  0.00  0.00    +0.000 HD
ATOM     26  H   UNL     1     -11.425  -1.456  16.154  0.00  0.00    +0.000 HD
ATOM     27  H   UNL     1     -12.942  -2.447  16.248  0.00  0.00    +0.000 HD
ATOM     28  H   UNL     1     -13.383  -0.204  12.960  0.00  0.00    +0.000 HD
ENDBRANCH   4  15
BRANCH   1  30
ATOM     29  N   UNL     1      -8.946  -7.823  17.645  0.00  0.00    +0.000 N 
ATOM     30  C   UNL     1      -9.918  -6.974  18.140  0.00  0.00    +0.000 C 
ATOM     31  O   UNL     1     -10.929  -7.337  18.738  0.00  0.00    +0.000 OA
ATOM     32  H   UNL     1      -8.148  -7.370  17.191  0.00  0.00    +0.000 HD
BRANCH  29  37
ATOM     33  C   UNL     1      -8.720 -11.431  16.847  0.00  0.00    +0.000 A 
ATOM     34  C   UNL     1      -8.501 -11.986  18.114  0.00  0.00    +0.000 A 
ATOM     35  C   UNL     1      -8.455 -11.164  19.236  0.00  0.00    +0.000 A 
ATOM     36  C   UNL     1      -8.617  -9.786  19.103  0.00  0.00    +0.000 A 
ATOM     37  C   UNL     1      -8.825  -9.212  17.849  0.00  0.00    +0.000 A 
ATOM     38  C   UNL     1      -8.890 -10.043  16.720  0.00  0.00    +0.000 A 
ATOM     39  H   UNL     1      -8.360 -13.055  18.245  0.00  0.00    +0.000 HD
ATOM     40  H   UNL     1      -8.284 -11.593  20.220  0.00  0.00    +0.000 HD
ATOM     41  H   UNL     1      -8.567  -9.187  20.006  0.00  0.00    +0.000 HD
ATOM     42  H   UNL     1      -9.052  -9.617  15.731  0.00  0.00    +0.000 HD
BRANCH  33  43
ATOM     43  C   UNL     1      -8.751 -12.280  15.622  0.00  0.00    +0.000 C 
ATOM     44  O   UNL     1      -9.049 -11.867  14.513  0.00  0.00    +0.000 OA
BRANCH  43  45
ATOM     45  O   UNL     1      -8.381 -13.548  15.930  0.00  0.00    +0.000 OA
BRANCH  45  46
ATOM     46  C   UNL     1      -8.718 -14.530  14.951  0.00  0.00    +0.000 C 
ATOM     47  H   UNL     1      -9.797 -14.471  14.778  0.00  0.00    +0.000 HD
ATOM     48  H   UNL     1      -8.481 -15.530  15.326  0.00  0.00    +0.000 HD
ATOM     49  H   UNL     1      -8.205 -14.334  14.004  0.00  0.00    +0.000 HD
ENDBRANCH  45  46
ENDBRANCH  43  45
ENDBRANCH  33  43
ENDBRANCH  29  37
ENDBRANCH   1  30
BRANCH   1  50
ATOM     50  C   UNL     1      -8.947  -4.731  18.957  0.00  0.00    +0.000 C 
ATOM     51  H   UNL     1      -9.720  -4.377  19.657  0.00  0.00    +0.000 HD
ATOM     52  H   UNL     1      -8.473  -3.829  18.547  0.00  0.00    +0.000 HD
BRANCH  50  53
ATOM     53  N   UNL     1      -7.944  -5.477  19.778  0.00  0.00    +0.000 NA
BRANCH  53  54
ATOM     54  C   UNL     1      -6.629  -5.640  19.143  0.00  0.00    +0.000 C 
ATOM     55  H   UNL     1      -6.671  -6.401  18.364  0.00  0.00    +0.000 HD
ATOM     56  H   UNL     1      -5.890  -6.036  19.849  0.00  0.00    +0.000 HD
ATOM     57  H   UNL     1      -6.237  -4.703  18.736  0.00  0.00    +0.000 HD
ENDBRANCH  53  54
BRANCH  53  58
ATOM     58  C   UNL     1      -7.736  -4.771  21.054  0.00  0.00    +0.000 C 
ATOM     59  H   UNL     1      -7.045  -5.322  21.700  0.00  0.00    +0.000 HD
ATOM     60  H   UNL     1      -8.679  -4.615  21.592  0.00  0.00    +0.000 HD
ATOM     61  H   UNL     1      -7.279  -3.791  20.876  0.00  0.00    +0.000 HD
ENDBRANCH  53  58
ENDBRANCH  50  53
ENDBRANCH   1  50
TORSDOF 10
ENDMDL
MODEL 8
REMARK VINA RESULT:    -8.881      2.429      5.504
REMARK INTER + INTRA:         -13.948
REMARK INTER:                 -12.443
REMARK INTRA:                  -1.505
REMARK UNBOUND:                -0.655
REMARK  Name = 
REMARK  10 active torsions:
REMARK  status: ('A' for Active; 'I' for Inactive)
REMARK    1  A    between atoms: C_1  and  O_2
REMARK    2  A    between atoms: O_2  and  C_3
REMARK    3  A    between atoms: C_3  and  C_5
REMARK    4  A    between atoms: C_9  and  N_10
REMARK    5  A    between atoms: C_11  and  C_13
REMARK    6  A    between atoms: C_13  and  C_14
REMARK    7  A    between atoms: C_14  and  N_15
REMARK    8  A    between atoms: N_15  and  C_16
REMARK    9  A    between atoms: N_15  and  C_17
REMARK   10  A    between atoms: N_20  and  C_21
REMARK                            x       y       z     vdW  Elec       q    Type
REMARK                         _______ _______ _______ _____ _____    ______ ____
ROOT
ATOM      1  C   UNL     1      -9.993  -5.622  17.136  0.00  0.00    +0.000 C 
ATOM      2  C   UNL     1     -11.409  -4.978  17.403  0.00  0.00    +0.000 C 
ATOM      3  C   UNL     1     -12.241  -4.651  16.148  0.00  0.00    +0.000 C 
ATOM      4  N   UNL     1     -11.355  -3.948  15.229  0.00  0.00    +0.000 N 
ATOM      5  C   UNL     1     -10.305  -4.804  14.712  0.00  0.00    +0.000 C 
ATOM      6  C   UNL     1      -9.337  -5.037  15.862  0.00  0.00    +0.000 C 
ATOM      7  H   UNL     1     -11.275  -4.037  17.952  0.00  0.00    +0.000 HD
ATOM      8  H   UNL     1     -12.005  -5.629  18.058  0.00  0.00    +0.000 HD
ATOM      9  H   UNL     1     -13.104  -4.046  16.454  0.00  0.00    +0.000 HD
ATOM     10  H   UNL     1     -12.641  -5.558  15.680  0.00  0.00    +0.000 HD
ATOM     11  H   UNL     1      -9.766  -4.378  13.864  0.00  0.00    +0.000 HD
ATOM     12  H   UNL     1     -10.715  -5.751  14.345  0.00  0.00    +0.000 HD
ATOM     13  H   UNL     1      -8.873  -4.075  16.114  0.00  0.00    +0.000 HD
ATOM     14  H   UNL     1      -8.566  -5.701  15.473  0.00  0.00    +0.000 HD
ENDROOT
BRANCH   4  15
ATOM     15  C   UNL     1     -11.771  -2.826  14.548  0.00  0.00    +0.000 A 
ATOM     16  N   UNL     1     -12.044  -2.913  13.230  0.00  0.00    +0.000 NA
ATOM     17  C   UNL     1     -12.524  -1.817  12.599  0.00  0.00    +0.000 A 
ATOM     18  N   UNL     1     -12.812  -0.629  13.151  0.00  0.00    +0.000 NA
ATOM     19  C   UNL     1     -12.550  -0.605  14.448  0.00  0.00    +0.000 A 
ATOM     20  C   UNL     1     -12.017  -1.638  15.189  0.00  0.00    +0.000 A 
ATOM     21  C   UNL     1     -11.912  -1.214  16.618  0.00  0.00    +0.000 C 
ATOM     22  C   UNL     1     -12.504   0.195  16.591  0.00  0.00    +0.000 C 
ATOM     23  O   UNL     1     -12.650   0.934  17.544  0.00  0.00    +0.000 OA
ATOM     24  N   UNL     1     -12.822   0.471  15.273  0.00  0.00    +0.000 N 
ATOM     25  H   UNL     1     -12.700  -1.914  11.533  0.00  0.00    +0.000 HD
ATOM     26  H   UNL     1     -10.873  -1.126  16.948  0.00  0.00    +0.000 HD
ATOM     27  H   UNL     1     -12.503  -1.850  17.280  0.00  0.00    +0.000 HD
ATOM     28  H   UNL     1     -13.245   1.324  14.955  0.00  0.00    +0.000 HD
ENDBRANCH   4  15
BRANCH   1  30
ATOM     29  N   UNL     1      -9.206  -7.781  16.225  0.00  0.00    +0.000 N 
ATOM     30  C   UNL     1     -10.207  -7.139  16.930  0.00  0.00    +0.000 C 
ATOM     31  O   UNL     1     -11.247  -7.670  17.314  0.00  0.00    +0.000 OA
ATOM     32  H   UNL     1      -8.387  -7.211  15.995  0.00  0.00    +0.000 HD
BRANCH  29  37
ATOM     33  C   UNL     1      -8.739 -11.405  16.825  0.00  0.00    +0.000 A 
ATOM     34  C   UNL     1      -8.930 -11.929  15.540  0.00  0.00    +0.000 A 
ATOM     35  C   UNL     1      -9.188 -11.076  14.471  0.00  0.00    +0.000 A 
ATOM     36  C   UNL     1      -9.266  -9.700  14.675  0.00  0.00    +0.000 A 
ATOM     37  C   UNL     1      -9.090  -9.157  15.948  0.00  0.00    +0.000 A 
ATOM     38  C   UNL     1      -8.811 -10.016  17.022  0.00  0.00    +0.000 A 
ATOM     39  H   UNL     1      -8.887 -12.998  15.356  0.00  0.00    +0.000 HD
ATOM     40  H   UNL     1      -9.338 -11.482  13.474  0.00  0.00    +0.000 HD
ATOM     41  H   UNL     1      -9.475  -9.078  13.811  0.00  0.00    +0.000 HD
ATOM     42  H   UNL     1      -8.669  -9.614  18.025  0.00  0.00    +0.000 HD
BRANCH  33  43
ATOM     43  C   UNL     1      -8.485 -12.290  17.996  0.00  0.00    +0.000 C 
ATOM     44  O   UNL     1      -8.091 -11.892  19.080  0.00  0.00    +0.000 OA
BRANCH  43  45
ATOM     45  O   UNL     1      -8.779 -13.575  17.675  0.00  0.00    +0.000 OA
BRANCH  45  46
ATOM     46  C   UNL     1      -8.789 -14.486  18.774  0.00  0.00    +0.000 C 
ATOM     47  H   UNL     1      -9.640 -15.161  18.638  0.00  0.00    +0.000 HD
ATOM     48  H   UNL     1      -8.926 -13.940  19.712  0.00  0.00    +0.000 HD
ATOM     49  H   UNL     1      -7.873 -15.084  18.797  0.00  0.00    +0.000 HD
ENDBRANCH  45  46
ENDBRANCH  43  45
ENDBRANCH  33  43
ENDBRANCH  29  37
ENDBRANCH   1  30
BRANCH   1  50
ATOM     50  C   UNL     1      -9.106  -5.336  18.406  0.00  0.00    +0.000 C 
ATOM     51  H   UNL     1      -9.798  -5.313  19.262  0.00  0.00    +0.000 HD
ATOM     52  H   UNL     1      -8.685  -4.324  18.329  0.00  0.00    +0.000 HD
BRANCH  50  53
ATOM     53  N   UNL     1      -8.014  -6.290  18.772  0.00  0.00    +0.000 NA
BRANCH  53  54
ATOM     54  C   UNL     1      -6.731  -5.659  19.105  0.00  0.00    +0.000 C 
ATOM     55  H   UNL     1      -6.157  -6.290  19.784  0.00  0.00    +0.000 HD
ATOM     56  H   UNL     1      -6.876  -4.734  19.675  0.00  0.00    +0.000 HD
ATOM     57  H   UNL     1      -6.136  -5.418  18.219  0.00  0.00    +0.000 HD
ENDBRANCH  53  54
BRANCH  53  58
ATOM     58  C   UNL     1      -8.434  -7.086  19.939  0.00  0.00    +0.000 C 
ATOM     59  H   UNL     1      -9.470  -6.863  20.214  0.00  0.00    +0.000 HD
ATOM     60  H   UNL     1      -7.789  -6.909  20.807  0.00  0.00    +0.000 HD
ATOM     61  H   UNL     1      -8.400  -8.156  19.701  0.00  0.00    +0.000 HD
ENDBRANCH  53  58
ENDBRANCH  50  53
ENDBRANCH   1  50
TORSDOF 10
ENDMDL
MODEL 9
REMARK VINA RESULT:    -8.793      2.683      6.290
REMARK INTER + INTRA:         -13.818
REMARK INTER:                 -12.662
REMARK INTRA:                  -1.155
REMARK UNBOUND:                -0.655
REMARK  Name = 
REMARK  10 active torsions:
REMARK  status: ('A' for Active; 'I' for Inactive)
REMARK    1  A    between atoms: C_1  and  O_2
REMARK    2  A    between atoms: O_2  and  C_3
REMARK    3  A    between atoms: C_3  and  C_5
REMARK    4  A    between atoms: C_9  and  N_10
REMARK    5  A    between atoms: C_11  and  C_13
REMARK    6  A    between atoms: C_13  and  C_14
REMARK    7  A    between atoms: C_14  and  N_15
REMARK    8  A    between atoms: N_15  and  C_16
REMARK    9  A    between atoms: N_15  and  C_17
REMARK   10  A    between atoms: N_20  and  C_21
REMARK                            x       y       z     vdW  Elec       q    Type
REMARK                         _______ _______ _______ _____ _____    ______ ____
ROOT
ATOM      1  C   UNL     1     -10.051  -5.644  17.111  0.00  0.00    +0.000 C 
ATOM      2  C   UNL     1     -11.477  -4.989  17.288  0.00  0.00    +0.000 C 
ATOM      3  C   UNL     1     -12.226  -4.658  15.983  0.00  0.00    +0.000 C 
ATOM      4  N   UNL     1     -11.279  -3.964  15.120  0.00  0.00    +0.000 N 
ATOM      5  C   UNL     1     -10.205  -4.829  14.672  0.00  0.00    +0.000 C 
ATOM      6  C   UNL     1      -9.313  -5.066  15.881  0.00  0.00    +0.000 C 
ATOM      7  H   UNL     1     -11.370  -4.047  17.842  0.00  0.00    +0.000 HD
ATOM      8  H   UNL     1     -12.118  -5.634  17.905  0.00  0.00    +0.000 HD
ATOM      9  H   UNL     1     -13.102  -4.047  16.232  0.00  0.00    +0.000 HD
ATOM     10  H   UNL     1     -12.603  -5.564  15.492  0.00  0.00    +0.000 HD
ATOM     11  H   UNL     1      -9.611  -4.409  13.858  0.00  0.00    +0.000 HD
ATOM     12  H   UNL     1     -10.598  -5.774  14.281  0.00  0.00    +0.000 HD
ATOM     13  H   UNL     1      -8.859  -4.107  16.159  0.00  0.00    +0.000 HD
ATOM     14  H   UNL     1      -8.523  -5.737  15.541  0.00  0.00    +0.000 HD
ENDROOT
BRANCH   4  15
ATOM     15  C   UNL     1     -11.643  -2.841  14.412  0.00  0.00    +0.000 A 
ATOM     16  N   UNL     1     -11.723  -1.654  15.046  0.00  0.00    +0.000 NA
ATOM     17  C   UNL     1     -12.008  -0.552  14.315  0.00  0.00    +0.000 A 
ATOM     18  N   UNL     1     -12.185  -0.488  12.988  0.00  0.00    +0.000 NA
ATOM     19  C   UNL     1     -12.073  -1.673  12.411  0.00  0.00    +0.000 A 
ATOM     20  C   UNL     1     -11.832  -2.869  13.053  0.00  0.00    +0.000 A 
ATOM     21  C   UNL     1     -11.743  -3.962  12.037  0.00  0.00    +0.000 C 
ATOM     22  C   UNL     1     -11.923  -3.207  10.721  0.00  0.00    +0.000 C 
ATOM     23  O   UNL     1     -11.899  -3.688   9.605  0.00  0.00    +0.000 OA
ATOM     24  N   UNL     1     -12.137  -1.880  11.045  0.00  0.00    +0.000 N 
ATOM     25  H   UNL     1     -12.097   0.380  14.864  0.00  0.00    +0.000 HD
ATOM     26  H   UNL     1     -12.569  -4.674  12.123  0.00  0.00    +0.000 HD
ATOM     27  H   UNL     1     -10.769  -4.456  12.050  0.00  0.00    +0.000 HD
ATOM     28  H   UNL     1     -12.273  -1.144  10.377  0.00  0.00    +0.000 HD
ENDBRANCH   4  15
BRANCH   1  30
ATOM     29  N   UNL     1      -9.238  -7.805  16.230  0.00  0.00    +0.000 N 
ATOM     30  C   UNL     1     -10.263  -7.160  16.895  0.00  0.00    +0.000 C 
ATOM     31  O   UNL     1     -11.320  -7.687  17.237  0.00  0.00    +0.000 OA
ATOM     32  H   UNL     1      -8.408  -7.238  16.033  0.00  0.00    +0.000 HD
BRANCH  29  37
ATOM     33  C   UNL     1      -8.755 -11.425  16.837  0.00  0.00    +0.000 A 
ATOM     34  C   UNL     1      -8.946 -11.953  15.554  0.00  0.00    +0.000 A 
ATOM     35  C   UNL     1      -9.210 -11.104  14.484  0.00  0.00    +0.000 A 
ATOM     36  C   UNL     1      -9.293  -9.728  14.684  0.00  0.00    +0.000 A 
ATOM     37  C   UNL     1      -9.117  -9.182  15.955  0.00  0.00    +0.000 A 
ATOM     38  C   UNL     1      -8.832 -10.037  17.031  0.00  0.00    +0.000 A 
ATOM     39  H   UNL     1      -8.899 -13.023  15.372  0.00  0.00    +0.000 HD
ATOM     40  H   UNL     1      -9.360 -11.513  13.488  0.00  0.00    +0.000 HD
ATOM     41  H   UNL     1      -9.508  -9.109  13.819  0.00  0.00    +0.000 HD
ATOM     42  H   UNL     1      -8.689  -9.632  18.033  0.00  0.00    +0.000 HD
BRANCH  33  43
ATOM     43  C   UNL     1      -8.494 -12.307  18.010  0.00  0.00    +0.000 C 
ATOM     44  O   UNL     1      -8.093 -11.906  19.090  0.00  0.00    +0.000 OA
BRANCH  43  45
ATOM     45  O   UNL     1      -8.790 -13.593  17.694  0.00  0.00    +0.000 OA
BRANCH  45  46
ATOM     46  C   UNL     1      -8.782 -14.502  18.794  0.00  0.00    +0.000 C 
ATOM     47  H   UNL     1      -8.940 -15.509  18.394  0.00  0.00    +0.000 HD
ATOM     48  H   UNL     1      -9.603 -14.268  19.479  0.00  0.00    +0.000 HD
ATOM     49  H   UNL     1      -7.820 -14.484  19.313  0.00  0.00    +0.000 HD
ENDBRANCH  45  46
ENDBRANCH  43  45
ENDBRANCH  33  43
ENDBRANCH  29  37
ENDBRANCH   1  30
BRANCH   1  50
ATOM     50  C   UNL     1      -9.244  -5.361  18.435  0.00  0.00    +0.000 C 
ATOM     51  H   UNL     1      -9.970  -5.449  19.258  0.00  0.00    +0.000 HD
ATOM     52  H   UNL     1      -8.909  -4.315  18.433  0.00  0.00    +0.000 HD
BRANCH  50  53
ATOM     53  N   UNL     1      -8.090  -6.241  18.794  0.00  0.00    +0.000 NA
BRANCH  53  54
ATOM     54  C   UNL     1      -6.859  -5.525  19.153  0.00  0.00    +0.000 C 
ATOM     55  H   UNL     1      -5.980  -6.098  18.856  0.00  0.00    +0.000 HD
ATOM     56  H   UNL     1      -6.751  -5.434  20.241  0.00  0.00    +0.000 HD
ATOM     57  H   UNL     1      -6.816  -4.518  18.726  0.00  0.00    +0.000 HD
ENDBRANCH  53  54
BRANCH  53  58
ATOM     58  C   UNL     1      -8.461  -7.088  19.941  0.00  0.00    +0.000 C 
ATOM     59  H   UNL     1      -8.792  -6.479  20.788  0.00  0.00    +0.000 HD
ATOM     60  H   UNL     1      -7.630  -7.725  20.263  0.00  0.00    +0.000 HD
ATOM     61  H   UNL     1      -9.305  -7.736  19.677  0.00  0.00    +0.000 HD
ENDBRANCH  53  58
ENDBRANCH  50  53
ENDBRANCH   1  50
TORSDOF 10
ENDMDL
