REMARK  Name = 
REMARK  6 active torsions:
REMARK  status: ('A' for Active; 'I' for Inactive)
REMARK    1  A    between atoms: C_4  and  O_5
REMARK    2  A    between atoms: C_6  and  O_7
REMARK    3  A    between atoms: C_13  and  O_14
REMARK    4  A    between atoms: C_15  and  O_16
REMARK    5  A    between atoms: N_19  and  C_20
REMARK    6  A    between atoms: C_20  and  C_21
REMARK                            x       y       z     vdW  Elec       q    Type
REMARK                         _______ _______ _______ _____ _____    ______ ____
ROOT
ATOM      1  O   UNL     1      -2.638   0.900  -0.661  0.00  0.00    +0.000 OA
ATOM      2  C   UNL     1      -1.408   0.816  -0.721  0.00  0.00    +0.000 A 
ATOM      3  C   UNL     1      -0.641   2.080  -0.736  0.00  0.00    +0.000 A 
ATOM      4  C   UNL     1      -1.330   3.308  -0.743  0.00  0.00    +0.000 A 
ATOM      5  C   UNL     1      -0.627   4.504  -0.794  0.00  0.00    +0.000 A 
ATOM      6  C   UNL     1       0.752   4.507  -0.826  0.00  0.00    +0.000 A 
ATOM      7  C   UNL     1       1.439   3.289  -0.809  0.00  0.00    +0.000 A 
ATOM      8  C   UNL     1       0.763   2.047  -0.766  0.00  0.00    +0.000 A 
ATOM      9  C   UNL     1       1.463   0.742  -0.770  0.00  0.00    +0.000 A 
ATOM     10  C   UNL     1       2.878   0.649  -0.756  0.00  0.00    +0.000 A 
ATOM     11  C   UNL     1       3.516  -0.584  -0.782  0.00  0.00    +0.000 A 
ATOM     12  C   UNL     1       2.770  -1.746  -0.821  0.00  0.00    +0.000 A 
ATOM     13  C   UNL     1       1.386  -1.694  -0.834  0.00  0.00    +0.000 A 
ATOM     14  C   UNL     1       0.709  -0.460  -0.795  0.00  0.00    +0.000 A 
ATOM     15  N   UNL     1      -0.725  -0.399  -0.781  0.00  0.00    +0.000 N 
ATOM     16  H   UNL     1       1.294   5.448  -0.868  0.00  0.00    +0.000 HD
ATOM     17  H   UNL     1       2.522   3.351  -0.840  0.00  0.00    +0.000 HD
ATOM     18  H   UNL     1       3.494   1.540  -0.729  0.00  0.00    +0.000 HD
ATOM     19  H   UNL     1       0.873  -2.642  -0.882  0.00  0.00    +0.000 HD
ENDROOT
BRANCH  15  20
ATOM     20  C   UNL     1      -1.545  -1.622  -0.768  0.00  0.00    +0.000 C 
ATOM     21  H   UNL     1      -1.132  -2.356  -1.468  0.00  0.00    +0.000 HD
ATOM     22  H   UNL     1      -2.543  -1.402  -1.170  0.00  0.00    +0.000 HD
BRANCH  20  23
ATOM     23  C   UNL     1      -1.718  -2.199   0.624  0.00  0.00    +0.000 A 
ATOM     24  C   UNL     1      -2.474  -1.516   1.588  0.00  0.00    +0.000 A 
ATOM     25  C   UNL     1      -2.548  -1.985   2.902  0.00  0.00    +0.000 A 
ATOM     26  C   UNL     1      -1.877  -3.151   3.270  0.00  0.00    +0.000 A 
ATOM     27 CL   UNL     1      -1.949  -3.632   4.927  0.00  0.00    +0.000 Cl
ATOM     28  C   UNL     1      -1.168  -3.874   2.307  0.00  0.00    +0.000 A 
ATOM     29 CL   UNL     1      -0.331  -5.340   2.679  0.00  0.00    +0.000 Cl
ATOM     30  C   UNL     1      -1.103  -3.406   0.989  0.00  0.00    +0.000 A 
ATOM     31  H   UNL     1      -3.002  -0.601   1.327  0.00  0.00    +0.000 HD
ATOM     32  H   UNL     1      -3.120  -1.422   3.635  0.00  0.00    +0.000 HD
ATOM     33  H   UNL     1      -0.548  -3.984   0.253  0.00  0.00    +0.000 HD
ENDBRANCH  20  23
ENDBRANCH  15  20
BRANCH   4  34
ATOM     34  O   UNL     1      -2.700   3.425  -0.708  0.00  0.00    +0.000 OA
ATOM     35  H   UNL     1      -3.070   2.513  -0.662  0.00  0.00    +0.000 HD
ENDBRANCH   4  34
BRANCH   5  36
ATOM     36  O   UNL     1      -1.298   5.692  -0.823  0.00  0.00    +0.000 OA
ATOM     37  H   UNL     1      -2.245   5.440  -0.808  0.00  0.00    +0.000 HD
ENDBRANCH   5  36
BRANCH  11  38
ATOM     38  O   UNL     1       4.877  -0.703  -0.770  0.00  0.00    +0.000 OA
ATOM     39  H   UNL     1       5.269   0.186  -0.746  0.00  0.00    +0.000 HD
ENDBRANCH  11  38
BRANCH  12  40
ATOM     40  O   UNL     1       3.391  -2.961  -0.851  0.00  0.00    +0.000 OA
ATOM     41  H   UNL     1       4.347  -2.756  -0.815  0.00  0.00    +0.000 HD
ENDBRANCH  12  40
TORSDOF 6
