MODEL 1
REMARK VINA RESULT:   -11.644      0.000      0.000
REMARK INTER + INTRA:         -17.925
REMARK INTER:                 -17.089
REMARK INTRA:                  -0.836
REMARK UNBOUND:                -0.836
REMARK  Name = 
REMARK  9 active torsions:
REMARK  status: ('A' for Active; 'I' for Inactive)
REMARK    1  A    between atoms: C_1  and  C_2
REMARK    2  A    between atoms: C_8  and  C_9
REMARK    3  A    between atoms: C_13  and  O_14
REMARK    4  A    between atoms: O_14  and  C_15
REMARK    5  A    between atoms: C_15  and  C_16
REMARK    6  A    between atoms: C_16  and  N_17
REMARK    7  A    between atoms: C_16  and  C_18
REMARK    8  A    between atoms: C_18  and  C_19
REMARK    9  A    between atoms: C_23  and  C_24
REMARK                            x       y       z     vdW  Elec       q    Type
REMARK                         _______ _______ _______ _____ _____    ______ ____
ROOT
ATOM      1  O   UNL     1      -7.315  -6.412  18.032  0.00  0.00    +0.000 OA
ENDROOT
BRANCH   1   6
ATOM      2  C   UNL     1      -6.909  -4.276  20.935  0.00  0.00    +0.000 A 
ATOM      3  C   UNL     1      -5.519  -4.297  21.039  0.00  0.00    +0.000 A 
ATOM      4  N   UNL     1      -4.689  -4.990  20.215  0.00  0.00    +0.000 NA
ATOM      5  C   UNL     1      -5.272  -5.697  19.218  0.00  0.00    +0.000 A 
ATOM      6  C   UNL     1      -6.639  -5.734  18.999  0.00  0.00    +0.000 A 
ATOM      7  C   UNL     1      -7.449  -5.005  19.864  0.00  0.00    +0.000 A 
ATOM      8  H   UNL     1      -5.011  -3.749  21.831  0.00  0.00    +0.000 HD
ATOM      9  H   UNL     1      -4.567  -6.240  18.598  0.00  0.00    +0.000 HD
ATOM     10  H   UNL     1      -8.521  -5.012  19.685  0.00  0.00    +0.000 HD
BRANCH   2  17
ATOM     11  C   UNL     1      -8.634  -2.900  25.516  0.00  0.00    +0.000 A 
ATOM     12  N   UNL     1      -9.637  -2.068  25.817  0.00  0.00    +0.000 NA
ATOM     13  N   UNL     1     -10.086  -1.658  24.615  0.00  0.00    +0.000 N 
ATOM     14  C   UNL     1      -9.407  -2.195  23.555  0.00  0.00    +0.000 A 
ATOM     15  C   UNL     1      -9.535  -2.040  22.185  0.00  0.00    +0.000 A 
ATOM     16  N   UNL     1      -8.696  -2.730  21.372  0.00  0.00    +0.000 NA
ATOM     17  C   UNL     1      -7.758  -3.560  21.899  0.00  0.00    +0.000 A 
ATOM     18  C   UNL     1      -7.587  -3.726  23.273  0.00  0.00    +0.000 A 
ATOM     19  C   UNL     1      -8.451  -3.021  24.116  0.00  0.00    +0.000 A 
ATOM     20  H   UNL     1     -10.861  -1.009  24.592  0.00  0.00    +0.000 HD
ATOM     21  H   UNL     1     -10.271  -1.400  21.711  0.00  0.00    +0.000 HD
ATOM     22  H   UNL     1      -6.822  -4.366  23.690  0.00  0.00    +0.000 HD
BRANCH  11  23
ATOM     23  C   UNL     1      -7.856  -3.583  26.582  0.00  0.00    +0.000 C 
ATOM     24  H   UNL     1      -6.989  -4.111  26.180  0.00  0.00    +0.000 HD
ATOM     25  H   UNL     1      -8.488  -4.312  27.102  0.00  0.00    +0.000 HD
ATOM     26  H   UNL     1      -7.500  -2.856  27.321  0.00  0.00    +0.000 HD
ENDBRANCH  11  23
ENDBRANCH   2  17
ENDBRANCH   1   6
BRANCH   1  27
ATOM     27  C   UNL     1      -8.674  -6.761  18.299  0.00  0.00    +0.000 C 
ATOM     28  H   UNL     1      -9.298  -6.517  17.430  0.00  0.00    +0.000 HD
ATOM     29  H   UNL     1      -9.037  -6.213  19.179  0.00  0.00    +0.000 HD
BRANCH  27  30
ATOM     30  C   UNL     1      -8.718  -8.284  18.567  0.00  0.00    +0.000 C 
ATOM     31  H   UNL     1      -7.701  -8.683  18.470  0.00  0.00    +0.000 HD
BRANCH  30  32
ATOM     32  N   UNL     1      -9.143  -8.539  19.959  0.00  0.00    +0.000 NA
ATOM     33  H   UNL     1      -9.193  -7.661  20.474  0.00  0.00    +0.000 HD
ATOM     34  H   UNL     1      -8.403  -9.079  20.417  0.00  0.00    +0.000 HD
ENDBRANCH  30  32
BRANCH  30  35
ATOM     35  C   UNL     1      -9.640  -8.971  17.546  0.00  0.00    +0.000 C 
ATOM     36  H   UNL     1      -9.803  -8.295  16.695  0.00  0.00    +0.000 HD
ATOM     37  H   UNL     1     -10.636  -9.124  17.983  0.00  0.00    +0.000 HD
BRANCH  35  38
ATOM     38  C   UNL     1      -9.138 -10.290  17.002  0.00  0.00    +0.000 A 
ATOM     39  C   UNL     1      -8.888 -10.460  15.636  0.00  0.00    +0.000 A 
ATOM     40  C   UNL     1      -8.521 -11.710  15.135  0.00  0.00    +0.000 A 
ATOM     41  C   UNL     1      -8.416 -12.807  15.991  0.00  0.00    +0.000 A 
ATOM     42  C   UNL     1      -8.651 -12.657  17.364  0.00  0.00    +0.000 A 
ATOM     43  C   UNL     1      -8.975 -11.384  17.863  0.00  0.00    +0.000 A 
ATOM     44  H   UNL     1      -8.996  -9.625  14.947  0.00  0.00    +0.000 HD
ATOM     45  H   UNL     1      -8.341 -11.836  14.069  0.00  0.00    +0.000 HD
ATOM     46  H   UNL     1      -8.168 -13.783  15.579  0.00  0.00    +0.000 HD
ATOM     47  H   UNL     1      -9.130 -11.256  18.933  0.00  0.00    +0.000 HD
BRANCH  42  48
ATOM     48  C   UNL     1      -8.622 -13.838  18.302  0.00  0.00    +0.000 C 
ATOM     49  F   UNL     1      -8.869 -15.029  17.688  0.00  0.00    +0.000 F 
ATOM     50  F   UNL     1      -7.430 -13.986  18.940  0.00  0.00    +0.000 F 
ATOM     51  F   UNL     1      -9.560 -13.731  19.286  0.00  0.00    +0.000 F 
ENDBRANCH  42  48
ENDBRANCH  35  38
ENDBRANCH  30  35
ENDBRANCH  27  30
ENDBRANCH   1  27
TORSDOF 9
ENDMDL
MODEL 2
REMARK VINA RESULT:   -11.391      1.306      1.847
REMARK INTER + INTRA:         -17.554
REMARK INTER:                 -16.561
REMARK INTRA:                  -0.993
REMARK UNBOUND:                -0.836
REMARK  Name = 
REMARK  9 active torsions:
REMARK  status: ('A' for Active; 'I' for Inactive)
REMARK    1  A    between atoms: C_1  and  C_2
REMARK    2  A    between atoms: C_8  and  C_9
REMARK    3  A    between atoms: C_13  and  O_14
REMARK    4  A    between atoms: O_14  and  C_15
REMARK    5  A    between atoms: C_15  and  C_16
REMARK    6  A    between atoms: C_16  and  N_17
REMARK    7  A    between atoms: C_16  and  C_18
REMARK    8  A    between atoms: C_18  and  C_19
REMARK    9  A    between atoms: C_23  and  C_24
REMARK                            x       y       z     vdW  Elec       q    Type
REMARK                         _______ _______ _______ _____ _____    ______ ____
ROOT
ATOM      1  O   UNL     1      -7.856  -6.458  17.911  0.00  0.00    +0.000 OA
ENDROOT
BRANCH   1   6
ATOM      2  C   UNL     1      -7.166  -4.364  20.790  0.00  0.00    +0.000 A 
ATOM      3  C   UNL     1      -5.776  -4.461  20.812  0.00  0.00    +0.000 A 
ATOM      4  N   UNL     1      -5.034  -5.192  19.939  0.00  0.00    +0.000 NA
ATOM      5  C   UNL     1      -5.712  -5.861  18.976  0.00  0.00    +0.000 A 
ATOM      6  C   UNL     1      -7.089  -5.823  18.838  0.00  0.00    +0.000 A 
ATOM      7  C   UNL     1      -7.807  -5.056  19.751  0.00  0.00    +0.000 A 
ATOM      8  H   UNL     1      -5.193  -3.945  21.575  0.00  0.00    +0.000 HD
ATOM      9  H   UNL     1      -5.076  -6.438  18.314  0.00  0.00    +0.000 HD
ATOM     10  H   UNL     1      -8.887  -5.005  19.636  0.00  0.00    +0.000 HD
BRANCH   2  17
ATOM     11  C   UNL     1      -8.575  -2.958  25.469  0.00  0.00    +0.000 A 
ATOM     12  N   UNL     1      -9.502  -2.064  25.831  0.00  0.00    +0.000 NA
ATOM     13  N   UNL     1      -9.977  -1.602  24.658  0.00  0.00    +0.000 N 
ATOM     14  C   UNL     1      -9.387  -2.164  23.559  0.00  0.00    +0.000 A 
ATOM     15  C   UNL     1      -9.568  -1.975  22.199  0.00  0.00    +0.000 A 
ATOM     16  N   UNL     1      -8.818  -2.706  21.336  0.00  0.00    +0.000 NA
ATOM     17  C   UNL     1      -7.916  -3.609  21.804  0.00  0.00    +0.000 A 
ATOM     18  C   UNL     1      -7.695  -3.813  23.166  0.00  0.00    +0.000 A 
ATOM     19  C   UNL     1      -8.467  -3.065  24.061  0.00  0.00    +0.000 A 
ATOM     20  H   UNL     1     -10.705  -0.900  24.682  0.00  0.00    +0.000 HD
ATOM     21  H   UNL     1     -10.278  -1.277  21.771  0.00  0.00    +0.000 HD
ATOM     22  H   UNL     1      -6.958  -4.512  23.536  0.00  0.00    +0.000 HD
BRANCH  11  23
ATOM     23  C   UNL     1      -7.799  -3.714  26.487  0.00  0.00    +0.000 C 
ATOM     24  H   UNL     1      -8.448  -4.298  27.143  0.00  0.00    +0.000 HD
ATOM     25  H   UNL     1      -7.218  -3.023  27.108  0.00  0.00    +0.000 HD
ATOM     26  H   UNL     1      -7.099  -4.402  26.000  0.00  0.00    +0.000 HD
ENDBRANCH  11  23
ENDBRANCH   2  17
ENDBRANCH   1   6
BRANCH   1  27
ATOM     27  C   UNL     1      -9.217  -6.040  17.782  0.00  0.00    +0.000 C 
ATOM     28  H   UNL     1      -9.359  -5.527  16.823  0.00  0.00    +0.000 HD
ATOM     29  H   UNL     1      -9.482  -5.365  18.606  0.00  0.00    +0.000 HD
BRANCH  27  30
ATOM     30  C   UNL     1     -10.098  -7.311  17.833  0.00  0.00    +0.000 C 
ATOM     31  H   UNL     1     -10.006  -7.758  18.831  0.00  0.00    +0.000 HD
BRANCH  30  32
ATOM     32  N   UNL     1     -11.519  -6.946  17.660  0.00  0.00    +0.000 NA
ATOM     33  H   UNL     1     -12.113  -7.619  18.142  0.00  0.00    +0.000 HD
ATOM     34  H   UNL     1     -11.748  -7.045  16.667  0.00  0.00    +0.000 HD
ENDBRANCH  30  32
BRANCH  30  35
ATOM     35  C   UNL     1      -9.627  -8.321  16.773  0.00  0.00    +0.000 C 
ATOM     36  H   UNL     1      -8.768  -7.901  16.231  0.00  0.00    +0.000 HD
ATOM     37  H   UNL     1     -10.406  -8.457  16.012  0.00  0.00    +0.000 HD
BRANCH  35  38
ATOM     38  C   UNL     1      -9.222  -9.678  17.304  0.00  0.00    +0.000 A 
ATOM     39  C   UNL     1      -8.815  -9.842  18.633  0.00  0.00    +0.000 A 
ATOM     40  C   UNL     1      -8.349 -11.079  19.082  0.00  0.00    +0.000 A 
ATOM     41  C   UNL     1      -8.269 -12.160  18.203  0.00  0.00    +0.000 A 
ATOM     42  C   UNL     1      -8.682 -12.021  16.871  0.00  0.00    +0.000 A 
ATOM     43  C   UNL     1      -9.191 -10.784  16.444  0.00  0.00    +0.000 A 
ATOM     44  H   UNL     1      -8.839  -9.003  19.325  0.00  0.00    +0.000 HD
ATOM     45  H   UNL     1      -8.023 -11.194  20.113  0.00  0.00    +0.000 HD
ATOM     46  H   UNL     1      -7.866 -13.107  18.558  0.00  0.00    +0.000 HD
ATOM     47  H   UNL     1      -9.541 -10.679  15.418  0.00  0.00    +0.000 HD
BRANCH  42  48
ATOM     48  C   UNL     1      -8.534 -13.148  15.879  0.00  0.00    +0.000 C 
ATOM     49  F   UNL     1      -8.834 -14.373  16.396  0.00  0.00    +0.000 F 
ATOM     50  F   UNL     1      -9.323 -13.000  14.780  0.00  0.00    +0.000 F 
ATOM     51  F   UNL     1      -7.258 -13.250  15.409  0.00  0.00    +0.000 F 
ENDBRANCH  42  48
ENDBRANCH  35  38
ENDBRANCH  30  35
ENDBRANCH  27  30
ENDBRANCH   1  27
TORSDOF 9
ENDMDL
MODEL 3
REMARK VINA RESULT:   -11.368      1.438      1.701
REMARK INTER + INTRA:         -17.521
REMARK INTER:                 -16.616
REMARK INTRA:                  -0.905
REMARK UNBOUND:                -0.836
REMARK  Name = 
REMARK  9 active torsions:
REMARK  status: ('A' for Active; 'I' for Inactive)
REMARK    1  A    between atoms: C_1  and  C_2
REMARK    2  A    between atoms: C_8  and  C_9
REMARK    3  A    between atoms: C_13  and  O_14
REMARK    4  A    between atoms: O_14  and  C_15
REMARK    5  A    between atoms: C_15  and  C_16
REMARK    6  A    between atoms: C_16  and  N_17
REMARK    7  A    between atoms: C_16  and  C_18
REMARK    8  A    between atoms: C_18  and  C_19
REMARK    9  A    between atoms: C_23  and  C_24
REMARK                            x       y       z     vdW  Elec       q    Type
REMARK                         _______ _______ _______ _____ _____    ______ ____
ROOT
ATOM      1  O   UNL     1      -9.579  -5.905  17.458  0.00  0.00    +0.000 OA
ENDROOT
BRANCH   1   6
ATOM      2  C   UNL     1      -8.057  -4.174  20.258  0.00  0.00    +0.000 A 
ATOM      3  C   UNL     1      -6.864  -4.889  20.345  0.00  0.00    +0.000 A 
ATOM      4  N   UNL     1      -6.524  -5.932  19.541  0.00  0.00    +0.000 NA
ATOM      5  C   UNL     1      -7.416  -6.279  18.584  0.00  0.00    +0.000 A 
ATOM      6  C   UNL     1      -8.622  -5.629  18.385  0.00  0.00    +0.000 A 
ATOM      7  C   UNL     1      -8.926  -4.564  19.227  0.00  0.00    +0.000 A 
ATOM      8  H   UNL     1      -6.123  -4.647  21.105  0.00  0.00    +0.000 HD
ATOM      9  H   UNL     1      -7.102  -7.123  17.980  0.00  0.00    +0.000 HD
ATOM     10  H   UNL     1      -9.862  -4.036  19.063  0.00  0.00    +0.000 HD
BRANCH   2  17
ATOM     11  C   UNL     1      -8.797  -2.002  24.795  0.00  0.00    +0.000 A 
ATOM     12  N   UNL     1      -9.205  -0.759  25.071  0.00  0.00    +0.000 NA
ATOM     13  N   UNL     1      -9.364  -0.196  23.858  0.00  0.00    +0.000 N 
ATOM     14  C   UNL     1      -9.073  -1.032  22.815  0.00  0.00    +0.000 A 
ATOM     15  C   UNL     1      -9.095  -0.860  21.441  0.00  0.00    +0.000 A 
ATOM     16  N   UNL     1      -8.749  -1.905  20.649  0.00  0.00    +0.000 NA
ATOM     17  C   UNL     1      -8.397  -3.097  21.200  0.00  0.00    +0.000 A 
ATOM     18  C   UNL     1      -8.345  -3.302  22.578  0.00  0.00    +0.000 A 
ATOM     19  C   UNL     1      -8.704  -2.228  23.400  0.00  0.00    +0.000 A 
ATOM     20  H   UNL     1      -9.676   0.765  23.815  0.00  0.00    +0.000 HD
ATOM     21  H   UNL     1      -9.376   0.064  20.948  0.00  0.00    +0.000 HD
ATOM     22  H   UNL     1      -8.038  -4.242  23.015  0.00  0.00    +0.000 HD
BRANCH  11  23
ATOM     23  C   UNL     1      -8.506  -2.973  25.882  0.00  0.00    +0.000 C 
ATOM     24  H   UNL     1      -8.659  -2.536  26.871  0.00  0.00    +0.000 HD
ATOM     25  H   UNL     1      -7.466  -3.312  25.816  0.00  0.00    +0.000 HD
ATOM     26  H   UNL     1      -9.154  -3.852  25.793  0.00  0.00    +0.000 HD
ENDBRANCH  11  23
ENDBRANCH   2  17
ENDBRANCH   1   6
BRANCH   1  27
ATOM     27  C   UNL     1      -9.413  -7.083  16.667  0.00  0.00    +0.000 C 
ATOM     28  H   UNL     1      -8.426  -7.523  16.858  0.00  0.00    +0.000 HD
ATOM     29  H   UNL     1      -9.508  -6.838  15.601  0.00  0.00    +0.000 HD
BRANCH  27  30
ATOM     30  C   UNL     1     -10.522  -8.080  17.083  0.00  0.00    +0.000 C 
ATOM     31  H   UNL     1     -10.203  -8.592  17.999  0.00  0.00    +0.000 HD
BRANCH  30  32
ATOM     32  N   UNL     1     -11.760  -7.346  17.416  0.00  0.00    +0.000 NA
ATOM     33  H   UNL     1     -11.577  -6.672  18.157  0.00  0.00    +0.000 HD
ATOM     34  H   UNL     1     -12.421  -8.017  17.817  0.00  0.00    +0.000 HD
ENDBRANCH  30  32
BRANCH  30  35
ATOM     35  C   UNL     1     -10.744  -9.114  15.967  0.00  0.00    +0.000 C 
ATOM     36  H   UNL     1     -10.661  -8.615  14.991  0.00  0.00    +0.000 HD
ATOM     37  H   UNL     1     -11.773  -9.494  16.006  0.00  0.00    +0.000 HD
BRANCH  35  38
ATOM     38  C   UNL     1      -9.790 -10.288  15.971  0.00  0.00    +0.000 A 
ATOM     39  C   UNL     1      -9.279 -10.807  14.776  0.00  0.00    +0.000 A 
ATOM     40  C   UNL     1      -8.480 -11.952  14.788  0.00  0.00    +0.000 A 
ATOM     41  C   UNL     1      -8.198 -12.599  15.992  0.00  0.00    +0.000 A 
ATOM     42  C   UNL     1      -8.690 -12.090  17.201  0.00  0.00    +0.000 A 
ATOM     43  C   UNL     1      -9.454 -10.912  17.180  0.00  0.00    +0.000 A 
ATOM     44  H   UNL     1      -9.514 -10.337  13.824  0.00  0.00    +0.000 HD
ATOM     45  H   UNL     1      -8.097 -12.357  13.854  0.00  0.00    +0.000 HD
ATOM     46  H   UNL     1      -7.607 -13.514  15.980  0.00  0.00    +0.000 HD
ATOM     47  H   UNL     1      -9.815 -10.495  18.119  0.00  0.00    +0.000 HD
BRANCH  42  48
ATOM     48  C   UNL     1      -8.468 -12.810  18.508  0.00  0.00    +0.000 C 
ATOM     49  F   UNL     1      -7.220 -13.345  18.631  0.00  0.00    +0.000 F 
ATOM     50  F   UNL     1      -8.642 -12.010  19.595  0.00  0.00    +0.000 F 
ATOM     51  F   UNL     1      -9.333 -13.852  18.670  0.00  0.00    +0.000 F 
ENDBRANCH  42  48
ENDBRANCH  35  38
ENDBRANCH  30  35
ENDBRANCH  27  30
ENDBRANCH   1  27
TORSDOF 9
ENDMDL
MODEL 4
REMARK VINA RESULT:   -11.308      0.863      1.874
REMARK INTER + INTRA:         -17.432
REMARK INTER:                 -16.579
REMARK INTRA:                  -0.854
REMARK UNBOUND:                -0.836
REMARK  Name = 
REMARK  9 active torsions:
REMARK  status: ('A' for Active; 'I' for Inactive)
REMARK    1  A    between atoms: C_1  and  C_2
REMARK    2  A    between atoms: C_8  and  C_9
REMARK    3  A    between atoms: C_13  and  O_14
REMARK    4  A    between atoms: O_14  and  C_15
REMARK    5  A    between atoms: C_15  and  C_16
REMARK    6  A    between atoms: C_16  and  N_17
REMARK    7  A    between atoms: C_16  and  C_18
REMARK    8  A    between atoms: C_18  and  C_19
REMARK    9  A    between atoms: C_23  and  C_24
REMARK                            x       y       z     vdW  Elec       q    Type
REMARK                         _______ _______ _______ _____ _____    ______ ____
ROOT
ATOM      1  O   UNL     1      -7.371  -6.560  17.840  0.00  0.00    +0.000 OA
ENDROOT
BRANCH   1   6
ATOM      2  C   UNL     1      -6.956  -4.338  20.676  0.00  0.00    +0.000 A 
ATOM      3  C   UNL     1      -5.570  -4.395  20.808  0.00  0.00    +0.000 A 
ATOM      4  N   UNL     1      -4.746  -5.140  20.024  0.00  0.00    +0.000 NA
ATOM      5  C   UNL     1      -5.330  -5.863  19.040  0.00  0.00    +0.000 A 
ATOM      6  C   UNL     1      -6.693  -5.869  18.796  0.00  0.00    +0.000 A 
ATOM      7  C   UNL     1      -7.498  -5.087  19.621  0.00  0.00    +0.000 A 
ATOM      8  H   UNL     1      -5.061  -3.835  21.591  0.00  0.00    +0.000 HD
ATOM      9  H   UNL     1      -4.631  -6.448  18.453  0.00  0.00    +0.000 HD
ATOM     10  H   UNL     1      -8.566  -5.070  19.422  0.00  0.00    +0.000 HD
BRANCH   2  17
ATOM     11  C   UNL     1     -10.300  -0.768  22.062  0.00  0.00    +0.000 A 
ATOM     12  N   UNL     1     -10.751  -0.473  23.286  0.00  0.00    +0.000 NA
ATOM     13  N   UNL     1     -10.121  -1.359  24.082  0.00  0.00    +0.000 N 
ATOM     14  C   UNL     1      -9.285  -2.210  23.413  0.00  0.00    +0.000 A 
ATOM     15  C   UNL     1      -8.472  -3.249  23.835  0.00  0.00    +0.000 A 
ATOM     16  N   UNL     1      -7.740  -3.918  22.910  0.00  0.00    +0.000 NA
ATOM     17  C   UNL     1      -7.801  -3.565  21.599  0.00  0.00    +0.000 A 
ATOM     18  C   UNL     1      -8.621  -2.537  21.135  0.00  0.00    +0.000 A 
ATOM     19  C   UNL     1      -9.376  -1.841  22.084  0.00  0.00    +0.000 A 
ATOM     20  H   UNL     1     -10.309  -1.325  25.075  0.00  0.00    +0.000 HD
ATOM     21  H   UNL     1      -8.378  -3.567  24.867  0.00  0.00    +0.000 HD
ATOM     22  H   UNL     1      -8.689  -2.275  20.088  0.00  0.00    +0.000 HD
BRANCH  11  23
ATOM     23  C   UNL     1     -10.758  -0.005  20.871  0.00  0.00    +0.000 C 
ATOM     24  H   UNL     1      -9.931   0.506  20.372  0.00  0.00    +0.000 HD
ATOM     25  H   UNL     1     -11.496   0.748  21.166  0.00  0.00    +0.000 HD
ATOM     26  H   UNL     1     -11.231  -0.677  20.146  0.00  0.00    +0.000 HD
ENDBRANCH  11  23
ENDBRANCH   2  17
ENDBRANCH   1   6
BRANCH   1  27
ATOM     27  C   UNL     1      -8.729  -6.907  18.116  0.00  0.00    +0.000 C 
ATOM     28  H   UNL     1      -9.352  -6.697  17.238  0.00  0.00    +0.000 HD
ATOM     29  H   UNL     1      -9.098  -6.332  18.976  0.00  0.00    +0.000 HD
BRANCH  27  30
ATOM     30  C   UNL     1      -8.765  -8.421  18.435  0.00  0.00    +0.000 C 
ATOM     31  H   UNL     1      -7.741  -8.811  18.386  0.00  0.00    +0.000 HD
BRANCH  30  32
ATOM     32  N   UNL     1      -9.234  -8.633  19.820  0.00  0.00    +0.000 NA
ATOM     33  H   UNL     1      -9.748  -7.815  20.143  0.00  0.00    +0.000 HD
ATOM     34  H   UNL     1      -8.408  -8.689  20.423  0.00  0.00    +0.000 HD
ENDBRANCH  30  32
BRANCH  30  35
ATOM     35  C   UNL     1      -9.644  -9.154  17.408  0.00  0.00    +0.000 C 
ATOM     36  H   UNL     1      -9.765  -8.521  16.518  0.00  0.00    +0.000 HD
ATOM     37  H   UNL     1     -10.660  -9.282  17.806  0.00  0.00    +0.000 HD
BRANCH  35  38
ATOM     38  C   UNL     1      -9.126 -10.501  16.954  0.00  0.00    +0.000 A 
ATOM     39  C   UNL     1      -8.780 -10.728  15.617  0.00  0.00    +0.000 A 
ATOM     40  C   UNL     1      -8.398 -12.002  15.193  0.00  0.00    +0.000 A 
ATOM     41  C   UNL     1      -8.376 -13.065  16.097  0.00  0.00    +0.000 A 
ATOM     42  C   UNL     1      -8.708 -12.858  17.441  0.00  0.00    +0.000 A 
ATOM     43  C   UNL     1      -9.046 -11.563  17.866  0.00  0.00    +0.000 A 
ATOM     44  H   UNL     1      -8.823  -9.919  14.891  0.00  0.00    +0.000 HD
ATOM     45  H   UNL     1      -8.143 -12.173  14.150  0.00  0.00    +0.000 HD
ATOM     46  H   UNL     1      -8.115 -14.061  15.741  0.00  0.00    +0.000 HD
ATOM     47  H   UNL     1      -9.276 -11.390  18.916  0.00  0.00    +0.000 HD
BRANCH  42  48
ATOM     48  C   UNL     1      -8.769 -14.002  18.423  0.00  0.00    +0.000 C 
ATOM     49  F   UNL     1      -9.339 -15.130  17.914  0.00  0.00    +0.000 F 
ATOM     50  F   UNL     1      -7.544 -14.376  18.885  0.00  0.00    +0.000 F 
ATOM     51  F   UNL     1      -9.502 -13.687  19.529  0.00  0.00    +0.000 F 
ENDBRANCH  42  48
ENDBRANCH  35  38
ENDBRANCH  30  35
ENDBRANCH  27  30
ENDBRANCH   1  27
TORSDOF 9
ENDMDL
MODEL 5
REMARK VINA RESULT:   -11.272      1.592      2.132
REMARK INTER + INTRA:         -17.380
REMARK INTER:                 -16.618
REMARK INTRA:                  -0.762
REMARK UNBOUND:                -0.836
REMARK  Name = 
REMARK  9 active torsions:
REMARK  status: ('A' for Active; 'I' for Inactive)
REMARK    1  A    between atoms: C_1  and  C_2
REMARK    2  A    between atoms: C_8  and  C_9
REMARK    3  A    between atoms: C_13  and  O_14
REMARK    4  A    between atoms: O_14  and  C_15
REMARK    5  A    between atoms: C_15  and  C_16
REMARK    6  A    between atoms: C_16  and  N_17
REMARK    7  A    between atoms: C_16  and  C_18
REMARK    8  A    between atoms: C_18  and  C_19
REMARK    9  A    between atoms: C_23  and  C_24
REMARK                            x       y       z     vdW  Elec       q    Type
REMARK                         _______ _______ _______ _____ _____    ______ ____
ROOT
ATOM      1  O   UNL     1      -9.069  -6.082  17.603  0.00  0.00    +0.000 OA
ENDROOT
BRANCH   1   6
ATOM      2  C   UNL     1      -7.695  -4.277  20.433  0.00  0.00    +0.000 A 
ATOM      3  C   UNL     1      -6.392  -4.769  20.404  0.00  0.00    +0.000 A 
ATOM      4  N   UNL     1      -5.927  -5.683  19.512  0.00  0.00    +0.000 NA
ATOM      5  C   UNL     1      -6.804  -6.128  18.582  0.00  0.00    +0.000 A 
ATOM      6  C   UNL     1      -8.116  -5.695  18.494  0.00  0.00    +0.000 A 
ATOM      7  C   UNL     1      -8.548  -4.754  19.425  0.00  0.00    +0.000 A 
ATOM      8  H   UNL     1      -5.658  -4.444  21.140  0.00  0.00    +0.000 HD
ATOM      9  H   UNL     1      -6.386  -6.863  17.904  0.00  0.00    +0.000 HD
ATOM     10  H   UNL     1      -9.571  -4.394  19.349  0.00  0.00    +0.000 HD
BRANCH   2  17
ATOM     11  C   UNL     1      -8.622  -2.605  25.144  0.00  0.00    +0.000 A 
ATOM     12  N   UNL     1      -9.189  -1.456  25.528  0.00  0.00    +0.000 NA
ATOM     13  N   UNL     1      -9.450  -0.824  24.368  0.00  0.00    +0.000 N 
ATOM     14  C   UNL     1      -9.071  -1.524  23.255  0.00  0.00    +0.000 A 
ATOM     15  C   UNL     1      -9.148  -1.244  21.901  0.00  0.00    +0.000 A 
ATOM     16  N   UNL     1      -8.681  -2.164  21.021  0.00  0.00    +0.000 NA
ATOM     17  C   UNL     1      -8.158  -3.337  21.465  0.00  0.00    +0.000 A 
ATOM     18  C   UNL     1      -8.047  -3.645  22.821  0.00  0.00    +0.000 A 
ATOM     19  C   UNL     1      -8.530  -2.702  23.734  0.00  0.00    +0.000 A 
ATOM     20  H   UNL     1      -9.891   0.086  24.409  0.00  0.00    +0.000 HD
ATOM     21  H   UNL     1      -9.563  -0.331  21.491  0.00  0.00    +0.000 HD
ATOM     22  H   UNL     1      -7.606  -4.567  23.174  0.00  0.00    +0.000 HD
BRANCH  11  23
ATOM     23  C   UNL     1      -8.177  -3.613  26.142  0.00  0.00    +0.000 C 
ATOM     24  H   UNL     1      -8.296  -4.633  25.772  0.00  0.00    +0.000 HD
ATOM     25  H   UNL     1      -8.761  -3.514  27.064  0.00  0.00    +0.000 HD
ATOM     26  H   UNL     1      -7.121  -3.462  26.392  0.00  0.00    +0.000 HD
ENDBRANCH  11  23
ENDBRANCH   2  17
ENDBRANCH   1   6
BRANCH   1  27
ATOM     27  C   UNL     1      -8.697  -7.048  16.617  0.00  0.00    +0.000 C 
ATOM     28  H   UNL     1      -7.755  -7.529  16.905  0.00  0.00    +0.000 HD
ATOM     29  H   UNL     1      -8.579  -6.561  15.640  0.00  0.00    +0.000 HD
BRANCH  27  30
ATOM     30  C   UNL     1      -9.828  -8.102  16.552  0.00  0.00    +0.000 C 
ATOM     31  H   UNL     1     -10.004  -8.486  17.564  0.00  0.00    +0.000 HD
BRANCH  30  32
ATOM     32  N   UNL     1     -11.087  -7.464  16.114  0.00  0.00    +0.000 NA
ATOM     33  H   UNL     1     -11.766  -8.176  15.853  0.00  0.00    +0.000 HD
ATOM     34  H   UNL     1     -10.891  -6.948  15.252  0.00  0.00    +0.000 HD
ENDBRANCH  30  32
BRANCH  30  35
ATOM     35  C   UNL     1      -9.414  -9.260  15.628  0.00  0.00    +0.000 C 
ATOM     36  H   UNL     1      -8.506  -8.975  15.078  0.00  0.00    +0.000 HD
ATOM     37  H   UNL     1     -10.178  -9.415  14.855  0.00  0.00    +0.000 HD
BRANCH  35  38
ATOM     38  C   UNL     1      -9.144 -10.577  16.319  0.00  0.00    +0.000 A 
ATOM     39  C   UNL     1      -8.820 -10.626  17.680  0.00  0.00    +0.000 A 
ATOM     40  C   UNL     1      -8.477 -11.838  18.281  0.00  0.00    +0.000 A 
ATOM     41  C   UNL     1      -8.437 -13.011  17.525  0.00  0.00    +0.000 A 
ATOM     42  C   UNL     1      -8.769 -12.987  16.165  0.00  0.00    +0.000 A 
ATOM     43  C   UNL     1      -9.157 -11.769  15.582  0.00  0.00    +0.000 A 
ATOM     44  H   UNL     1      -8.813  -9.718  18.279  0.00  0.00    +0.000 HD
ATOM     45  H   UNL     1      -8.214 -11.865  19.336  0.00  0.00    +0.000 HD
ATOM     46  H   UNL     1      -8.128 -13.941  18.000  0.00  0.00    +0.000 HD
ATOM     47  H   UNL     1      -9.444 -11.750  14.532  0.00  0.00    +0.000 HD
BRANCH  42  48
ATOM     48  C   UNL     1      -8.660 -14.222  15.305  0.00  0.00    +0.000 C 
ATOM     49  F   UNL     1      -8.281 -15.335  15.994  0.00  0.00    +0.000 F 
ATOM     50  F   UNL     1      -9.825 -14.545  14.682  0.00  0.00    +0.000 F 
ATOM     51  F   UNL     1      -7.736 -14.072  14.312  0.00  0.00    +0.000 F 
ENDBRANCH  42  48
ENDBRANCH  35  38
ENDBRANCH  30  35
ENDBRANCH  27  30
ENDBRANCH   1  27
TORSDOF 9
ENDMDL
MODEL 6
REMARK VINA RESULT:   -11.100      5.543     10.828
REMARK INTER + INTRA:         -17.127
REMARK INTER:                 -16.273
REMARK INTRA:                  -0.854
REMARK UNBOUND:                -0.836
REMARK  Name = 
REMARK  9 active torsions:
REMARK  status: ('A' for Active; 'I' for Inactive)
REMARK    1  A    between atoms: C_1  and  C_2
REMARK    2  A    between atoms: C_8  and  C_9
REMARK    3  A    between atoms: C_13  and  O_14
REMARK    4  A    between atoms: O_14  and  C_15
REMARK    5  A    between atoms: C_15  and  C_16
REMARK    6  A    between atoms: C_16  and  N_17
REMARK    7  A    between atoms: C_16  and  C_18
REMARK    8  A    between atoms: C_18  and  C_19
REMARK    9  A    between atoms: C_23  and  C_24
REMARK                            x       y       z     vdW  Elec       q    Type
REMARK                         _______ _______ _______ _____ _____    ______ ____
ROOT
ATOM      1  O   UNL     1      -7.810  -5.726  20.286  0.00  0.00    +0.000 OA
ENDROOT
BRANCH   1   6
ATOM      2  C   UNL     1      -9.204  -7.465  17.426  0.00  0.00    +0.000 A 
ATOM      3  C   UNL     1     -10.089  -6.487  16.976  0.00  0.00    +0.000 A 
ATOM      4  N   UNL     1     -10.276  -5.277  17.567  0.00  0.00    +0.000 NA
ATOM      5  C   UNL     1      -9.529  -5.015  18.665  0.00  0.00    +0.000 A 
ATOM      6  C   UNL     1      -8.600  -5.896  19.192  0.00  0.00    +0.000 A 
ATOM      7  C   UNL     1      -8.439  -7.121  18.551  0.00  0.00    +0.000 A 
ATOM      8  H   UNL     1     -10.714  -6.662  16.101  0.00  0.00    +0.000 HD
ATOM      9  H   UNL     1      -9.725  -4.043  19.104  0.00  0.00    +0.000 HD
ATOM     10  H   UNL     1      -7.697  -7.809  18.947  0.00  0.00    +0.000 HD
BRANCH   2  17
ATOM     11  C   UNL     1      -8.604 -12.508  17.186  0.00  0.00    +0.000 A 
ATOM     12  N   UNL     1      -8.566 -13.296  16.106  0.00  0.00    +0.000 NA
ATOM     13  N   UNL     1      -8.740 -12.442  15.079  0.00  0.00    +0.000 N 
ATOM     14  C   UNL     1      -8.889 -11.136  15.461  0.00  0.00    +0.000 A 
ATOM     15  C   UNL     1      -9.092  -9.968  14.746  0.00  0.00    +0.000 A 
ATOM     16  N   UNL     1      -9.197  -8.800  15.427  0.00  0.00    +0.000 NA
ATOM     17  C   UNL     1      -9.096  -8.783  16.782  0.00  0.00    +0.000 A 
ATOM     18  C   UNL     1      -8.910  -9.941  17.536  0.00  0.00    +0.000 A 
ATOM     19  C   UNL     1      -8.797 -11.149  16.840  0.00  0.00    +0.000 A 
ATOM     20  H   UNL     1      -8.746 -12.819  14.140  0.00  0.00    +0.000 HD
ATOM     21  H   UNL     1      -9.172  -9.922  13.665  0.00  0.00    +0.000 HD
ATOM     22  H   UNL     1      -8.857  -9.929  18.616  0.00  0.00    +0.000 HD
BRANCH  11  23
ATOM     23  C   UNL     1      -8.446 -13.071  18.552  0.00  0.00    +0.000 C 
ATOM     24  H   UNL     1      -9.286 -13.713  18.828  0.00  0.00    +0.000 HD
ATOM     25  H   UNL     1      -8.379 -12.262  19.288  0.00  0.00    +0.000 HD
ATOM     26  H   UNL     1      -7.528 -13.665  18.617  0.00  0.00    +0.000 HD
ENDBRANCH  11  23
ENDBRANCH   2  17
ENDBRANCH   1   6
BRANCH   1  27
ATOM     27  C   UNL     1      -6.655  -4.896  20.143  0.00  0.00    +0.000 C 
ATOM     28  H   UNL     1      -6.763  -4.258  19.259  0.00  0.00    +0.000 HD
ATOM     29  H   UNL     1      -5.756  -5.518  20.042  0.00  0.00    +0.000 HD
BRANCH  27  30
ATOM     30  C   UNL     1      -6.554  -4.020  21.415  0.00  0.00    +0.000 C 
ATOM     31  H   UNL     1      -6.542  -4.680  22.291  0.00  0.00    +0.000 HD
BRANCH  30  32
ATOM     32  N   UNL     1      -5.272  -3.285  21.420  0.00  0.00    +0.000 NA
ATOM     33  H   UNL     1      -5.190  -2.722  20.575  0.00  0.00    +0.000 HD
ATOM     34  H   UNL     1      -4.517  -3.974  21.360  0.00  0.00    +0.000 HD
ENDBRANCH  30  32
BRANCH  30  35
ATOM     35  C   UNL     1      -7.764  -3.074  21.499  0.00  0.00    +0.000 C 
ATOM     36  H   UNL     1      -8.648  -3.583  21.090  0.00  0.00    +0.000 HD
ATOM     37  H   UNL     1      -7.607  -2.205  20.847  0.00  0.00    +0.000 HD
BRANCH  35  38
ATOM     38  C   UNL     1      -8.110  -2.586  22.888  0.00  0.00    +0.000 A 
ATOM     39  C   UNL     1      -8.444  -3.484  23.908  0.00  0.00    +0.000 A 
ATOM     40  C   UNL     1      -8.858  -3.015  25.155  0.00  0.00    +0.000 A 
ATOM     41  C   UNL     1      -8.959  -1.643  25.391  0.00  0.00    +0.000 A 
ATOM     42  C   UNL     1      -8.620  -0.726  24.388  0.00  0.00    +0.000 A 
ATOM     43  C   UNL     1      -8.160  -1.210  23.152  0.00  0.00    +0.000 A 
ATOM     44  H   UNL     1      -8.403  -4.557  23.733  0.00  0.00    +0.000 HD
ATOM     45  H   UNL     1      -9.127  -3.720  25.938  0.00  0.00    +0.000 HD
ATOM     46  H   UNL     1      -9.322  -1.294  26.356  0.00  0.00    +0.000 HD
ATOM     47  H   UNL     1      -7.867  -0.502  22.379  0.00  0.00    +0.000 HD
BRANCH  42  48
ATOM     48  C   UNL     1      -8.793   0.760  24.587  0.00  0.00    +0.000 C 
ATOM     49  F   UNL     1      -9.159   1.102  25.855  0.00  0.00    +0.000 F 
ATOM     50  F   UNL     1      -7.665   1.471  24.317  0.00  0.00    +0.000 F 
ATOM     51  F   UNL     1      -9.760   1.274  23.774  0.00  0.00    +0.000 F 
ENDBRANCH  42  48
ENDBRANCH  35  38
ENDBRANCH  30  35
ENDBRANCH  27  30
ENDBRANCH   1  27
TORSDOF 9
ENDMDL
MODEL 7
REMARK VINA RESULT:   -11.094      2.229      3.314
REMARK INTER + INTRA:         -17.119
REMARK INTER:                 -16.128
REMARK INTRA:                  -0.991
REMARK UNBOUND:                -0.836
REMARK  Name = 
REMARK  9 active torsions:
REMARK  status: ('A' for Active; 'I' for Inactive)
REMARK    1  A    between atoms: C_1  and  C_2
REMARK    2  A    between atoms: C_8  and  C_9
REMARK    3  A    between atoms: C_13  and  O_14
REMARK    4  A    between atoms: O_14  and  C_15
REMARK    5  A    between atoms: C_15  and  C_16
REMARK    6  A    between atoms: C_16  and  N_17
REMARK    7  A    between atoms: C_16  and  C_18
REMARK    8  A    between atoms: C_18  and  C_19
REMARK    9  A    between atoms: C_23  and  C_24
REMARK                            x       y       z     vdW  Elec       q    Type
REMARK                         _______ _______ _______ _____ _____    ______ ____
ROOT
ATOM      1  O   UNL     1      -9.585  -6.721  16.544  0.00  0.00    +0.000 OA
ENDROOT
BRANCH   1   6
ATOM      2  C   UNL     1     -10.408  -3.728  18.419  0.00  0.00    +0.000 A 
ATOM      3  C   UNL     1     -11.613  -3.398  17.801  0.00  0.00    +0.000 A 
ATOM      4  N   UNL     1     -12.179  -4.095  16.781  0.00  0.00    +0.000 NA
ATOM      5  C   UNL     1     -11.515  -5.195  16.354  0.00  0.00    +0.000 A 
ATOM      6  C   UNL     1     -10.324  -5.637  16.904  0.00  0.00    +0.000 A 
ATOM      7  C   UNL     1      -9.784  -4.894  17.950  0.00  0.00    +0.000 A 
ATOM      8  H   UNL     1     -12.174  -2.517  18.109  0.00  0.00    +0.000 HD
ATOM      9  H   UNL     1     -12.003  -5.708  15.532  0.00  0.00    +0.000 HD
ATOM     10  H   UNL     1      -8.860  -5.246  18.401  0.00  0.00    +0.000 HD
BRANCH   2  17
ATOM     11  C   UNL     1      -7.135  -2.508  22.113  0.00  0.00    +0.000 A 
ATOM     12  N   UNL     1      -7.104  -1.410  22.876  0.00  0.00    +0.000 NA
ATOM     13  N   UNL     1      -8.144  -0.680  22.428  0.00  0.00    +0.000 N 
ATOM     14  C   UNL     1      -8.838  -1.269  21.407  0.00  0.00    +0.000 A 
ATOM     15  C   UNL     1      -9.941  -0.869  20.671  0.00  0.00    +0.000 A 
ATOM     16  N   UNL     1     -10.412  -1.696  19.705  0.00  0.00    +0.000 NA
ATOM     17  C   UNL     1      -9.813  -2.895  19.475  0.00  0.00    +0.000 A 
ATOM     18  C   UNL     1      -8.690  -3.322  20.183  0.00  0.00    +0.000 A 
ATOM     19  C   UNL     1      -8.202  -2.475  21.183  0.00  0.00    +0.000 A 
ATOM     20  H   UNL     1      -8.323   0.214  22.867  0.00  0.00    +0.000 HD
ATOM     21  H   UNL     1     -10.463   0.070  20.818  0.00  0.00    +0.000 HD
ATOM     22  H   UNL     1      -8.199  -4.263  19.980  0.00  0.00    +0.000 HD
BRANCH  11  23
ATOM     23  C   UNL     1      -6.134  -3.594  22.290  0.00  0.00    +0.000 C 
ATOM     24  H   UNL     1      -5.240  -3.426  21.685  0.00  0.00    +0.000 HD
ATOM     25  H   UNL     1      -6.567  -4.557  21.999  0.00  0.00    +0.000 HD
ATOM     26  H   UNL     1      -5.828  -3.663  23.340  0.00  0.00    +0.000 HD
ENDBRANCH  11  23
ENDBRANCH   2  17
ENDBRANCH   1   6
BRANCH   1  27
ATOM     27  C   UNL     1      -8.493  -7.086  17.389  0.00  0.00    +0.000 C 
ATOM     28  H   UNL     1      -8.368  -6.336  18.180  0.00  0.00    +0.000 HD
ATOM     29  H   UNL     1      -7.569  -7.157  16.800  0.00  0.00    +0.000 HD
BRANCH  27  30
ATOM     30  C   UNL     1      -8.830  -8.460  18.016  0.00  0.00    +0.000 C 
ATOM     31  H   UNL     1      -7.891  -8.993  18.210  0.00  0.00    +0.000 HD
BRANCH  30  32
ATOM     32  N   UNL     1      -9.489  -8.269  19.324  0.00  0.00    +0.000 NA
ATOM     33  H   UNL     1      -9.481  -9.142  19.849  0.00  0.00    +0.000 HD
ATOM     34  H   UNL     1     -10.478  -8.069  19.148  0.00  0.00    +0.000 HD
ENDBRANCH  30  32
BRANCH  30  35
ATOM     35  C   UNL     1      -9.696  -9.281  17.045  0.00  0.00    +0.000 C 
ATOM     36  H   UNL     1      -9.815  -8.722  16.106  0.00  0.00    +0.000 HD
ATOM     37  H   UNL     1     -10.713  -9.385  17.445  0.00  0.00    +0.000 HD
BRANCH  35  38
ATOM     38  C   UNL     1      -9.163 -10.655  16.704  0.00  0.00    +0.000 A 
ATOM     39  C   UNL     1      -8.799 -10.983  15.393  0.00  0.00    +0.000 A 
ATOM     40  C   UNL     1      -8.405 -12.284  15.074  0.00  0.00    +0.000 A 
ATOM     41  C   UNL     1      -8.386 -13.273  16.059  0.00  0.00    +0.000 A 
ATOM     42  C   UNL     1      -8.735 -12.964  17.379  0.00  0.00    +0.000 A 
ATOM     43  C   UNL     1      -9.086 -11.641  17.697  0.00  0.00    +0.000 A 
ATOM     44  H   UNL     1      -8.839 -10.235  14.605  0.00  0.00    +0.000 HD
ATOM     45  H   UNL     1      -8.136 -12.534  14.051  0.00  0.00    +0.000 HD
ATOM     46  H   UNL     1      -8.114 -14.292  15.785  0.00  0.00    +0.000 HD
ATOM     47  H   UNL     1      -9.331 -11.388  18.727  0.00  0.00    +0.000 HD
BRANCH  42  48
ATOM     48  C   UNL     1      -8.800 -14.027  18.447  0.00  0.00    +0.000 C 
ATOM     49  F   UNL     1      -7.576 -14.467  18.855  0.00  0.00    +0.000 F 
ATOM     50  F   UNL     1      -9.444 -13.616  19.573  0.00  0.00    +0.000 F 
ATOM     51  F   UNL     1      -9.467 -15.138  18.022  0.00  0.00    +0.000 F 
ENDBRANCH  42  48
ENDBRANCH  35  38
ENDBRANCH  30  35
ENDBRANCH  27  30
ENDBRANCH   1  27
TORSDOF 9
ENDMDL
MODEL 8
REMARK VINA RESULT:   -11.070      2.650      4.340
REMARK INTER + INTRA:         -17.083
REMARK INTER:                 -16.151
REMARK INTRA:                  -0.932
REMARK UNBOUND:                -0.836
REMARK  Name = 
REMARK  9 active torsions:
REMARK  status: ('A' for Active; 'I' for Inactive)
REMARK    1  A    between atoms: C_1  and  C_2
REMARK    2  A    between atoms: C_8  and  C_9
REMARK    3  A    between atoms: C_13  and  O_14
REMARK    4  A    between atoms: O_14  and  C_15
REMARK    5  A    between atoms: C_15  and  C_16
REMARK    6  A    between atoms: C_16  and  N_17
REMARK    7  A    between atoms: C_16  and  C_18
REMARK    8  A    between atoms: C_18  and  C_19
REMARK    9  A    between atoms: C_23  and  C_24
REMARK                            x       y       z     vdW  Elec       q    Type
REMARK                         _______ _______ _______ _____ _____    ______ ____
ROOT
ATOM      1  O   UNL     1     -11.054  -6.346  16.134  0.00  0.00    +0.000 OA
ENDROOT
BRANCH   1   6
ATOM      2  C   UNL     1     -10.094  -3.953  18.684  0.00  0.00    +0.000 A 
ATOM      3  C   UNL     1     -11.174  -3.078  18.592  0.00  0.00    +0.000 A 
ATOM      4  N   UNL     1     -12.210  -3.213  17.723  0.00  0.00    +0.000 NA
ATOM      5  C   UNL     1     -12.180  -4.289  16.901  0.00  0.00    +0.000 A 
ATOM      6  C   UNL     1     -11.174  -5.240  16.917  0.00  0.00    +0.000 A 
ATOM      7  C   UNL     1     -10.136  -5.064  17.827  0.00  0.00    +0.000 A 
ATOM      8  H   UNL     1     -11.233  -2.197  19.229  0.00  0.00    +0.000 HD
ATOM      9  H   UNL     1     -13.022  -4.342  16.221  0.00  0.00    +0.000 HD
ATOM     10  H   UNL     1      -9.353  -5.817  17.859  0.00  0.00    +0.000 HD
BRANCH   2  17
ATOM     11  C   UNL     1      -5.467  -4.654  20.672  0.00  0.00    +0.000 A 
ATOM     12  N   UNL     1      -4.901  -4.036  21.714  0.00  0.00    +0.000 NA
ATOM     13  N   UNL     1      -5.842  -3.160  22.117  0.00  0.00    +0.000 N 
ATOM     14  C   UNL     1      -6.988  -3.194  21.371  0.00  0.00    +0.000 A 
ATOM     15  C   UNL     1      -8.170  -2.476  21.437  0.00  0.00    +0.000 A 
ATOM     16  N   UNL     1      -9.149  -2.751  20.539  0.00  0.00    +0.000 NA
ATOM     17  C   UNL     1      -8.968  -3.718  19.601  0.00  0.00    +0.000 A 
ATOM     18  C   UNL     1      -7.785  -4.448  19.492  0.00  0.00    +0.000 A 
ATOM     19  C   UNL     1      -6.773  -4.172  20.418  0.00  0.00    +0.000 A 
ATOM     20  H   UNL     1      -5.633  -2.568  22.910  0.00  0.00    +0.000 HD
ATOM     21  H   UNL     1      -8.372  -1.701  22.169  0.00  0.00    +0.000 HD
ATOM     22  H   UNL     1      -7.633  -5.198  18.728  0.00  0.00    +0.000 HD
BRANCH  11  23
ATOM     23  C   UNL     1      -4.744  -5.718  19.926  0.00  0.00    +0.000 C 
ATOM     24  H   UNL     1      -4.360  -6.494  20.592  0.00  0.00    +0.000 HD
ATOM     25  H   UNL     1      -3.898  -5.288  19.379  0.00  0.00    +0.000 HD
ATOM     26  H   UNL     1      -5.411  -6.194  19.198  0.00  0.00    +0.000 HD
ENDBRANCH  11  23
ENDBRANCH   2  17
ENDBRANCH   1   6
BRANCH   1  27
ATOM     27  C   UNL     1      -9.815  -7.056  16.180  0.00  0.00    +0.000 C 
ATOM     28  H   UNL     1      -9.206  -6.688  17.014  0.00  0.00    +0.000 HD
ATOM     29  H   UNL     1      -9.270  -6.922  15.236  0.00  0.00    +0.000 HD
BRANCH  27  30
ATOM     30  C   UNL     1     -10.147  -8.553  16.392  0.00  0.00    +0.000 C 
ATOM     31  H   UNL     1     -10.258  -8.735  17.468  0.00  0.00    +0.000 HD
BRANCH  30  32
ATOM     32  N   UNL     1     -11.447  -8.874  15.769  0.00  0.00    +0.000 NA
ATOM     33  H   UNL     1     -11.301  -9.277  14.845  0.00  0.00    +0.000 HD
ATOM     34  H   UNL     1     -11.940  -7.992  15.604  0.00  0.00    +0.000 HD
ENDBRANCH  30  32
BRANCH  30  35
ATOM     35  C   UNL     1      -9.008  -9.426  15.838  0.00  0.00    +0.000 C 
ATOM     36  H   UNL     1      -8.049  -8.914  15.998  0.00  0.00    +0.000 HD
ATOM     37  H   UNL     1      -9.103  -9.521  14.749  0.00  0.00    +0.000 HD
BRANCH  35  38
ATOM     38  C   UNL     1      -8.901 -10.810  16.439  0.00  0.00    +0.000 A 
ATOM     39  C   UNL     1      -8.665 -10.987  17.808  0.00  0.00    +0.000 A 
ATOM     40  C   UNL     1      -8.469 -12.266  18.331  0.00  0.00    +0.000 A 
ATOM     41  C   UNL     1      -8.490 -13.380  17.490  0.00  0.00    +0.000 A 
ATOM     42  C   UNL     1      -8.736 -13.227  16.120  0.00  0.00    +0.000 A 
ATOM     43  C   UNL     1      -8.977 -11.940  15.613  0.00  0.00    +0.000 A 
ATOM     44  H   UNL     1      -8.612 -10.129  18.474  0.00  0.00    +0.000 HD
ATOM     45  H   UNL     1      -8.273 -12.394  19.393  0.00  0.00    +0.000 HD
ATOM     46  H   UNL     1      -8.295 -14.366  17.908  0.00  0.00    +0.000 HD
ATOM     47  H   UNL     1      -9.197 -11.818  14.553  0.00  0.00    +0.000 HD
BRANCH  42  48
ATOM     48  C   UNL     1      -8.687 -14.402  15.175  0.00  0.00    +0.000 C 
ATOM     49  F   UNL     1      -8.030 -15.483  15.681  0.00  0.00    +0.000 F 
ATOM     50  F   UNL     1      -9.920 -14.848  14.812  0.00  0.00    +0.000 F 
ATOM     51  F   UNL     1      -8.046 -14.094  14.011  0.00  0.00    +0.000 F 
ENDBRANCH  42  48
ENDBRANCH  35  38
ENDBRANCH  30  35
ENDBRANCH  27  30
ENDBRANCH   1  27
TORSDOF 9
ENDMDL
MODEL 9
REMARK VINA RESULT:   -10.847      2.540      3.962
REMARK INTER + INTRA:         -16.756
REMARK INTER:                 -15.781
REMARK INTRA:                  -0.976
REMARK UNBOUND:                -0.836
REMARK  Name = 
REMARK  9 active torsions:
REMARK  status: ('A' for Active; 'I' for Inactive)
REMARK    1  A    between atoms: C_1  and  C_2
REMARK    2  A    between atoms: C_8  and  C_9
REMARK    3  A    between atoms: C_13  and  O_14
REMARK    4  A    between atoms: O_14  and  C_15
REMARK    5  A    between atoms: C_15  and  C_16
REMARK    6  A    between atoms: C_16  and  N_17
REMARK    7  A    between atoms: C_16  and  C_18
REMARK    8  A    between atoms: C_18  and  C_19
REMARK    9  A    between atoms: C_23  and  C_24
REMARK                            x       y       z     vdW  Elec       q    Type
REMARK                         _______ _______ _______ _____ _____    ______ ____
ROOT
ATOM      1  O   UNL     1     -10.761  -7.989  17.331  0.00  0.00    +0.000 OA
ENDROOT
BRANCH   1   6
ATOM      2  C   UNL     1      -9.720  -4.704  18.458  0.00  0.00    +0.000 A 
ATOM      3  C   UNL     1     -10.341  -3.923  17.486  0.00  0.00    +0.000 A 
ATOM      4  N   UNL     1     -11.081  -4.410  16.455  0.00  0.00    +0.000 NA
ATOM      5  C   UNL     1     -11.224  -5.755  16.391  0.00  0.00    +0.000 A 
ATOM      6  C   UNL     1     -10.676  -6.631  17.312  0.00  0.00    +0.000 A 
ATOM      7  C   UNL     1      -9.931  -6.087  18.354  0.00  0.00    +0.000 A 
ATOM      8  H   UNL     1     -10.244  -2.838  17.496  0.00  0.00    +0.000 HD
ATOM      9  H   UNL     1     -11.812  -6.092  15.544  0.00  0.00    +0.000 HD
ATOM     10  H   UNL     1      -9.515  -6.768  19.092  0.00  0.00    +0.000 HD
BRANCH   2  17
ATOM     11  C   UNL     1      -8.398  -1.386  22.078  0.00  0.00    +0.000 A 
ATOM     12  N   UNL     1      -7.285  -1.356  22.819  0.00  0.00    +0.000 NA
ATOM     13  N   UNL     1      -6.588  -2.428  22.396  0.00  0.00    +0.000 N 
ATOM     14  C   UNL     1      -7.213  -3.144  21.412  0.00  0.00    +0.000 A 
ATOM     15  C   UNL     1      -6.859  -4.289  20.718  0.00  0.00    +0.000 A 
ATOM     16  N   UNL     1      -7.708  -4.764  19.773  0.00  0.00    +0.000 NA
ATOM     17  C   UNL     1      -8.876  -4.121  19.513  0.00  0.00    +0.000 A 
ATOM     18  C   UNL     1      -9.274  -2.977  20.204  0.00  0.00    +0.000 A 
ATOM     19  C   UNL     1      -8.401  -2.479  21.177  0.00  0.00    +0.000 A 
ATOM     20  H   UNL     1      -5.690  -2.612  22.823  0.00  0.00    +0.000 HD
ATOM     21  H   UNL     1      -5.937  -4.837  20.877  0.00  0.00    +0.000 HD
ATOM     22  H   UNL     1     -10.216  -2.481  20.015  0.00  0.00    +0.000 HD
BRANCH  11  23
ATOM     23  C   UNL     1      -9.454  -0.353  22.236  0.00  0.00    +0.000 C 
ATOM     24  H   UNL     1      -9.032   0.633  22.444  0.00  0.00    +0.000 HD
ATOM     25  H   UNL     1     -10.122  -0.619  23.063  0.00  0.00    +0.000 HD
ATOM     26  H   UNL     1     -10.057  -0.280  21.324  0.00  0.00    +0.000 HD
ENDBRANCH  11  23
ENDBRANCH   2  17
ENDBRANCH   1   6
BRANCH   1  27
ATOM     27  C   UNL     1     -11.130  -8.644  16.115  0.00  0.00    +0.000 C 
ATOM     28  H   UNL     1     -11.522  -7.910  15.401  0.00  0.00    +0.000 HD
ATOM     29  H   UNL     1     -11.894  -9.407  16.316  0.00  0.00    +0.000 HD
BRANCH  27  30
ATOM     30  C   UNL     1      -9.855  -9.308  15.542  0.00  0.00    +0.000 C 
ATOM     31  H   UNL     1     -10.147 -10.226  15.017  0.00  0.00    +0.000 HD
BRANCH  30  32
ATOM     32  N   UNL     1      -9.235  -8.422  14.535  0.00  0.00    +0.000 NA
ATOM     33  H   UNL     1      -8.910  -8.971  13.741  0.00  0.00    +0.000 HD
ATOM     34  H   UNL     1      -8.390  -8.021  14.952  0.00  0.00    +0.000 HD
ENDBRANCH  30  32
BRANCH  30  35
ATOM     35  C   UNL     1      -8.885  -9.655  16.684  0.00  0.00    +0.000 C 
ATOM     36  H   UNL     1      -9.174  -9.097  17.585  0.00  0.00    +0.000 HD
ATOM     37  H   UNL     1      -7.876  -9.299  16.439  0.00  0.00    +0.000 HD
BRANCH  35  38
ATOM     38  C   UNL     1      -8.810 -11.121  17.048  0.00  0.00    +0.000 A 
ATOM     39  C   UNL     1      -8.564 -11.526  18.365  0.00  0.00    +0.000 A 
ATOM     40  C   UNL     1      -8.398 -12.879  18.669  0.00  0.00    +0.000 A 
ATOM     41  C   UNL     1      -8.460 -13.838  17.657  0.00  0.00    +0.000 A 
ATOM     42  C   UNL     1      -8.717 -13.456  16.335  0.00  0.00    +0.000 A 
ATOM     43  C   UNL     1      -8.928 -12.097  16.049  0.00  0.00    +0.000 A 
ATOM     44  H   UNL     1      -8.479 -10.791  19.162  0.00  0.00    +0.000 HD
ATOM     45  H   UNL     1      -8.194 -13.184  19.693  0.00  0.00    +0.000 HD
ATOM     46  H   UNL     1      -8.289 -14.885  17.905  0.00  0.00    +0.000 HD
ATOM     47  H   UNL     1      -9.157 -11.797  15.028  0.00  0.00    +0.000 HD
BRANCH  42  48
ATOM     48  C   UNL     1      -8.713 -14.460  15.209  0.00  0.00    +0.000 C 
ATOM     49  F   UNL     1      -9.959 -14.855  14.824  0.00  0.00    +0.000 F 
ATOM     50  F   UNL     1      -8.101 -14.001  14.084  0.00  0.00    +0.000 F 
ATOM     51  F   UNL     1      -8.054 -15.605  15.549  0.00  0.00    +0.000 F 
ENDBRANCH  42  48
ENDBRANCH  35  38
ENDBRANCH  30  35
ENDBRANCH  27  30
ENDBRANCH   1  27
TORSDOF 9
ENDMDL
