REMARK  Name = 
REMARK  10 active torsions:
REMARK  status: ('A' for Active; 'I' for Inactive)
REMARK    1  A    between atoms: C_1  and  C_2
REMARK    2  A    between atoms: C_2  and  C_3
REMARK    3  A    between atoms: C_16  and  C_17
REMARK    4  A    between atoms: C_17  and  C_18
REMARK    5  A    between atoms: C_18  and  C_19
REMARK    6  A    between atoms: C_26  and  C_27
REMARK    7  A    between atoms: C_27  and  O_28
REMARK    8  A    between atoms: O_28  and  C_29
REMARK    9  A    between atoms: C_34  and  N_35
REMARK   10  A    between atoms: C_36  and  C_37
REMARK                            x       y       z     vdW  Elec       q    Type
REMARK                         _______ _______ _______ _____ _____    ______ ____
ROOT
ATOM      1  C   UNL     1       3.621  -0.813   0.591  0.00  0.00    +0.000 A 
ATOM      2  C   UNL     1       4.422  -0.072  -0.259  0.00  0.00    +0.000 A 
ATOM      3  C   UNL     1       4.079   0.062  -1.634  0.00  0.00    +0.000 A 
ATOM      4  C   UNL     1       2.916  -0.518  -2.192  0.00  0.00    +0.000 A 
ATOM      5  C   UNL     1       2.090  -1.285  -1.402  0.00  0.00    +0.000 A 
ATOM      6  C   UNL     1       2.516  -1.391  -0.010  0.00  0.00    +0.000 A 
ATOM      7  C   UNL     1       1.552  -2.204   0.671  0.00  0.00    +0.000 C 
ATOM      8  N   UNL     1       1.015  -2.554   1.896  0.00  0.00    +0.000 N 
ATOM      9  C   UNL     1      -0.398  -2.787   1.429  0.00  0.00    +0.000 A 
ATOM     10  C   UNL     1      -0.701  -3.345   0.089  0.00  0.00    +0.000 A 
ATOM     11  C   UNL     1      -1.673  -4.341   0.128  0.00  0.00    +0.000 A 
ATOM     12  C   UNL     1      -2.374  -4.602   1.336  0.00  0.00    +0.000 A 
ATOM     13  C   UNL     1      -2.259  -3.772   2.472  0.00  0.00    +0.000 A 
ATOM     14  C   UNL     1      -1.308  -2.770   2.492  0.00  0.00    +0.000 A 
ATOM     15  C   UNL     1       0.131  -3.049  -1.297  0.00  0.00    +0.000 C 
ATOM     16  C   UNL     1       0.603  -1.812  -1.765  0.00  0.00    +0.000 C 
ATOM     17  H   UNL     1       5.309   0.420   0.133  0.00  0.00    +0.000 HD
ATOM     18  H   UNL     1       4.739   0.664  -2.254  0.00  0.00    +0.000 HD
ATOM     19  H   UNL     1       2.684  -0.332  -3.242  0.00  0.00    +0.000 HD
ATOM     20  H   UNL     1       1.763  -3.170   0.216  0.00  0.00    +0.000 HD
ATOM     21  H   UNL     1       0.786  -1.449   0.430  0.00  0.00    +0.000 HD
ATOM     22  H   UNL     1       1.068  -1.872   2.631  0.00  0.00    +0.000 HD
ATOM     23  H   UNL     1      -1.859  -4.978  -0.733  0.00  0.00    +0.000 HD
ATOM     24  H   UNL     1      -3.044  -5.460   1.390  0.00  0.00    +0.000 HD
ATOM     25  H   UNL     1      -2.879  -3.951   3.346  0.00  0.00    +0.000 HD
ATOM     26  H   UNL     1       0.792  -3.914  -1.421  0.00  0.00    +0.000 HD
ENDROOT
BRANCH   1  27
ATOM     27  C   UNL     1       3.853  -0.956   2.077  0.00  0.00    +0.000 C 
ATOM     28  H   UNL     1       3.615  -1.981   2.397  0.00  0.00    +0.000 HD
ATOM     29  H   UNL     1       4.916  -0.829   2.307  0.00  0.00    +0.000 HD
BRANCH  27  30
ATOM     30  C   UNL     1       3.032   0.029   2.912  0.00  0.00    +0.000 C 
ATOM     31  H   UNL     1       3.321  -0.032   3.966  0.00  0.00    +0.000 HD
ATOM     32  H   UNL     1       1.958  -0.175   2.870  0.00  0.00    +0.000 HD
ATOM     33  H   UNL     1       3.167   1.056   2.570  0.00  0.00    +0.000 HD
ENDBRANCH  27  30
ENDBRANCH   1  27
BRANCH  14  34
ATOM     34  C   UNL     1      -1.226  -1.650   3.527  0.00  0.00    +0.000 C 
ATOM     35  H   UNL     1      -0.248  -1.661   4.026  0.00  0.00    +0.000 HD
ATOM     36  H   UNL     1      -1.965  -1.803   4.317  0.00  0.00    +0.000 HD
BRANCH  34  37
ATOM     37  C   UNL     1      -1.448  -0.261   2.850  0.00  0.00    +0.000 C 
ATOM     38  H   UNL     1      -2.488  -0.215   2.499  0.00  0.00    +0.000 HD
ATOM     39  H   UNL     1      -0.821  -0.196   1.950  0.00  0.00    +0.000 HD
BRANCH  37  40
ATOM     40  C   UNL     1      -1.184   1.013   3.636  0.00  0.00    +0.000 A 
ATOM     41  C   UNL     1      -0.970   2.211   2.922  0.00  0.00    +0.000 A 
ATOM     42  C   UNL     1      -0.754   3.426   3.581  0.00  0.00    +0.000 A 
ATOM     43  C   UNL     1      -0.754   3.466   4.971  0.00  0.00    +0.000 A 
ATOM     44  C   UNL     1      -0.975   2.294   5.694  0.00  0.00    +0.000 A 
ATOM     45  C   UNL     1      -1.192   1.076   5.033  0.00  0.00    +0.000 A 
ATOM     46  H   UNL     1      -0.976   2.215   1.831  0.00  0.00    +0.000 HD
ATOM     47  H   UNL     1      -0.594   4.339   3.009  0.00  0.00    +0.000 HD
ATOM     48  H   UNL     1      -0.601   4.410   5.491  0.00  0.00    +0.000 HD
ATOM     49  H   UNL     1      -0.994   2.329   6.781  0.00  0.00    +0.000 HD
ATOM     50  H   UNL     1      -1.379   0.190   5.631  0.00  0.00    +0.000 HD
ENDBRANCH  37  40
ENDBRANCH  34  37
ENDBRANCH  14  34
BRANCH  16  51
ATOM     51  C   UNL     1      -0.399  -0.644  -1.840  0.00  0.00    +0.000 C 
ATOM     52  H   UNL     1      -0.181   0.097  -1.062  0.00  0.00    +0.000 HD
ATOM     53  H   UNL     1      -1.363  -1.114  -1.636  0.00  0.00    +0.000 HD
BRANCH  51  54
ATOM     54  O   UNL     1      -0.466   0.053  -3.112  0.00  0.00    +0.000 OA
BRANCH  54  55
ATOM     55  C   UNL     1      -1.546   0.936  -3.222  0.00  0.00    +0.000 A 
ATOM     56  C   UNL     1      -2.698   0.825  -2.417  0.00  0.00    +0.000 A 
ATOM     57  C   UNL     1      -3.776   1.704  -2.544  0.00  0.00    +0.000 A 
ATOM     58  C   UNL     1      -3.738   2.714  -3.484  0.00  0.00    +0.000 A 
ATOM     59  C   UNL     1      -2.619   2.838  -4.304  0.00  0.00    +0.000 A 
ATOM     60  C   UNL     1      -1.510   1.971  -4.199  0.00  0.00    +0.000 A 
ATOM     61  H   UNL     1      -2.829   0.042  -1.673  0.00  0.00    +0.000 HD
ATOM     62  H   UNL     1      -4.649   1.582  -1.926  0.00  0.00    +0.000 HD
ATOM     63  H   UNL     1      -4.571   3.403  -3.590  0.00  0.00    +0.000 HD
ATOM     64  H   UNL     1      -2.657   3.644  -5.031  0.00  0.00    +0.000 HD
BRANCH  60  65
ATOM     65  N   UNL     1      -0.388   2.129  -5.056  0.00  0.00    +0.000 N 
ATOM     66  C   UNL     1      -0.195   3.148  -5.987  0.00  0.00    +0.000 C 
ATOM     67  O   UNL     1      -0.935   4.105  -6.203  0.00  0.00    +0.000 OA
ATOM     68  H   UNL     1       0.340   1.434  -4.940  0.00  0.00    +0.000 HD
BRANCH  66  69
ATOM     69  C   UNL     1       1.091   3.040  -6.765  0.00  0.00    +0.000 C 
ATOM     70  H   UNL     1       1.285   2.010  -7.072  0.00  0.00    +0.000 HD
ATOM     71  H   UNL     1       1.915   3.427  -6.160  0.00  0.00    +0.000 HD
ATOM     72  H   UNL     1       1.008   3.652  -7.671  0.00  0.00    +0.000 HD
ENDBRANCH  66  69
ENDBRANCH  60  65
ENDBRANCH  54  55
ENDBRANCH  51  54
ENDBRANCH  16  51
TORSDOF 10
