REMARK  Name = 
REMARK  2 active torsions:
REMARK  status: ('A' for Active; 'I' for Inactive)
REMARK    1  A    between atoms: C_1  and  C_2
REMARK    2  A    between atoms: N_14  and  C_15
REMARK                            x       y       z     vdW  Elec       q    Type
REMARK                         _______ _______ _______ _____ _____    ______ ____
ROOT
ATOM      1  C   UNL     1      -4.232   2.674  -0.063  0.00  0.00    +0.000 A 
ATOM      2  C   UNL     1      -3.538   3.883  -0.038  0.00  0.00    +0.000 A 
ATOM      3  C   UNL     1      -2.151   3.906  -0.031  0.00  0.00    +0.000 A 
ATOM      4  C   UNL     1      -1.478   2.681  -0.047  0.00  0.00    +0.000 A 
ATOM      5  N   UNL     1      -0.118   2.483  -0.008  0.00  0.00    +0.000 N 
ATOM      6  C   UNL     1       0.197   1.148  -0.010  0.00  0.00    +0.000 A 
ATOM      7  C   UNL     1       1.433   0.484   0.098  0.00  0.00    +0.000 A 
ATOM      8  C   UNL     1       2.532   1.311   0.316  0.00  0.00    +0.000 A 
ATOM      9  C   UNL     1       3.761   0.751   0.567  0.00  0.00    +0.000 A 
ATOM     10  C   UNL     1       3.927  -0.624   0.385  0.00  0.00    +0.000 A 
ATOM     11  C   UNL     1       5.098  -1.398   0.521  0.00  0.00    +0.000 A 
ATOM     12  C   UNL     1       4.892  -2.416  -0.357  0.00  0.00    +0.000 A 
ATOM     13  N   UNL     1       3.527  -2.653  -0.303  0.00  0.00    +0.000 N 
ATOM     14  C   UNL     1       2.851  -1.474  -0.001  0.00  0.00    +0.000 A 
ATOM     15  C   UNL     1       1.504  -0.956   0.010  0.00  0.00    +0.000 A 
ATOM     16  C   UNL     1       0.237  -1.580  -0.043  0.00  0.00    +0.000 A 
ATOM     17  C   UNL     1      -1.041  -0.885  -0.126  0.00  0.00    +0.000 A 
ATOM     18  C   UNL     1      -1.010   0.532  -0.107  0.00  0.00    +0.000 A 
ATOM     19  C   UNL     1      -2.110   1.429  -0.092  0.00  0.00    +0.000 A 
ATOM     20  C   UNL     1      -3.524   1.444  -0.094  0.00  0.00    +0.000 A 
ATOM     21  C   UNL     1      -2.109  -1.824  -0.157  0.00  0.00    +0.000 C 
ATOM     22  O   UNL     1      -3.336  -1.749  -0.137  0.00  0.00    +0.000 OA
ATOM     23  N   UNL     1      -1.458  -3.032  -0.138  0.00  0.00    +0.000 N 
ATOM     24  C   UNL     1      -0.101  -2.968   0.102  0.00  0.00    +0.000 C 
ATOM     25  O   UNL     1       0.497  -3.956   0.515  0.00  0.00    +0.000 OA
ATOM     26  H   UNL     1      -4.072   4.830  -0.015  0.00  0.00    +0.000 HD
ATOM     27  H   UNL     1      -1.613   4.850  -0.002  0.00  0.00    +0.000 HD
ATOM     28  H   UNL     1       0.549   3.233   0.031  0.00  0.00    +0.000 HD
ATOM     29  H   UNL     1       2.462   2.392   0.353  0.00  0.00    +0.000 HD
ATOM     30  H   UNL     1       4.616   1.378   0.796  0.00  0.00    +0.000 HD
ATOM     31  H   UNL     1       6.042  -1.113   0.959  0.00  0.00    +0.000 HD
ATOM     32  H   UNL     1       5.579  -3.114  -0.823  0.00  0.00    +0.000 HD
ATOM     33  H   UNL     1      -4.092   0.512  -0.105  0.00  0.00    +0.000 HD
ATOM     34  H   UNL     1      -1.962  -3.874   0.003  0.00  0.00    +0.000 HD
ENDROOT
BRANCH   1  35
ATOM     35  C   UNL     1      -5.736   2.707  -0.044  0.00  0.00    +0.000 C 
ATOM     36  H   UNL     1      -6.107   3.740  -0.042  0.00  0.00    +0.000 HD
ATOM     37  H   UNL     1      -6.115   2.222   0.859  0.00  0.00    +0.000 HD
ATOM     38  H   UNL     1      -6.140   2.216  -0.933  0.00  0.00    +0.000 HD
ENDBRANCH   1  35
BRANCH  13  39
ATOM     39  C   UNL     1       3.128  -4.037  -0.428  0.00  0.00    +0.000 C 
ATOM     40  H   UNL     1       2.175  -4.138  -0.927  0.00  0.00    +0.000 HD
ATOM     41  H   UNL     1       3.162  -4.456   0.584  0.00  0.00    +0.000 HD
ATOM     42  H   UNL     1       3.876  -4.564  -1.031  0.00  0.00    +0.000 HD
ENDBRANCH  13  39
TORSDOF 2
