
 OpenBabel01112422413D

 52 56  0  0  0  0  0  0  0  0999 V2000
    2.3622    0.5644   -1.2265 O   0  0  0  0  0  0  0  0  0  0  0  0
    3.6972    1.1416   -1.0939 S   0  0  0  0  0  0  0  0  0  0  0  0
    4.8719    0.3022   -1.0239 O   0  0  0  0  0  0  0  0  0  0  0  0
    3.9548    2.2638   -2.4352 C   0  0  0  0  0  0  0  0  0  0  0  0
    2.9965    2.3691   -3.4496 C   0  0  0  0  0  0  0  0  0  0  0  0
    3.2198    3.2501   -4.5140 C   0  0  0  0  0  0  0  0  0  0  0  0
    4.3912    4.0104   -4.5585 C   0  0  0  0  0  0  0  0  0  0  0  0
    5.3441    3.8973   -3.5478 C   0  0  0  0  0  0  0  0  0  0  0  0
    5.1338    3.0168   -2.4830 C   0  0  0  0  0  0  0  0  0  0  0  0
    3.6415    2.0955    0.4195 C   0  0  0  0  0  0  0  0  0  0  0  0
    4.4707    1.7390    1.4807 C   0  0  0  0  0  0  0  0  0  0  0  0
    4.4765    2.5173    2.6337 C   0  0  0  0  0  0  0  0  0  0  0  0
    3.6689    3.6597    2.7224 C   0  0  0  0  0  0  0  0  0  0  0  0
    3.7735    4.5492    3.9355 C   0  0  0  0  0  0  0  0  0  0  0  0
    4.5639    5.7363    3.6422 N   0  0  0  0  0  0  0  0  0  0  0  0
    4.0315    7.0066    3.5045 C   0  0  0  0  0  0  0  0  0  0  0  0
    2.7409    7.5051    3.3041 C   0  0  0  0  0  0  0  0  0  0  0  0
    2.5229    8.7785    3.8171 C   0  0  0  0  0  0  0  0  0  0  0  0
    1.2984    9.3749    3.7009 O   0  0  0  0  0  0  0  0  0  0  0  0
    3.5168    9.4608    4.5109 C   0  0  0  0  0  0  0  0  0  0  0  0
    3.1792   10.5267    5.2940 O   0  0  0  0  0  0  0  0  0  0  0  0
    4.8466    9.0707    4.4176 C   0  0  0  0  0  0  0  0  0  0  0  0
    5.1047    7.8474    3.7805 C   0  0  0  0  0  0  0  0  0  0  0  0
    6.2209    7.1462    3.2658 C   0  0  0  0  0  0  0  0  0  0  0  0
    7.4603    7.4740    2.6839 C   0  0  0  0  0  0  0  0  0  0  0  0
    8.4364    6.4803    2.5637 C   0  0  0  0  0  0  0  0  0  0  0  0
    8.2401    5.2651    3.2056 C   0  0  0  0  0  0  0  0  0  0  0  0
    9.2625    4.3647    3.3420 O   0  0  0  0  0  0  0  0  0  0  0  0
    6.9959    4.9165    3.7437 C   0  0  0  0  0  0  0  0  0  0  0  0
    6.8679    3.7689    4.4809 O   0  0  0  0  0  0  0  0  0  0  0  0
    5.9420    5.8125    3.5688 C   0  0  0  0  0  0  0  0  0  0  0  0
    2.8141    3.9829    1.6607 C   0  0  0  0  0  0  0  0  0  0  0  0
    2.7983    3.2049    0.5038 C   0  0  0  0  0  0  0  0  0  0  0  0
    2.0832    1.7849   -3.4195 H   0  0  0  0  0  0  0  0  0  0  0  0
    2.4789    3.3421   -5.3020 H   0  0  0  0  0  0  0  0  0  0  0  0
    4.5587    4.6909   -5.3892 H   0  0  0  0  0  0  0  0  0  0  0  0
    6.2563    4.4890   -3.5950 H   0  0  0  0  0  0  0  0  0  0  0  0
    5.8895    2.9278   -1.7067 H   0  0  0  0  0  0  0  0  0  0  0  0
    5.1241    0.8714    1.4207 H   0  0  0  0  0  0  0  0  0  0  0  0
    5.1390    2.2418    3.4528 H   0  0  0  0  0  0  0  0  0  0  0  0
    4.2307    4.0440    4.7928 H   0  0  0  0  0  0  0  0  0  0  0  0
    2.7752    4.8662    4.2617 H   0  0  0  0  0  0  0  0  0  0  0  0
    1.9478    6.9135    2.8689 H   0  0  0  0  0  0  0  0  0  0  0  0
    1.0000    9.1949    2.7900 H   0  0  0  0  0  0  0  0  0  0  0  0
    2.2009   10.5113    5.3113 H   0  0  0  0  0  0  0  0  0  0  0  0
    5.6362    9.6254    4.9117 H   0  0  0  0  0  0  0  0  0  0  0  0
    7.6244    8.4668    2.2747 H   0  0  0  0  0  0  0  0  0  0  0  0
    9.3563    6.7020    2.0330 H   0  0  0  0  0  0  0  0  0  0  0  0
   10.0502    4.7417    2.9129 H   0  0  0  0  0  0  0  0  0  0  0  0
    7.7939    3.5056    4.6613 H   0  0  0  0  0  0  0  0  0  0  0  0
    2.1661    4.8541    1.7172 H   0  0  0  0  0  0  0  0  0  0  0  0
    2.1380    3.4735   -0.3164 H   0  0  0  0  0  0  0  0  0  0  0  0
  1  2  2  0  0  0  0
  2  3  2  0  0  0  0
  2  4  1  0  0  0  0
  2 10  1  0  0  0  0
  4  5  1  0  0  0  0
  4  9  2  0  0  0  0
  5  6  2  0  0  0  0
  5 34  1  0  0  0  0
  6  7  1  0  0  0  0
  6 35  1  0  0  0  0
  7  8  2  0  0  0  0
  7 36  1  0  0  0  0
  8  9  1  0  0  0  0
  8 37  1  0  0  0  0
  9 38  1  0  0  0  0
 10 11  1  0  0  0  0
 10 33  2  0  0  0  0
 11 12  2  0  0  0  0
 11 39  1  0  0  0  0
 12 13  1  0  0  0  0
 12 40  1  0  0  0  0
 13 14  1  0  0  0  0
 13 32  2  0  0  0  0
 14 15  1  0  0  0  0
 14 41  1  0  0  0  0
 14 42  1  0  0  0  0
 15 16  1  0  0  0  0
 15 31  1  0  0  0  0
 16 17  1  0  0  0  0
 16 23  2  0  0  0  0
 17 18  2  0  0  0  0
 17 43  1  0  0  0  0
 18 19  1  0  0  0  0
 18 20  1  0  0  0  0
 19 44  1  0  0  0  0
 20 21  1  0  0  0  0
 20 22  2  0  0  0  0
 21 45  1  0  0  0  0
 22 23  1  0  0  0  0
 22 46  1  0  0  0  0
 23 24  1  0  0  0  0
 24 25  1  0  0  0  0
 24 31  2  0  0  0  0
 25 26  2  0  0  0  0
 25 47  1  0  0  0  0
 26 27  1  0  0  0  0
 26 48  1  0  0  0  0
 27 28  1  0  0  0  0
 27 29  2  0  0  0  0
 28 49  1  0  0  0  0
 29 30  1  0  0  0  0
 29 31  1  0  0  0  0
 30 50  1  0  0  0  0
 32 33  1  0  0  0  0
 32 51  1  0  0  0  0
 33 52  1  0  0  0  0
M  END
$$$$
