REMARK  Name = 
REMARK  13 active torsions:
REMARK  status: ('A' for Active; 'I' for Inactive)
REMARK    1  A    between atoms: C_1  and  O_2
REMARK    2  A    between atoms: O_2  and  C_3
REMARK    3  A    between atoms: C_3  and  C_5
REMARK    4  A    between atoms: C_5  and  O_6
REMARK    5  A    between atoms: O_6  and  C_7
REMARK    6  A    between atoms: C_11  and  N_12
REMARK    7  A    between atoms: C_13  and  C_15
REMARK    8  A    between atoms: C_15  and  C_16
REMARK    9  A    between atoms: C_16  and  N_17
REMARK   10  A    between atoms: N_17  and  C_18
REMARK   11  A    between atoms: N_17  and  C_19
REMARK   12  A    between atoms: N_22  and  C_23
REMARK   13  A    between atoms: C_30  and  C_31
REMARK                            x       y       z     vdW  Elec       q    Type
REMARK                         _______ _______ _______ _____ _____    ______ ____
ROOT
ATOM      1  C   UNL     1       0.036   0.855  -0.838  0.00  0.00    +0.000 C 
ATOM      2  C   UNL     1      -0.261   2.362  -1.154  0.00  0.00    +0.000 C 
ATOM      3  C   UNL     1      -1.720   2.650  -1.526  0.00  0.00    +0.000 C 
ATOM      4  N   UNL     1      -2.035   1.751  -2.620  0.00  0.00    +0.000 N 
ATOM      5  C   UNL     1      -2.168   0.378  -2.160  0.00  0.00    +0.000 C 
ATOM      6  C   UNL     1      -0.773  -0.099  -1.756  0.00  0.00    +0.000 C 
ATOM      7  H   UNL     1       0.376   2.652  -1.993  0.00  0.00    +0.000 HD
ATOM      8  H   UNL     1       0.029   3.006  -0.315  0.00  0.00    +0.000 HD
ATOM      9  H   UNL     1      -1.880   3.698  -1.767  0.00  0.00    +0.000 HD
ATOM     10  H   UNL     1      -2.392   2.466  -0.680  0.00  0.00    +0.000 HD
ATOM     11  H   UNL     1      -2.538  -0.310  -2.928  0.00  0.00    +0.000 HD
ATOM     12  H   UNL     1      -2.859   0.311  -1.310  0.00  0.00    +0.000 HD
ATOM     13  H   UNL     1      -0.210  -0.238  -2.692  0.00  0.00    +0.000 HD
ATOM     14  H   UNL     1      -0.905  -1.072  -1.286  0.00  0.00    +0.000 HD
ENDROOT
BRANCH   4  15
ATOM     15  C   UNL     1      -2.730   2.167  -3.745  0.00  0.00    +0.000 A 
ATOM     16  N   UNL     1      -3.666   1.302  -4.246  0.00  0.00    +0.000 NA
ATOM     17  C   UNL     1      -4.324   1.592  -5.377  0.00  0.00    +0.000 A 
ATOM     18  N   UNL     1      -4.193   2.678  -6.141  0.00  0.00    +0.000 NA
ATOM     19  C   UNL     1      -3.264   3.510  -5.651  0.00  0.00    +0.000 A 
ATOM     20  N   UNL     1      -2.919   4.670  -6.275  0.00  0.00    +0.000 N 
ATOM     21  C   UNL     1      -1.915   5.280  -5.593  0.00  0.00    +0.000 A 
ATOM     22  C   UNL     1      -1.587   4.494  -4.502  0.00  0.00    +0.000 A 
ATOM     23  C   UNL     1      -2.490   3.349  -4.502  0.00  0.00    +0.000 A 
ATOM     24  H   UNL     1      -5.043   0.851  -5.717  0.00  0.00    +0.000 HD
ATOM     25  H   UNL     1      -3.338   4.982  -7.137  0.00  0.00    +0.000 HD
ATOM     26  H   UNL     1      -1.483   6.207  -5.951  0.00  0.00    +0.000 HD
BRANCH  22  27
ATOM     27  C   UNL     1      -0.460   4.831  -3.596  0.00  0.00    +0.000 C 
ATOM     28  H   UNL     1       0.152   5.637  -4.009  0.00  0.00    +0.000 HD
ATOM     29  H   UNL     1       0.199   3.973  -3.481  0.00  0.00    +0.000 HD
ATOM     30  H   UNL     1      -0.815   5.184  -2.623  0.00  0.00    +0.000 HD
ENDBRANCH  22  27
ENDBRANCH   4  15
BRANCH   1  32
ATOM     31  N   UNL     1       0.316  -0.372   1.275  0.00  0.00    +0.000 N 
ATOM     32  C   UNL     1      -0.368   0.637   0.635  0.00  0.00    +0.000 C 
ATOM     33  O   UNL     1      -1.287   1.280   1.139  0.00  0.00    +0.000 OA
ATOM     34  H   UNL     1       1.018  -0.862   0.716  0.00  0.00    +0.000 HD
BRANCH  31  39
ATOM     35  C   UNL     1       1.000  -2.256   4.369  0.00  0.00    +0.000 A 
ATOM     36  C   UNL     1       0.365  -1.474   5.333  0.00  0.00    +0.000 A 
ATOM     37  C   UNL     1      -0.322  -0.321   4.950  0.00  0.00    +0.000 A 
ATOM     38  C   UNL     1      -0.379   0.051   3.606  0.00  0.00    +0.000 A 
ATOM     39  C   UNL     1       0.277  -0.710   2.639  0.00  0.00    +0.000 A 
ATOM     40  C   UNL     1       0.978  -1.855   3.032  0.00  0.00    +0.000 A 
ATOM     41  H   UNL     1       0.403  -1.714   6.388  0.00  0.00    +0.000 HD
ATOM     42  H   UNL     1      -0.805   0.300   5.699  0.00  0.00    +0.000 HD
ATOM     43  H   UNL     1      -0.911   0.962   3.353  0.00  0.00    +0.000 HD
ATOM     44  H   UNL     1       1.499  -2.461   2.294  0.00  0.00    +0.000 HD
BRANCH  35  45
ATOM     45  O   UNL     1       1.706  -3.400   4.620  0.00  0.00    +0.000 OA
BRANCH  45  46
ATOM     46  C   UNL     1       1.323  -4.124   5.784  0.00  0.00    +0.000 C 
ATOM     47  H   UNL     1       1.514  -3.531   6.684  0.00  0.00    +0.000 HD
ATOM     48  H   UNL     1       0.267  -4.414   5.711  0.00  0.00    +0.000 HD
BRANCH  46  49
ATOM     49  C   UNL     1       2.150  -5.393   5.917  0.00  0.00    +0.000 C 
ATOM     50  O   UNL     1       3.026  -5.771   5.151  0.00  0.00    +0.000 OA
BRANCH  49  51
ATOM     51  O   UNL     1       1.780  -6.051   7.059  0.00  0.00    +0.000 OA
BRANCH  51  52
ATOM     52  C   UNL     1       2.543  -7.230   7.319  0.00  0.00    +0.000 C 
ATOM     53  H   UNL     1       2.141  -7.700   8.220  0.00  0.00    +0.000 HD
ATOM     54  H   UNL     1       3.590  -6.970   7.501  0.00  0.00    +0.000 HD
ATOM     55  H   UNL     1       2.456  -7.940   6.490  0.00  0.00    +0.000 HD
ENDBRANCH  51  52
ENDBRANCH  49  51
ENDBRANCH  46  49
ENDBRANCH  45  46
ENDBRANCH  35  45
ENDBRANCH  31  39
ENDBRANCH   1  32
BRANCH   1  56
ATOM     56  C   UNL     1       1.590   0.648  -1.048  0.00  0.00    +0.000 C 
ATOM     57  H   UNL     1       2.073   1.407  -0.413  0.00  0.00    +0.000 HD
ATOM     58  H   UNL     1       1.852   0.908  -2.083  0.00  0.00    +0.000 HD
BRANCH  56  59
ATOM     59  N   UNL     1       2.227  -0.654  -0.699  0.00  0.00    +0.000 NA
BRANCH  59  60
ATOM     60  C   UNL     1       1.867  -1.788  -1.557  0.00  0.00    +0.000 C 
ATOM     61  H   UNL     1       0.805  -2.017  -1.535  0.00  0.00    +0.000 HD
ATOM     62  H   UNL     1       2.339  -2.700  -1.172  0.00  0.00    +0.000 HD
ATOM     63  H   UNL     1       2.177  -1.649  -2.598  0.00  0.00    +0.000 HD
ENDBRANCH  59  60
BRANCH  59  64
ATOM     64  C   UNL     1       3.696  -0.511  -0.789  0.00  0.00    +0.000 C 
ATOM     65  H   UNL     1       4.060   0.311  -0.164  0.00  0.00    +0.000 HD
ATOM     66  H   UNL     1       4.023  -0.331  -1.821  0.00  0.00    +0.000 HD
ATOM     67  H   UNL     1       4.188  -1.423  -0.430  0.00  0.00    +0.000 HD
ENDBRANCH  59  64
ENDBRANCH  56  59
ENDBRANCH   1  56
TORSDOF 13
