REMARK  Name = 
REMARK  5 active torsions:
REMARK  status: ('A' for Active; 'I' for Inactive)
REMARK    1  A    between atoms: O_1  and  C_2
REMARK    2  A    between atoms: C_6  and  O_7
REMARK    3  A    between atoms: C_9  and  O_10
REMARK    4  A    between atoms: C_11  and  O_12
REMARK    5  A    between atoms: C_18  and  O_19
REMARK                            x       y       z     vdW  Elec       q    Type
REMARK                         _______ _______ _______ _____ _____    ______ ____
ROOT
ATOM      1  C   UNL     1      -3.579   0.340   0.000  0.00  0.00    +0.000 A 
ATOM      2  C   UNL     1      -2.834  -0.835   0.000  0.00  0.00    +0.000 A 
ATOM      3  C   UNL     1      -1.444  -0.810   0.000  0.00  0.00    +0.000 A 
ATOM      4  N   UNL     1      -0.811  -1.989   0.000  0.00  0.00    +0.000 NA
ATOM      5  C   UNL     1       0.528  -1.960  -0.000  0.00  0.00    +0.000 A 
ATOM      6  C   UNL     1       1.343  -0.828  -0.001  0.00  0.00    +0.000 A 
ATOM      7  C   UNL     1       2.758  -0.865  -0.001  0.00  0.00    +0.000 A 
ATOM      8  C   UNL     1       3.504   0.307  -0.001  0.00  0.00    +0.000 A 
ATOM      9  C   UNL     1       2.879   1.536   0.000  0.00  0.00    +0.000 A 
ATOM     10  C   UNL     1       1.483   1.588   0.000  0.00  0.00    +0.000 A 
ATOM     11  C   UNL     1       0.675   0.417  -0.000  0.00  0.00    +0.000 A 
ATOM     12  C   UNL     1      -0.763   0.434  -0.000  0.00  0.00    +0.000 A 
ATOM     13  C   UNL     1      -1.544   1.618  -0.001  0.00  0.00    +0.000 A 
ATOM     14  C   UNL     1      -2.935   1.567  -0.000  0.00  0.00    +0.000 A 
ATOM     15  H   UNL     1      -3.333  -1.800   0.001  0.00  0.00    +0.000 HD
ATOM     16  H   UNL     1       3.467   2.449   0.001  0.00  0.00    +0.000 HD
ATOM     17  H   UNL     1       1.036   2.579   0.001  0.00  0.00    +0.000 HD
ATOM     18  H   UNL     1      -1.066   2.591  -0.002  0.00  0.00    +0.000 HD
ENDROOT
BRANCH   1  19
ATOM     19  O   UNL     1      -4.945   0.300   0.001  0.00  0.00    +0.000 OA
ATOM     20  H   UNL     1      -5.243  -0.624   0.003  0.00  0.00    +0.000 HD
ENDBRANCH   1  19
BRANCH   5  21
ATOM     21  O   UNL     1       1.073  -3.212   0.000  0.00  0.00    +0.000 OA
ATOM     22  H   UNL     1       0.252  -3.742   0.002  0.00  0.00    +0.000 HD
ENDBRANCH   5  21
BRANCH   7  23
ATOM     23  O   UNL     1       3.479  -2.036  -0.001  0.00  0.00    +0.000 OA
ATOM     24  H   UNL     1       2.833  -2.774  -0.002  0.00  0.00    +0.000 HD
ENDBRANCH   7  23
BRANCH   8  25
ATOM     25  O   UNL     1       4.868   0.254  -0.000  0.00  0.00    +0.000 OA
ATOM     26  H   UNL     1       5.074  -0.703  -0.001  0.00  0.00    +0.000 HD
ENDBRANCH   8  25
BRANCH  14  27
ATOM     27  O   UNL     1      -3.673   2.715  -0.001  0.00  0.00    +0.000 OA
ATOM     28  H   UNL     1      -3.083   3.484   0.000  0.00  0.00    +0.000 HD
ENDBRANCH  14  27
TORSDOF 5
