
 OpenBabel01112422493D

 42 43  0  0  0  0  0  0  0  0999 V2000
    1.1566   -0.1886    0.0039 C   0  0  0  0  0  0  0  0  0  0  0  0
    2.5862   -0.1614   -0.0151 O   0  0  0  0  0  0  0  0  0  0  0  0
    3.1096    0.1966   -1.2206 C   0  0  0  0  0  0  0  0  0  0  0  0
    2.4430    0.4734   -2.2137 O   0  0  0  0  0  0  0  0  0  0  0  0
    4.6171    0.1934   -1.1664 C   0  0  0  0  0  0  0  0  0  0  0  0
    5.1877    0.5973   -2.5283 C   0  0  0  0  0  0  0  0  0  0  0  0
    6.6554    0.6054   -2.5188 N   0  0  0  0  0  0  0  0  0  0  0  0
    7.1898    0.9961   -3.8344 C   0  0  0  0  0  0  0  0  0  0  0  0
    8.7239    0.9994   -3.8060 C   0  0  0  0  0  0  0  0  0  0  0  0
    9.3000    1.4014   -5.1104 N   0  0  0  0  0  0  0  0  0  0  0  0
   11.0048    1.4041   -5.1178 S   0  0  0  0  0  0  0  0  0  0  0  0
   11.4321    2.3055   -6.1584 O   0  0  0  0  0  0  0  0  0  0  0  0
   11.4241    1.6040   -3.7419 O   0  0  0  0  0  0  0  0  0  0  0  0
   11.4387   -0.2584   -5.6022 C   0  0  0  0  0  0  0  0  0  0  0  0
   12.1831   -1.0142   -4.6782 C   0  0  0  0  0  0  0  0  0  0  0  0
   12.6150   -2.2951   -5.0029 C   0  0  0  0  0  0  0  0  0  0  0  0
   12.3015   -2.8321   -6.2472 C   0  0  0  0  0  0  0  0  0  0  0  0
   11.5565   -2.0920   -7.1835 C   0  0  0  0  0  0  0  0  0  0  0  0
   11.2481   -2.6327   -8.4354 C   0  0  0  0  0  0  0  0  0  0  0  0
   10.5525   -1.9950   -9.4014 N   0  0  0  0  0  0  0  0  0  0  0  0
   10.1461   -0.7470   -9.1147 C   0  0  0  0  0  0  0  0  0  0  0  0
   10.3897   -0.1139   -7.9034 C   0  0  0  0  0  0  0  0  0  0  0  0
   11.1111   -0.7820   -6.8863 C   0  0  0  0  0  0  0  0  0  0  0  0
    0.8312   -0.4870    1.0043 H   0  0  0  0  0  0  0  0  0  0  0  0
    0.7777   -0.9221   -0.7155 H   0  0  0  0  0  0  0  0  0  0  0  0
    0.7508    0.8059   -0.2095 H   0  0  0  0  0  0  0  0  0  0  0  0
    4.9530   -0.8138   -0.8946 H   0  0  0  0  0  0  0  0  0  0  0  0
    4.9392    0.9010   -0.3927 H   0  0  0  0  0  0  0  0  0  0  0  0
    4.8177    1.5969   -2.7882 H   0  0  0  0  0  0  0  0  0  0  0  0
    4.8266   -0.1006   -3.2936 H   0  0  0  0  0  0  0  0  0  0  0  0
    6.9990   -0.3261   -2.2792 H   0  0  0  0  0  0  0  0  0  0  0  0
    6.8338    1.9999   -4.0986 H   0  0  0  0  0  0  0  0  0  0  0  0
    6.8399    0.3054   -4.6097 H   0  0  0  0  0  0  0  0  0  0  0  0
    9.0886   -0.0005   -3.5464 H   0  0  0  0  0  0  0  0  0  0  0  0
    9.0619    1.7150   -3.0514 H   0  0  0  0  0  0  0  0  0  0  0  0
    8.9490    2.2870   -5.4730 H   0  0  0  0  0  0  0  0  0  0  0  0
   12.4508   -0.6034   -3.7050 H   0  0  0  0  0  0  0  0  0  0  0  0
   13.2038   -2.8712   -4.2925 H   0  0  0  0  0  0  0  0  0  0  0  0
   12.6505   -3.8349   -6.4887 H   0  0  0  0  0  0  0  0  0  0  0  0
   11.5672   -3.6352   -8.7104 H   0  0  0  0  0  0  0  0  0  0  0  0
    9.6036   -0.2400   -9.9079 H   0  0  0  0  0  0  0  0  0  0  0  0
   10.0191    0.8985   -7.7850 H   0  0  0  0  0  0  0  0  0  0  0  0
  1  2  1  0  0  0  0
  1 24  1  0  0  0  0
  1 25  1  0  0  0  0
  1 26  1  0  0  0  0
  2  3  1  0  0  0  0
  3  4  2  0  0  0  0
  3  5  1  0  0  0  0
  5  6  1  0  0  0  0
  5 27  1  0  0  0  0
  5 28  1  0  0  0  0
  6  7  1  0  0  0  0
  6 29  1  0  0  0  0
  6 30  1  0  0  0  0
  7  8  1  0  0  0  0
  7 31  1  0  0  0  0
  8  9  1  0  0  0  0
  8 32  1  0  0  0  0
  8 33  1  0  0  0  0
  9 10  1  0  0  0  0
  9 34  1  0  0  0  0
  9 35  1  0  0  0  0
 10 11  1  0  0  0  0
 10 36  1  0  0  0  0
 11 12  2  0  0  0  0
 11 13  2  0  0  0  0
 11 14  1  0  0  0  0
 14 15  1  0  0  0  0
 14 23  2  0  0  0  0
 15 16  2  0  0  0  0
 15 37  1  0  0  0  0
 16 17  1  0  0  0  0
 16 38  1  0  0  0  0
 17 18  2  0  0  0  0
 17 39  1  0  0  0  0
 18 19  1  0  0  0  0
 18 23  1  0  0  0  0
 19 20  2  0  0  0  0
 19 40  1  0  0  0  0
 20 21  1  0  0  0  0
 21 22  2  0  0  0  0
 21 41  1  0  0  0  0
 22 23  1  0  0  0  0
 22 42  1  0  0  0  0
M  END
$$$$
