REMARK  Name = 
REMARK  13 active torsions:
REMARK  status: ('A' for Active; 'I' for Inactive)
REMARK    1  A    between atoms: C_2  and  C_32
REMARK    2  A    between atoms: N_3  and  C_4
REMARK    3  A    between atoms: C_8  and  O_9
REMARK    4  A    between atoms: O_9  and  C_10
REMARK    5  A    between atoms: C_10  and  C_12
REMARK    6  A    between atoms: C_14  and  O_15
REMARK    7  A    between atoms: C_16  and  C_17
REMARK    8  A    between atoms: C_17  and  C_19
REMARK    9  A    between atoms: C_20  and  O_21
REMARK   10  A    between atoms: C_25  and  C_26
REMARK   11  A    between atoms: C_26  and  O_28
REMARK   12  A    between atoms: C_29  and  O_30
REMARK   13  A    between atoms: C_35  and  O_36
REMARK                            x       y       z     vdW  Elec       q    Type
REMARK                         _______ _______ _______ _____ _____    ______ ____
ROOT
ATOM      1  C   UNL     1       0.966   0.547   1.190  0.00  0.00    +0.000 C 
ATOM      2  O   UNL     1       2.036   0.107   1.574  0.00  0.00    +0.000 OA
ENDROOT
BRANCH   1   3
ATOM      3  C   UNL     1       0.644   0.771  -0.238  0.00  0.00    +0.000 A 
ATOM      4  C   UNL     1      -0.659   0.723  -0.731  0.00  0.00    +0.000 A 
ATOM      5  C   UNL     1      -0.881   0.945  -2.095  0.00  0.00    +0.000 A 
ATOM      6  C   UNL     1       0.179   1.244  -2.983  0.00  0.00    +0.000 A 
ATOM      7  C   UNL     1       1.474   1.338  -2.448  0.00  0.00    +0.000 A 
ATOM      8  C   UNL     1       1.702   1.069  -1.097  0.00  0.00    +0.000 A 
ATOM      9  H   UNL     1      -1.485   0.493  -0.063  0.00  0.00    +0.000 HD
ATOM     10  H   UNL     1       2.721   1.121  -0.712  0.00  0.00    +0.000 HD
BRANCH   5  11
ATOM     11  O   UNL     1      -2.163   0.820  -2.559  0.00  0.00    +0.000 OA
ATOM     12  H   UNL     1      -2.797   0.990  -1.840  0.00  0.00    +0.000 HD
ENDBRANCH   5  11
BRANCH   6  13
ATOM     13  C   UNL     1      -0.139   1.485  -4.424  0.00  0.00    +0.000 C 
ATOM     14  O   UNL     1      -1.160   2.103  -4.711  0.00  0.00    +0.000 OA
BRANCH  13  15
ATOM     15  C   UNL     1       0.771   1.111  -5.542  0.00  0.00    +0.000 A 
ATOM     16  C   UNL     1       1.592  -0.034  -5.467  0.00  0.00    +0.000 A 
ATOM     17  C   UNL     1       2.588  -0.271  -6.417  0.00  0.00    +0.000 A 
ATOM     18  C   UNL     1       2.740   0.581  -7.502  0.00  0.00    +0.000 A 
ATOM     19  C   UNL     1       1.875   1.660  -7.647  0.00  0.00    +0.000 A 
ATOM     20  C   UNL     1       0.888   1.945  -6.680  0.00  0.00    +0.000 A 
ATOM     21  H   UNL     1       3.252  -1.126  -6.306  0.00  0.00    +0.000 HD
ATOM     22  H   UNL     1       3.520   0.402  -8.238  0.00  0.00    +0.000 HD
ATOM     23  H   UNL     1       1.989   2.309  -8.517  0.00  0.00    +0.000 HD
BRANCH  16  24
ATOM     24  O   UNL     1       1.543  -0.973  -4.474  0.00  0.00    +0.000 OA
ATOM     25  H   UNL     1       0.678  -0.986  -4.033  0.00  0.00    +0.000 HD
ENDBRANCH  16  24
BRANCH  20  26
ATOM     26  C   UNL     1       0.088   3.168  -6.993  0.00  0.00    +0.000 C 
ATOM     27  O   UNL     1      -0.127   3.525  -8.141  0.00  0.00    +0.000 OA
BRANCH  26  28
ATOM     28  O   UNL     1      -0.155   3.958  -5.933  0.00  0.00    +0.000 OA
ATOM     29  H   UNL     1      -0.780   3.488  -5.326  0.00  0.00    +0.000 HD
ENDBRANCH  26  28
ENDBRANCH  20  26
ENDBRANCH  13  15
ENDBRANCH   6  13
BRANCH   7  30
ATOM     30  O   UNL     1       2.611   1.706  -3.108  0.00  0.00    +0.000 OA
ATOM     31  H   UNL     1       2.490   1.838  -4.058  0.00  0.00    +0.000 HD
ENDBRANCH   7  30
ENDBRANCH   1   3
BRANCH   1  32
ATOM     32  O   UNL     1      -0.028   1.042   1.961  0.00  0.00    +0.000 OA
BRANCH  32  37
ATOM     33  C   UNL     1      -0.413   0.655   4.370  0.00  0.00    +0.000 C 
ATOM     34  C   UNL     1      -1.784   1.328   4.339  0.00  0.00    +0.000 C 
ATOM     35  C   UNL     1      -1.481   2.805   4.096  0.00  0.00    +0.000 C 
ATOM     36  C   UNL     1      -0.082   2.872   3.478  0.00  0.00    +0.000 C 
ATOM     37  C   UNL     1       0.369   1.422   3.297  0.00  0.00    +0.000 C 
ATOM     38  H   UNL     1       0.046   0.836   5.353  0.00  0.00    +0.000 HD
ATOM     39  H   UNL     1      -2.340   1.185   5.271  0.00  0.00    +0.000 HD
ATOM     40  H   UNL     1      -2.400   0.930   3.524  0.00  0.00    +0.000 HD
ATOM     41  H   UNL     1      -1.491   3.362   5.040  0.00  0.00    +0.000 HD
ATOM     42  H   UNL     1      -2.234   3.258   3.443  0.00  0.00    +0.000 HD
ATOM     43  H   UNL     1       0.593   3.397   4.162  0.00  0.00    +0.000 HD
ATOM     44  H   UNL     1      -0.101   3.423   2.531  0.00  0.00    +0.000 HD
ATOM     45  H   UNL     1       1.451   1.332   3.446  0.00  0.00    +0.000 HD
BRANCH  33  48
ATOM     46  O   UNL     1      -1.519  -1.253   6.145  0.00  0.00    +0.000 OA
ATOM     47  C   UNL     1      -1.004  -1.632   5.102  0.00  0.00    +0.000 C 
ATOM     48  N   UNL     1      -0.459  -0.778   4.163  0.00  0.00    +0.000 N 
ATOM     49  H   UNL     1      -0.155  -1.147   3.271  0.00  0.00    +0.000 HD
BRANCH  47  50
ATOM     50  C   UNL     1      -0.991  -3.076   4.755  0.00  0.00    +0.000 A 
ATOM     51  C   UNL     1      -2.077  -3.870   5.151  0.00  0.00    +0.000 A 
ATOM     52  C   UNL     1      -2.107  -5.230   4.835  0.00  0.00    +0.000 A 
ATOM     53  C   UNL     1      -1.041  -5.792   4.138  0.00  0.00    +0.000 A 
ATOM     54  C   UNL     1       0.056  -5.022   3.765  0.00  0.00    +0.000 A 
ATOM     55  C   UNL     1       0.086  -3.659   4.073  0.00  0.00    +0.000 A 
ATOM     56  H   UNL     1      -2.902  -3.424   5.703  0.00  0.00    +0.000 HD
ATOM     57  H   UNL     1      -2.960  -5.828   5.142  0.00  0.00    +0.000 HD
ATOM     58  H   UNL     1       0.890  -5.484   3.245  0.00  0.00    +0.000 HD
ATOM     59  H   UNL     1       0.961  -3.075   3.804  0.00  0.00    +0.000 HD
BRANCH  53  60
ATOM     60  O   UNL     1      -1.031  -7.113   3.800  0.00  0.00    +0.000 OA
ATOM     61  H   UNL     1      -1.855  -7.523   4.112  0.00  0.00    +0.000 HD
ENDBRANCH  53  60
ENDBRANCH  47  50
ENDBRANCH  33  48
ENDBRANCH  32  37
ENDBRANCH   1  32
TORSDOF 13
