REMARK  Name = 
REMARK  8 active torsions:
REMARK  status: ('A' for Active; 'I' for Inactive)
REMARK    1  A    between atoms: N_1  and  C_2
REMARK    2  A    between atoms: C_2  and  C_3
REMARK    3  A    between atoms: C_3  and  C_4
REMARK    4  A    between atoms: C_4  and  C_5
REMARK    5  A    between atoms: C_5  and  C_6
REMARK    6  A    between atoms: C_6  and  N_7
REMARK    7  A    between atoms: N_7  and  C_8
REMARK    8  A    between atoms: C_9  and  C_10
REMARK                            x       y       z     vdW  Elec       q    Type
REMARK                         _______ _______ _______ _____ _____    ______ ____
ROOT
ATOM      1  C   UNL     1       0.971   1.639   1.535  0.00  0.00    +0.000 C 
ATOM      2  C   UNL     1       1.930   1.704   0.602  0.00  0.00    +0.000 C 
ATOM      3  C   UNL     1       3.237   1.819   1.287  0.00  0.00    +0.000 C 
ATOM      4  O   UNL     1       4.339   1.821   0.766  0.00  0.00    +0.000 OA
ATOM      5  N   UNL     1       2.981   1.911   2.609  0.00  0.00    +0.000 N 
ATOM      6  C   UNL     1       1.657   1.810   2.849  0.00  0.00    +0.000 C 
ATOM      7  O   UNL     1       1.092   1.835   3.926  0.00  0.00    +0.000 OA
ATOM      8  H   UNL     1       3.686   2.010   3.317  0.00  0.00    +0.000 HD
ENDROOT
BRANCH   2   9
ATOM      9  C   UNL     1       1.732   1.704  -0.792  0.00  0.00    +0.000 A 
ATOM     10  C   UNL     1       2.462   1.212  -1.852  0.00  0.00    +0.000 A 
ATOM     11  C   UNL     1       1.802   1.588  -3.051  0.00  0.00    +0.000 A 
ATOM     12  C   UNL     1       2.079   1.384  -4.416  0.00  0.00    +0.000 A 
ATOM     13  C   UNL     1       1.213   1.914  -5.373  0.00  0.00    +0.000 A 
ATOM     14  C   UNL     1       0.089   2.645  -4.991  0.00  0.00    +0.000 A 
ATOM     15  C   UNL     1      -0.205   2.864  -3.640  0.00  0.00    +0.000 A 
ATOM     16  C   UNL     1       0.668   2.315  -2.693  0.00  0.00    +0.000 A 
ATOM     17  N   UNL     1       0.636   2.354  -1.318  0.00  0.00    +0.000 N 
ATOM     18  H   UNL     1       3.386   0.654  -1.775  0.00  0.00    +0.000 HD
ATOM     19  H   UNL     1       2.961   0.827  -4.715  0.00  0.00    +0.000 HD
ATOM     20  H   UNL     1       1.424   1.758  -6.428  0.00  0.00    +0.000 HD
ATOM     21  H   UNL     1      -0.568   3.054  -5.755  0.00  0.00    +0.000 HD
ATOM     22  H   UNL     1      -1.076   3.442  -3.348  0.00  0.00    +0.000 HD
ATOM     23  H   UNL     1      -0.087   2.802  -0.768  0.00  0.00    +0.000 HD
ENDBRANCH   2   9
BRANCH   1  24
ATOM     24  N   UNL     1      -0.407   1.467   1.452  0.00  0.00    +0.000 N 
ATOM     25  H   UNL     1      -0.827   1.647   2.369  0.00  0.00    +0.000 HD
BRANCH  24  26
ATOM     26  C   UNL     1      -0.960   0.248   0.849  0.00  0.00    +0.000 C 
ATOM     27  H   UNL     1      -1.914   0.498   0.375  0.00  0.00    +0.000 HD
ATOM     28  H   UNL     1      -0.302  -0.137   0.062  0.00  0.00    +0.000 HD
BRANCH  26  29
ATOM     29  C   UNL     1      -1.178  -0.839   1.904  0.00  0.00    +0.000 C 
ATOM     30  H   UNL     1      -0.231  -1.079   2.404  0.00  0.00    +0.000 HD
ATOM     31  H   UNL     1      -1.862  -0.473   2.681  0.00  0.00    +0.000 HD
BRANCH  29  32
ATOM     32  C   UNL     1      -1.755  -2.095   1.250  0.00  0.00    +0.000 C 
ATOM     33  H   UNL     1      -2.700  -1.844   0.752  0.00  0.00    +0.000 HD
ATOM     34  H   UNL     1      -1.067  -2.451   0.474  0.00  0.00    +0.000 HD
BRANCH  32  35
ATOM     35  C   UNL     1      -1.998  -3.212   2.264  0.00  0.00    +0.000 C 
ATOM     36  H   UNL     1      -1.055  -3.466   2.763  0.00  0.00    +0.000 HD
ATOM     37  H   UNL     1      -2.690  -2.858   3.039  0.00  0.00    +0.000 HD
BRANCH  35  38
ATOM     38  C   UNL     1      -2.573  -4.451   1.578  0.00  0.00    +0.000 C 
ATOM     39  H   UNL     1      -3.518  -4.205   1.082  0.00  0.00    +0.000 HD
ATOM     40  H   UNL     1      -1.879  -4.814   0.812  0.00  0.00    +0.000 HD
BRANCH  38  41
ATOM     41  N   UNL     1      -2.800  -5.507   2.555  0.00  0.00    +0.000 NA
ATOM     42  H   UNL     1      -3.228  -6.310   2.097  0.00  0.00    +0.000 HD
ATOM     43  H   UNL     1      -3.467  -5.189   3.257  0.00  0.00    +0.000 HD
ENDBRANCH  38  41
ENDBRANCH  35  38
ENDBRANCH  32  35
ENDBRANCH  29  32
ENDBRANCH  26  29
ENDBRANCH  24  26
ENDBRANCH   1  24
TORSDOF 8
