MODEL 1
REMARK VINA RESULT:   -11.365      0.000      0.000
REMARK INTER + INTRA:         -12.881
REMARK INTER:                 -12.694
REMARK INTRA:                  -0.187
REMARK UNBOUND:                -0.187
REMARK  Name = 
REMARK  3 active torsions:
REMARK  status: ('A' for Active; 'I' for Inactive)
REMARK    1  A    between atoms: N_1  and  C_2
REMARK    2  A    between atoms: C_11  and  C_12
REMARK    3  A    between atoms: C_16  and  O_17
REMARK                            x       y       z     vdW  Elec       q    Type
REMARK                         _______ _______ _______ _____ _____    ______ ____
ROOT
ATOM      1  C   UNL     1      -8.813 -13.847  15.781  0.00  0.00    +0.000 A 
ATOM      2  C   UNL     1      -8.843 -13.785  17.192  0.00  0.00    +0.000 A 
ATOM      3  C   UNL     1      -8.839 -12.558  17.879  0.00  0.00    +0.000 A 
ATOM      4  C   UNL     1      -8.846 -11.402  17.123  0.00  0.00    +0.000 A 
ATOM      5  C   UNL     1      -8.861 -11.463  15.733  0.00  0.00    +0.000 A 
ATOM      6  C   UNL     1      -8.864 -12.663  15.043  0.00  0.00    +0.000 A 
ATOM      7  C   UNL     1      -8.901 -10.117  15.161  0.00  0.00    +0.000 C 
ATOM      8  O   UNL     1      -8.916  -9.844  13.980  0.00  0.00    +0.000 OA
ATOM      9  C   UNL     1      -8.914  -9.191  16.319  0.00  0.00    +0.000 C 
ATOM     10  C   UNL     1      -8.965  -7.866  16.119  0.00  0.00    +0.000 C 
ATOM     11  C   UNL     1      -8.873  -9.997  17.572  0.00  0.00    +0.000 C 
ATOM     12  O   UNL     1      -8.860  -9.608  18.719  0.00  0.00    +0.000 OA
ATOM     13  H   UNL     1      -8.877 -14.709  17.768  0.00  0.00    +0.000 HD
ATOM     14  H   UNL     1      -8.853 -12.525  18.964  0.00  0.00    +0.000 HD
ATOM     15  H   UNL     1      -8.912 -12.667  13.958  0.00  0.00    +0.000 HD
ATOM     16  H   UNL     1      -8.994  -7.479  15.101  0.00  0.00    +0.000 HD
ENDROOT
BRANCH  10  17
ATOM     17  C   UNL     1      -8.988  -6.842  17.158  0.00  0.00    +0.000 A 
ATOM     18  C   UNL     1      -7.856  -6.621  17.949  0.00  0.00    +0.000 A 
ATOM     19  C   UNL     1      -7.871  -5.617  18.918  0.00  0.00    +0.000 A 
ATOM     20 CL   UNL     1      -6.459  -5.355  19.876  0.00  0.00    +0.000 Cl
ATOM     21  C   UNL     1      -9.007  -4.825  19.105  0.00  0.00    +0.000 A 
ATOM     22  C   UNL     1     -10.132  -5.036  18.304  0.00  0.00    +0.000 A 
ATOM     23 CL   UNL     1     -11.552  -4.069  18.472  0.00  0.00    +0.000 Cl
ATOM     24  C   UNL     1     -10.122  -6.042  17.333  0.00  0.00    +0.000 A 
ATOM     25  H   UNL     1      -6.961  -7.222  17.806  0.00  0.00    +0.000 HD
ATOM     26  H   UNL     1     -11.000  -6.193  16.708  0.00  0.00    +0.000 HD
BRANCH  21  27
ATOM     27  O   UNL     1      -9.026  -3.843  20.062  0.00  0.00    +0.000 OA
ATOM     28  H   UNL     1      -9.144  -4.275  20.928  0.00  0.00    +0.000 HD
ENDBRANCH  21  27
ENDBRANCH  10  17
BRANCH   1  29
ATOM     29  N   UNL     1      -8.974 -15.073  15.128  0.00  0.00    +0.000 N 
ATOM     30  H   UNL     1      -8.803 -15.052  14.127  0.00  0.00    +0.000 HD
ATOM     31  H   UNL     1      -9.832 -15.566  15.361  0.00  0.00    +0.000 HD
ENDBRANCH   1  29
TORSDOF 3
ENDMDL
MODEL 2
REMARK VINA RESULT:   -11.169      0.380      1.973
REMARK INTER + INTRA:         -12.662
REMARK INTER:                 -12.519
REMARK INTRA:                  -0.143
REMARK UNBOUND:                -0.187
REMARK  Name = 
REMARK  3 active torsions:
REMARK  status: ('A' for Active; 'I' for Inactive)
REMARK    1  A    between atoms: N_1  and  C_2
REMARK    2  A    between atoms: C_11  and  C_12
REMARK    3  A    between atoms: C_16  and  O_17
REMARK                            x       y       z     vdW  Elec       q    Type
REMARK                         _______ _______ _______ _____ _____    ______ ____
ROOT
ATOM      1  C   UNL     1      -8.736 -13.980  16.429  0.00  0.00    +0.000 A 
ATOM      2  C   UNL     1      -8.773 -13.778  17.826  0.00  0.00    +0.000 A 
ATOM      3  C   UNL     1      -8.781 -12.490  18.388  0.00  0.00    +0.000 A 
ATOM      4  C   UNL     1      -8.794 -11.414  17.520  0.00  0.00    +0.000 A 
ATOM      5  C   UNL     1      -8.802 -11.613  16.143  0.00  0.00    +0.000 A 
ATOM      6  C   UNL     1      -8.793 -12.876  15.577  0.00  0.00    +0.000 A 
ATOM      7  C   UNL     1      -8.850 -10.331  15.441  0.00  0.00    +0.000 C 
ATOM      8  O   UNL     1      -8.862 -10.178  14.238  0.00  0.00    +0.000 OA
ATOM      9  C   UNL     1      -8.875  -9.295  16.501  0.00  0.00    +0.000 C 
ATOM     10  C   UNL     1      -8.935  -7.997  16.169  0.00  0.00    +0.000 C 
ATOM     11  C   UNL     1      -8.833  -9.972  17.828  0.00  0.00    +0.000 C 
ATOM     12  O   UNL     1      -8.828  -9.470  18.931  0.00  0.00    +0.000 OA
ATOM     13  H   UNL     1      -8.803 -14.641  18.491  0.00  0.00    +0.000 HD
ATOM     14  H   UNL     1      -8.800 -12.349  19.464  0.00  0.00    +0.000 HD
ATOM     15  H   UNL     1      -8.837 -12.989  14.498  0.00  0.00    +0.000 HD
ATOM     16  H   UNL     1      -8.962  -7.713  15.118  0.00  0.00    +0.000 HD
ENDROOT
BRANCH  10  17
ATOM     17  C   UNL     1      -8.969  -6.875  17.101  0.00  0.00    +0.000 A 
ATOM     18  C   UNL     1     -10.127  -6.099  17.221  0.00  0.00    +0.000 A 
ATOM     19  C   UNL     1     -10.167  -5.048  18.137  0.00  0.00    +0.000 A 
ATOM     20 CL   UNL     1     -11.610  -4.110  18.276  0.00  0.00    +0.000 Cl
ATOM     21  C   UNL     1      -9.060  -4.763  18.943  0.00  0.00    +0.000 A 
ATOM     22  C   UNL     1      -7.910  -5.548  18.833  0.00  0.00    +0.000 A 
ATOM     23 CL   UNL     1      -6.525  -5.260  19.823  0.00  0.00    +0.000 Cl
ATOM     24  C   UNL     1      -7.865  -6.602  17.915  0.00  0.00    +0.000 A 
ATOM     25  H   UNL     1     -10.999  -6.317  16.609  0.00  0.00    +0.000 HD
ATOM     26  H   UNL     1      -6.968  -7.213  17.844  0.00  0.00    +0.000 HD
BRANCH  21  27
ATOM     27  O   UNL     1      -9.095  -3.726  19.839  0.00  0.00    +0.000 OA
ATOM     28  H   UNL     1      -9.880  -3.848  20.404  0.00  0.00    +0.000 HD
ENDBRANCH  21  27
ENDBRANCH  10  17
BRANCH   1  29
ATOM     29  N   UNL     1      -8.886 -15.267  15.901  0.00  0.00    +0.000 N 
ATOM     30  H   UNL     1      -8.017 -15.736  15.663  0.00  0.00    +0.000 HD
ATOM     31  H   UNL     1      -9.578 -15.342  15.160  0.00  0.00    +0.000 HD
ENDBRANCH   1  29
TORSDOF 3
ENDMDL
MODEL 3
REMARK VINA RESULT:   -10.283      1.287      2.304
REMARK INTER + INTRA:         -11.673
REMARK INTER:                 -11.683
REMARK INTRA:                   0.010
REMARK UNBOUND:                -0.187
REMARK  Name = 
REMARK  3 active torsions:
REMARK  status: ('A' for Active; 'I' for Inactive)
REMARK    1  A    between atoms: N_1  and  C_2
REMARK    2  A    between atoms: C_11  and  C_12
REMARK    3  A    between atoms: C_16  and  O_17
REMARK                            x       y       z     vdW  Elec       q    Type
REMARK                         _______ _______ _______ _____ _____    ______ ____
ROOT
ATOM      1  C   UNL     1      -8.768 -13.902  15.528  0.00  0.00    +0.000 A 
ATOM      2  C   UNL     1      -8.762 -12.901  14.531  0.00  0.00    +0.000 A 
ATOM      3  C   UNL     1      -8.811 -11.534  14.855  0.00  0.00    +0.000 A 
ATOM      4  C   UNL     1      -8.825 -11.195  16.194  0.00  0.00    +0.000 A 
ATOM      5  C   UNL     1      -8.786 -12.179  17.177  0.00  0.00    +0.000 A 
ATOM      6  C   UNL     1      -8.739 -13.529  16.873  0.00  0.00    +0.000 A 
ATOM      7  C   UNL     1      -8.775 -11.574  18.508  0.00  0.00    +0.000 C 
ATOM      8  O   UNL     1      -8.749 -12.173  19.563  0.00  0.00    +0.000 OA
ATOM      9  C   UNL     1      -8.807 -10.109  18.283  0.00  0.00    +0.000 C 
ATOM     10  C   UNL     1      -8.790  -9.269  19.326  0.00  0.00    +0.000 C 
ATOM     11  C   UNL     1      -8.845  -9.856  16.814  0.00  0.00    +0.000 C 
ATOM     12  O   UNL     1      -8.887  -8.794  16.233  0.00  0.00    +0.000 OA
ATOM     13  H   UNL     1      -8.710 -13.191  13.482  0.00  0.00    +0.000 HD
ATOM     14  H   UNL     1      -8.815 -10.776  14.079  0.00  0.00    +0.000 HD
ATOM     15  H   UNL     1      -8.673 -14.264  17.668  0.00  0.00    +0.000 HD
ATOM     16  H   UNL     1      -8.756  -9.671  20.338  0.00  0.00    +0.000 HD
ENDROOT
BRANCH  10  17
ATOM     17  C   UNL     1      -8.813  -7.812  19.255  0.00  0.00    +0.000 A 
ATOM     18  C   UNL     1      -7.742  -7.068  19.760  0.00  0.00    +0.000 A 
ATOM     19  C   UNL     1      -7.753  -5.676  19.660  0.00  0.00    +0.000 A 
ATOM     20 CL   UNL     1      -6.416  -4.779  20.281  0.00  0.00    +0.000 Cl
ATOM     21  C   UNL     1      -8.825  -5.015  19.052  0.00  0.00    +0.000 A 
ATOM     22  C   UNL     1      -9.887  -5.759  18.534  0.00  0.00    +0.000 A 
ATOM     23 CL   UNL     1     -11.222  -4.997  17.749  0.00  0.00    +0.000 Cl
ATOM     24  C   UNL     1      -9.881  -7.154  18.634  0.00  0.00    +0.000 A 
ATOM     25  H   UNL     1      -6.897  -7.571  20.225  0.00  0.00    +0.000 HD
ATOM     26  H   UNL     1     -10.709  -7.725  18.220  0.00  0.00    +0.000 HD
BRANCH  21  27
ATOM     27  O   UNL     1      -8.841  -3.648  18.959  0.00  0.00    +0.000 OA
ATOM     28  H   UNL     1      -7.916  -3.340  18.938  0.00  0.00    +0.000 HD
ENDBRANCH  21  27
ENDBRANCH  10  17
BRANCH   1  29
ATOM     29  N   UNL     1      -8.561 -15.241  15.180  0.00  0.00    +0.000 N 
ATOM     30  H   UNL     1      -7.598 -15.557  15.244  0.00  0.00    +0.000 HD
ATOM     31  H   UNL     1      -9.002 -15.525  14.309  0.00  0.00    +0.000 HD
ENDBRANCH   1  29
TORSDOF 3
ENDMDL
MODEL 4
REMARK VINA RESULT:   -10.247      1.252      2.952
REMARK INTER + INTRA:         -11.633
REMARK INTER:                 -11.609
REMARK INTRA:                  -0.024
REMARK UNBOUND:                -0.187
REMARK  Name = 
REMARK  3 active torsions:
REMARK  status: ('A' for Active; 'I' for Inactive)
REMARK    1  A    between atoms: N_1  and  C_2
REMARK    2  A    between atoms: C_11  and  C_12
REMARK    3  A    between atoms: C_16  and  O_17
REMARK                            x       y       z     vdW  Elec       q    Type
REMARK                         _______ _______ _______ _____ _____    ______ ____
ROOT
ATOM      1  C   UNL     1      -8.758 -13.848  15.567  0.00  0.00    +0.000 A 
ATOM      2  C   UNL     1      -8.729 -12.865  14.554  0.00  0.00    +0.000 A 
ATOM      3  C   UNL     1      -8.762 -11.492  14.854  0.00  0.00    +0.000 A 
ATOM      4  C   UNL     1      -8.783 -11.129  16.187  0.00  0.00    +0.000 A 
ATOM      5  C   UNL     1      -8.767 -12.097  17.186  0.00  0.00    +0.000 A 
ATOM      6  C   UNL     1      -8.736 -13.452  16.906  0.00  0.00    +0.000 A 
ATOM      7  C   UNL     1      -8.760 -11.469  18.507  0.00  0.00    +0.000 C 
ATOM      8  O   UNL     1      -8.752 -12.049  19.572  0.00  0.00    +0.000 OA
ATOM      9  C   UNL     1      -8.769 -10.008  18.256  0.00  0.00    +0.000 C 
ATOM     10  C   UNL     1      -8.750  -9.150  19.285  0.00  0.00    +0.000 C 
ATOM     11  C   UNL     1      -8.791  -9.780  16.783  0.00  0.00    +0.000 C 
ATOM     12  O   UNL     1      -8.812  -8.727  16.183  0.00  0.00    +0.000 OA
ATOM     13  H   UNL     1      -8.672 -13.173  13.510  0.00  0.00    +0.000 HD
ATOM     14  H   UNL     1      -8.749 -10.747  14.064  0.00  0.00    +0.000 HD
ATOM     15  H   UNL     1      -8.687 -14.174  17.715  0.00  0.00    +0.000 HD
ATOM     16  H   UNL     1      -8.731  -9.535  20.304  0.00  0.00    +0.000 HD
ENDROOT
BRANCH  10  17
ATOM     17  C   UNL     1      -8.752  -7.694  19.189  0.00  0.00    +0.000 A 
ATOM     18  C   UNL     1      -9.826  -7.033  18.584  0.00  0.00    +0.000 A 
ATOM     19  C   UNL     1      -9.840  -5.639  18.524  0.00  0.00    +0.000 A 
ATOM     20 CL   UNL     1     -11.181  -4.844  17.782  0.00  0.00    +0.000 Cl
ATOM     21  C   UNL     1      -8.790  -4.893  19.068  0.00  0.00    +0.000 A 
ATOM     22  C   UNL     1      -7.725  -5.553  19.685  0.00  0.00    +0.000 A 
ATOM     23 CL   UNL     1      -6.417  -4.682  20.398  0.00  0.00    +0.000 Cl
ATOM     24  C   UNL     1      -7.706  -6.950  19.746  0.00  0.00    +0.000 A 
ATOM     25  H   UNL     1     -10.655  -7.601  18.168  0.00  0.00    +0.000 HD
ATOM     26  H   UNL     1      -6.877  -7.455  20.237  0.00  0.00    +0.000 HD
BRANCH  21  27
ATOM     27  O   UNL     1      -8.798  -3.524  19.003  0.00  0.00    +0.000 OA
ATOM     28  H   UNL     1      -9.369  -3.195  19.722  0.00  0.00    +0.000 HD
ENDBRANCH  21  27
ENDBRANCH  10  17
BRANCH   1  29
ATOM     29  N   UNL     1      -8.567 -15.196  15.245  0.00  0.00    +0.000 N 
ATOM     30  H   UNL     1      -8.941 -15.856  15.920  0.00  0.00    +0.000 HD
ATOM     31  H   UNL     1      -7.620 -15.432  14.959  0.00  0.00    +0.000 HD
ENDBRANCH   1  29
TORSDOF 3
ENDMDL
MODEL 5
REMARK VINA RESULT:    -9.092      4.303      7.559
REMARK INTER + INTRA:         -10.342
REMARK INTER:                 -10.902
REMARK INTRA:                   0.560
REMARK UNBOUND:                -0.187
REMARK  Name = 
REMARK  3 active torsions:
REMARK  status: ('A' for Active; 'I' for Inactive)
REMARK    1  A    between atoms: N_1  and  C_2
REMARK    2  A    between atoms: C_11  and  C_12
REMARK    3  A    between atoms: C_16  and  O_17
REMARK                            x       y       z     vdW  Elec       q    Type
REMARK                         _______ _______ _______ _____ _____    ______ ____
ROOT
ATOM      1  C   UNL     1     -11.103  -3.807  17.871  0.00  0.00    +0.000 A 
ATOM      2  C   UNL     1     -11.726  -4.403  16.752  0.00  0.00    +0.000 A 
ATOM      3  C   UNL     1     -11.473  -5.737  16.388  0.00  0.00    +0.000 A 
ATOM      4  C   UNL     1     -10.618  -6.468  17.191  0.00  0.00    +0.000 A 
ATOM      5  C   UNL     1     -10.039  -5.894  18.318  0.00  0.00    +0.000 A 
ATOM      6  C   UNL     1     -10.278  -4.582  18.688  0.00  0.00    +0.000 A 
ATOM      7  C   UNL     1      -9.206  -6.871  19.019  0.00  0.00    +0.000 C 
ATOM      8  O   UNL     1      -8.568  -6.668  20.031  0.00  0.00    +0.000 OA
ATOM      9  C   UNL     1      -9.311  -8.124  18.234  0.00  0.00    +0.000 C 
ATOM     10  C   UNL     1      -8.661  -9.225  18.636  0.00  0.00    +0.000 C 
ATOM     11  C   UNL     1     -10.202  -7.878  17.064  0.00  0.00    +0.000 C 
ATOM     12  O   UNL     1     -10.526  -8.649  16.188  0.00  0.00    +0.000 OA
ATOM     13  H   UNL     1     -12.427  -3.820  16.156  0.00  0.00    +0.000 HD
ATOM     14  H   UNL     1     -11.951  -6.180  15.520  0.00  0.00    +0.000 HD
ATOM     15  H   UNL     1      -9.835  -4.183  19.595  0.00  0.00    +0.000 HD
ATOM     16  H   UNL     1      -8.055  -9.189  19.541  0.00  0.00    +0.000 HD
ENDROOT
BRANCH  10  17
ATOM     17  C   UNL     1      -8.677 -10.522  17.969  0.00  0.00    +0.000 A 
ATOM     18  C   UNL     1      -8.594 -10.595  16.575  0.00  0.00    +0.000 A 
ATOM     19  C   UNL     1      -8.575 -11.838  15.943  0.00  0.00    +0.000 A 
ATOM     20 CL   UNL     1      -8.462 -11.904  14.222  0.00  0.00    +0.000 Cl
ATOM     21  C   UNL     1      -8.633 -13.018  16.692  0.00  0.00    +0.000 A 
ATOM     22  C   UNL     1      -8.700 -12.945  18.085  0.00  0.00    +0.000 A 
ATOM     23 CL   UNL     1      -8.745 -14.369  19.060  0.00  0.00    +0.000 Cl
ATOM     24  C   UNL     1      -8.721 -11.701  18.722  0.00  0.00    +0.000 A 
ATOM     25  H   UNL     1      -8.536  -9.685  15.982  0.00  0.00    +0.000 HD
ATOM     26  H   UNL     1      -8.765 -11.655  19.808  0.00  0.00    +0.000 HD
BRANCH  21  27
ATOM     27  O   UNL     1      -8.622 -14.241  16.072  0.00  0.00    +0.000 OA
ATOM     28  H   UNL     1      -8.887 -14.106  15.143  0.00  0.00    +0.000 HD
ENDBRANCH  21  27
ENDBRANCH  10  17
BRANCH   1  29
ATOM     29  N   UNL     1     -11.493  -2.533  18.296  0.00  0.00    +0.000 N 
ATOM     30  H   UNL     1     -12.454  -2.285  18.081  0.00  0.00    +0.000 HD
ATOM     31  H   UNL     1     -10.841  -1.790  18.058  0.00  0.00    +0.000 HD
ENDBRANCH   1  29
TORSDOF 3
ENDMDL
MODEL 6
REMARK VINA RESULT:    -8.922      2.434      3.632
REMARK INTER + INTRA:         -10.152
REMARK INTER:                 -10.423
REMARK INTRA:                   0.271
REMARK UNBOUND:                -0.187
REMARK  Name = 
REMARK  3 active torsions:
REMARK  status: ('A' for Active; 'I' for Inactive)
REMARK    1  A    between atoms: N_1  and  C_2
REMARK    2  A    between atoms: C_11  and  C_12
REMARK    3  A    between atoms: C_16  and  O_17
REMARK                            x       y       z     vdW  Elec       q    Type
REMARK                         _______ _______ _______ _____ _____    ______ ____
ROOT
ATOM      1  C   UNL     1      -8.408 -13.194  17.999  0.00  0.00    +0.000 A 
ATOM      2  C   UNL     1      -8.803 -13.079  16.648  0.00  0.00    +0.000 A 
ATOM      3  C   UNL     1      -9.238 -11.858  16.106  0.00  0.00    +0.000 A 
ATOM      4  C   UNL     1      -9.229 -10.751  16.934  0.00  0.00    +0.000 A 
ATOM      5  C   UNL     1      -8.799 -10.855  18.253  0.00  0.00    +0.000 A 
ATOM      6  C   UNL     1      -8.368 -12.051  18.800  0.00  0.00    +0.000 A 
ATOM      7  C   UNL     1      -8.848  -9.550  18.912  0.00  0.00    +0.000 C 
ATOM      8  O   UNL     1      -8.541  -9.321  20.063  0.00  0.00    +0.000 OA
ATOM      9  C   UNL     1      -9.349  -8.603  17.887  0.00  0.00    +0.000 C 
ATOM     10  C   UNL     1      -9.493  -7.304  18.187  0.00  0.00    +0.000 C 
ATOM     11  C   UNL     1      -9.601  -9.357  16.627  0.00  0.00    +0.000 C 
ATOM     12  O   UNL     1     -10.021  -8.940  15.570  0.00  0.00    +0.000 OA
ATOM     13  H   UNL     1      -8.764 -13.956  16.003  0.00  0.00    +0.000 HD
ATOM     14  H   UNL     1      -9.548 -11.785  15.068  0.00  0.00    +0.000 HD
ATOM     15  H   UNL     1      -8.005 -12.082  19.823  0.00  0.00    +0.000 HD
ATOM     16  H   UNL     1      -9.242  -6.954  19.188  0.00  0.00    +0.000 HD
ENDROOT
BRANCH  10  17
ATOM     17  C   UNL     1      -9.968  -6.263  17.283  0.00  0.00    +0.000 A 
ATOM     18  C   UNL     1     -10.959  -5.369  17.702  0.00  0.00    +0.000 A 
ATOM     19  C   UNL     1     -11.387  -4.354  16.846  0.00  0.00    +0.000 A 
ATOM     20 CL   UNL     1     -12.603  -3.256  17.388  0.00  0.00    +0.000 Cl
ATOM     21  C   UNL     1     -10.830  -4.217  15.570  0.00  0.00    +0.000 A 
ATOM     22  C   UNL     1      -9.830  -5.100  15.158  0.00  0.00    +0.000 A 
ATOM     23 CL   UNL     1      -9.087  -4.960  13.606  0.00  0.00    +0.000 Cl
ATOM     24  C   UNL     1      -9.399  -6.120  16.012  0.00  0.00    +0.000 A 
ATOM     25  H   UNL     1     -11.392  -5.457  18.696  0.00  0.00    +0.000 HD
ATOM     26  H   UNL     1      -8.613  -6.798  15.686  0.00  0.00    +0.000 HD
BRANCH  21  27
ATOM     27  O   UNL     1     -11.254  -3.224  14.725  0.00  0.00    +0.000 OA
ATOM     28  H   UNL     1     -11.337  -3.609  13.833  0.00  0.00    +0.000 HD
ENDBRANCH  21  27
ENDBRANCH  10  17
BRANCH   1  29
ATOM     29  N   UNL     1      -7.834 -14.382  18.465  0.00  0.00    +0.000 N 
ATOM     30  H   UNL     1      -7.322 -14.913  17.768  0.00  0.00    +0.000 HD
ATOM     31  H   UNL     1      -8.461 -14.968  19.011  0.00  0.00    +0.000 HD
ENDBRANCH   1  29
TORSDOF 3
ENDMDL
MODEL 7
REMARK VINA RESULT:    -8.905      1.353      1.804
REMARK INTER + INTRA:         -10.134
REMARK INTER:                 -10.391
REMARK INTRA:                   0.257
REMARK UNBOUND:                -0.187
REMARK  Name = 
REMARK  3 active torsions:
REMARK  status: ('A' for Active; 'I' for Inactive)
REMARK    1  A    between atoms: N_1  and  C_2
REMARK    2  A    between atoms: C_11  and  C_12
REMARK    3  A    between atoms: C_16  and  O_17
REMARK                            x       y       z     vdW  Elec       q    Type
REMARK                         _______ _______ _______ _____ _____    ______ ____
ROOT
ATOM      1  C   UNL     1      -8.599 -12.462  17.022  0.00  0.00    +0.000 A 
ATOM      2  C   UNL     1      -8.461 -12.342  18.422  0.00  0.00    +0.000 A 
ATOM      3  C   UNL     1      -8.476 -11.091  19.063  0.00  0.00    +0.000 A 
ATOM      4  C   UNL     1      -8.673  -9.972  18.276  0.00  0.00    +0.000 A 
ATOM      5  C   UNL     1      -8.853 -10.093  16.902  0.00  0.00    +0.000 A 
ATOM      6  C   UNL     1      -8.839 -11.318  16.258  0.00  0.00    +0.000 A 
ATOM      7  C   UNL     1      -9.076  -8.781  16.297  0.00  0.00    +0.000 C 
ATOM      8  O   UNL     1      -9.259  -8.561  15.118  0.00  0.00    +0.000 OA
ATOM      9  C   UNL     1      -9.025  -7.810  17.416  0.00  0.00    +0.000 C 
ATOM     10  C   UNL     1      -9.211  -6.503  17.181  0.00  0.00    +0.000 C 
ATOM     11  C   UNL     1      -8.762  -8.555  18.680  0.00  0.00    +0.000 C 
ATOM     12  O   UNL     1      -8.642  -8.118  19.803  0.00  0.00    +0.000 OA
ATOM     13  H   UNL     1      -8.346 -13.240  19.028  0.00  0.00    +0.000 HD
ATOM     14  H   UNL     1      -8.359 -11.012  20.140  0.00  0.00    +0.000 HD
ATOM     15  H   UNL     1      -9.020 -11.373  15.189  0.00  0.00    +0.000 HD
ATOM     16  H   UNL     1      -9.397  -6.163  16.162  0.00  0.00    +0.000 HD
ENDROOT
BRANCH  10  17
ATOM     17  C   UNL     1      -9.192  -5.441  18.180  0.00  0.00    +0.000 A 
ATOM     18  C   UNL     1      -8.116  -5.331  19.067  0.00  0.00    +0.000 A 
ATOM     19  C   UNL     1      -8.086  -4.293  19.998  0.00  0.00    +0.000 A 
ATOM     20 CL   UNL     1      -6.743  -4.171  21.076  0.00  0.00    +0.000 Cl
ATOM     21  C   UNL     1      -9.122  -3.355  20.052  0.00  0.00    +0.000 A 
ATOM     22  C   UNL     1     -10.188  -3.456  19.156  0.00  0.00    +0.000 A 
ATOM     23 CL   UNL     1     -11.479  -2.309  19.159  0.00  0.00    +0.000 Cl
ATOM     24  C   UNL     1     -10.223  -4.495  18.222  0.00  0.00    +0.000 A 
ATOM     25  H   UNL     1      -7.299  -6.047  19.027  0.00  0.00    +0.000 HD
ATOM     26  H   UNL     1     -11.054  -4.560  17.523  0.00  0.00    +0.000 HD
BRANCH  21  27
ATOM     27  O   UNL     1      -9.097  -2.338  20.972  0.00  0.00    +0.000 OA
ATOM     28  H   UNL     1      -9.468  -1.543  20.546  0.00  0.00    +0.000 HD
ENDBRANCH  21  27
ENDBRANCH  10  17
BRANCH   1  29
ATOM     29  N   UNL     1      -8.735 -13.724  16.435  0.00  0.00    +0.000 N 
ATOM     30  H   UNL     1      -9.215 -13.731  15.540  0.00  0.00    +0.000 HD
ATOM     31  H   UNL     1      -9.080 -14.447  17.061  0.00  0.00    +0.000 HD
ENDBRANCH   1  29
TORSDOF 3
ENDMDL
MODEL 8
REMARK VINA RESULT:    -8.892      2.429      3.366
REMARK INTER + INTRA:         -10.119
REMARK INTER:                 -10.479
REMARK INTRA:                   0.360
REMARK UNBOUND:                -0.187
REMARK  Name = 
REMARK  3 active torsions:
REMARK  status: ('A' for Active; 'I' for Inactive)
REMARK    1  A    between atoms: N_1  and  C_2
REMARK    2  A    between atoms: C_11  and  C_12
REMARK    3  A    between atoms: C_16  and  O_17
REMARK                            x       y       z     vdW  Elec       q    Type
REMARK                         _______ _______ _______ _____ _____    ______ ____
ROOT
ATOM      1  C   UNL     1      -8.472 -13.205  17.986  0.00  0.00    +0.000 A 
ATOM      2  C   UNL     1      -8.836 -13.072  16.628  0.00  0.00    +0.000 A 
ATOM      3  C   UNL     1      -9.237 -11.839  16.086  0.00  0.00    +0.000 A 
ATOM      4  C   UNL     1      -9.224 -10.739  16.922  0.00  0.00    +0.000 A 
ATOM      5  C   UNL     1      -8.824 -10.860  18.249  0.00  0.00    +0.000 A 
ATOM      6  C   UNL     1      -8.428 -12.068  18.796  0.00  0.00    +0.000 A 
ATOM      7  C   UNL     1      -8.863  -9.560  18.917  0.00  0.00    +0.000 C 
ATOM      8  O   UNL     1      -8.576  -9.345  20.076  0.00  0.00    +0.000 OA
ATOM      9  C   UNL     1      -9.323  -8.596  17.889  0.00  0.00    +0.000 C 
ATOM     10  C   UNL     1      -9.449  -7.297  18.196  0.00  0.00    +0.000 C 
ATOM     11  C   UNL     1      -9.563  -9.336  16.618  0.00  0.00    +0.000 C 
ATOM     12  O   UNL     1      -9.953  -8.903  15.555  0.00  0.00    +0.000 OA
ATOM     13  H   UNL     1      -8.800 -13.945  15.977  0.00  0.00    +0.000 HD
ATOM     14  H   UNL     1      -9.523 -11.753  15.042  0.00  0.00    +0.000 HD
ATOM     15  H   UNL     1      -8.087 -12.114  19.826  0.00  0.00    +0.000 HD
ATOM     16  H   UNL     1      -9.213  -6.959  19.204  0.00  0.00    +0.000 HD
ENDROOT
BRANCH  10  17
ATOM     17  C   UNL     1      -9.885  -6.240  17.290  0.00  0.00    +0.000 A 
ATOM     18  C   UNL     1      -9.329  -6.139  16.010  0.00  0.00    +0.000 A 
ATOM     19  C   UNL     1      -9.774  -5.148  15.135  0.00  0.00    +0.000 A 
ATOM     20 CL   UNL     1      -9.080  -5.049  13.557  0.00  0.00    +0.000 Cl
ATOM     21  C   UNL     1     -10.776  -4.254  15.523  0.00  0.00    +0.000 A 
ATOM     22  C   UNL     1     -11.342  -4.364  16.795  0.00  0.00    +0.000 A 
ATOM     23 CL   UNL     1     -12.602  -3.305  17.315  0.00  0.00    +0.000 Cl
ATOM     24  C   UNL     1     -10.899  -5.355  17.676  0.00  0.00    +0.000 A 
ATOM     25  H   UNL     1      -8.557  -6.836  15.692  0.00  0.00    +0.000 HD
ATOM     26  H   UNL     1     -11.352  -5.439  18.661  0.00  0.00    +0.000 HD
BRANCH  21  27
ATOM     27  O   UNL     1     -11.209  -3.274  14.667  0.00  0.00    +0.000 OA
ATOM     28  H   UNL     1     -12.031  -2.899  15.035  0.00  0.00    +0.000 HD
ENDBRANCH  21  27
ENDBRANCH  10  17
BRANCH   1  29
ATOM     29  N   UNL     1      -7.931 -14.406  18.455  0.00  0.00    +0.000 N 
ATOM     30  H   UNL     1      -6.964 -14.351  18.761  0.00  0.00    +0.000 HD
ATOM     31  H   UNL     1      -8.098 -15.209  17.853  0.00  0.00    +0.000 HD
ENDBRANCH   1  29
TORSDOF 3
ENDMDL
MODEL 9
REMARK VINA RESULT:    -8.711      4.436      7.365
REMARK INTER + INTRA:          -9.917
REMARK INTER:                 -10.263
REMARK INTRA:                   0.346
REMARK UNBOUND:                -0.187
REMARK  Name = 
REMARK  3 active torsions:
REMARK  status: ('A' for Active; 'I' for Inactive)
REMARK    1  A    between atoms: N_1  and  C_2
REMARK    2  A    between atoms: C_11  and  C_12
REMARK    3  A    between atoms: C_16  and  O_17
REMARK                            x       y       z     vdW  Elec       q    Type
REMARK                         _______ _______ _______ _____ _____    ______ ____
ROOT
ATOM      1  C   UNL     1     -11.962  -2.204  15.690  0.00  0.00    +0.000 A 
ATOM      2  C   UNL     1     -12.525  -2.690  16.891  0.00  0.00    +0.000 A 
ATOM      3  C   UNL     1     -12.235  -3.978  17.375  0.00  0.00    +0.000 A 
ATOM      4  C   UNL     1     -11.340  -4.746  16.654  0.00  0.00    +0.000 A 
ATOM      5  C   UNL     1     -10.752  -4.249  15.495  0.00  0.00    +0.000 A 
ATOM      6  C   UNL     1     -11.029  -2.984  15.006  0.00  0.00    +0.000 A 
ATOM      7  C   UNL     1      -9.822  -5.228  14.933  0.00  0.00    +0.000 C 
ATOM      8  O   UNL     1      -9.163  -5.088  13.924  0.00  0.00    +0.000 OA
ATOM      9  C   UNL     1      -9.869  -6.395  15.846  0.00  0.00    +0.000 C 
ATOM     10  C   UNL     1      -9.103  -7.468  15.604  0.00  0.00    +0.000 C 
ATOM     11  C   UNL     1     -10.837  -6.102  16.941  0.00  0.00    +0.000 C 
ATOM     12  O   UNL     1     -11.159  -6.808  17.872  0.00  0.00    +0.000 OA
ATOM     13  H   UNL     1     -13.197  -2.053  17.464  0.00  0.00    +0.000 HD
ATOM     14  H   UNL     1     -12.682  -4.343  18.295  0.00  0.00    +0.000 HD
ATOM     15  H   UNL     1     -10.522  -2.621  14.118  0.00  0.00    +0.000 HD
ATOM     16  H   UNL     1      -8.449  -7.475  14.732  0.00  0.00    +0.000 HD
ENDROOT
BRANCH  10  17
ATOM     17  C   UNL     1      -9.044  -8.680  16.414  0.00  0.00    +0.000 A 
ATOM     18  C   UNL     1      -9.080  -9.936  15.800  0.00  0.00    +0.000 A 
ATOM     19  C   UNL     1      -8.989 -11.092  16.576  0.00  0.00    +0.000 A 
ATOM     20 CL   UNL     1      -9.025 -12.632  15.796  0.00  0.00    +0.000 Cl
ATOM     21  C   UNL     1      -8.857 -11.008  17.965  0.00  0.00    +0.000 A 
ATOM     22  C   UNL     1      -8.805  -9.753  18.576  0.00  0.00    +0.000 A 
ATOM     23 CL   UNL     1      -8.614  -9.590  20.284  0.00  0.00    +0.000 Cl
ATOM     24  C   UNL     1      -8.898  -8.592  17.803  0.00  0.00    +0.000 A 
ATOM     25  H   UNL     1      -9.170 -10.015  14.719  0.00  0.00    +0.000 HD
ATOM     26  H   UNL     1      -8.848  -7.619  18.287  0.00  0.00    +0.000 HD
BRANCH  21  27
ATOM     27  O   UNL     1      -8.775 -12.143  18.730  0.00  0.00    +0.000 OA
ATOM     28  H   UNL     1      -9.397 -12.796  18.361  0.00  0.00    +0.000 HD
ENDBRANCH  21  27
ENDBRANCH  10  17
BRANCH   1  29
ATOM     29  N   UNL     1     -12.148  -0.868  15.318  0.00  0.00    +0.000 N 
ATOM     30  H   UNL     1     -12.709  -0.729  14.483  0.00  0.00    +0.000 HD
ATOM     31  H   UNL     1     -11.298  -0.310  15.307  0.00  0.00    +0.000 HD
ENDBRANCH   1  29
TORSDOF 3
ENDMDL
