MODEL 1
REMARK VINA RESULT:    -7.868      0.000      0.000
REMARK INTER + INTRA:         -11.072
REMARK INTER:                 -10.398
REMARK INTRA:                  -0.674
REMARK UNBOUND:                -0.674
REMARK  Name = 
REMARK  9 active torsions:
REMARK  status: ('A' for Active; 'I' for Inactive)
REMARK    1  A    between atoms: C_1  and  C_2
REMARK    2  A    between atoms: C_2  and  C_3
REMARK    3  A    between atoms: C_2  and  C_4
REMARK    4  A    between atoms: C_2  and  C_5
REMARK    5  A    between atoms: C_8  and  C_9
REMARK    6  A    between atoms: C_14  and  O_15
REMARK    7  A    between atoms: C_16  and  O_17
REMARK    8  A    between atoms: C_23  and  O_24
REMARK    9  A    between atoms: C_25  and  O_26
REMARK                            x       y       z     vdW  Elec       q    Type
REMARK                         _______ _______ _______ _____ _____    ______ ____
ROOT
ATOM      1  C   UNL     1      -9.889  -4.702  17.918  0.00  0.00    +0.000 C 
ATOM      2  O   UNL     1      -9.503  -4.428  19.062  0.00  0.00    +0.000 OA
ATOM      3  N   UNL     1     -10.493  -3.646  17.192  0.00  0.00    +0.000 N 
ATOM      4  C   UNL     1     -10.956  -2.464  17.791  0.00  0.00    +0.000 A 
ATOM      5  C   UNL     1     -11.220  -2.088  19.118  0.00  0.00    +0.000 A 
ATOM      6  C   UNL     1     -11.208  -0.718  19.368  0.00  0.00    +0.000 A 
ATOM      7  C   UNL     1     -10.890   0.194  18.371  0.00  0.00    +0.000 A 
ATOM      8  C   UNL     1     -10.916  -0.181  17.036  0.00  0.00    +0.000 A 
ATOM      9  C   UNL     1     -11.081  -1.545  16.759  0.00  0.00    +0.000 A 
ATOM     10  C   UNL     1     -11.435  -2.330  15.644  0.00  0.00    +0.000 A 
ATOM     11  C   UNL     1     -12.173  -2.110  14.465  0.00  0.00    +0.000 A 
ATOM     12  C   UNL     1     -12.053  -3.014  13.413  0.00  0.00    +0.000 A 
ATOM     13  C   UNL     1     -11.069  -3.985  13.484  0.00  0.00    +0.000 A 
ATOM     14  C   UNL     1     -10.369  -4.237  14.672  0.00  0.00    +0.000 A 
ATOM     15  C   UNL     1     -10.731  -3.525  15.818  0.00  0.00    +0.000 A 
ATOM     16  H   UNL     1     -11.350  -2.820  19.908  0.00  0.00    +0.000 HD
ATOM     17  H   UNL     1     -10.740   0.539  16.247  0.00  0.00    +0.000 HD
ATOM     18  H   UNL     1     -12.850  -1.263  14.401  0.00  0.00    +0.000 HD
ATOM     19  H   UNL     1     -12.672  -2.884  12.533  0.00  0.00    +0.000 HD
ENDROOT
BRANCH   1  23
ATOM     20  C   UNL     1      -9.455  -8.706  16.370  0.00  0.00    +0.000 A 
ATOM     21  C   UNL     1      -8.328  -7.939  16.715  0.00  0.00    +0.000 A 
ATOM     22  C   UNL     1      -8.451  -6.650  17.247  0.00  0.00    +0.000 A 
ATOM     23  C   UNL     1      -9.710  -6.114  17.507  0.00  0.00    +0.000 A 
ATOM     24  C   UNL     1     -10.846  -6.884  17.218  0.00  0.00    +0.000 A 
ATOM     25  C   UNL     1     -10.720  -8.162  16.658  0.00  0.00    +0.000 A 
ATOM     26  H   UNL     1      -7.318  -8.305  16.549  0.00  0.00    +0.000 HD
ATOM     27  H   UNL     1      -7.548  -6.080  17.436  0.00  0.00    +0.000 HD
ATOM     28  H   UNL     1     -11.840  -6.475  17.388  0.00  0.00    +0.000 HD
ATOM     29  H   UNL     1     -11.631  -8.708  16.421  0.00  0.00    +0.000 HD
BRANCH  20  30
ATOM     30  C   UNL     1      -9.335 -10.057  15.640  0.00  0.00    +0.000 C 
BRANCH  30  31
ATOM     31  C   UNL     1      -7.948 -10.284  14.996  0.00  0.00    +0.000 C 
ATOM     32  H   UNL     1      -8.029 -10.410  13.911  0.00  0.00    +0.000 HD
ATOM     33  H   UNL     1      -7.462 -11.184  15.393  0.00  0.00    +0.000 HD
ATOM     34  H   UNL     1      -7.278  -9.432  15.171  0.00  0.00    +0.000 HD
ENDBRANCH  30  31
BRANCH  30  35
ATOM     35  C   UNL     1     -10.376 -10.112  14.500  0.00  0.00    +0.000 C 
ATOM     36  H   UNL     1     -10.460  -9.142  13.996  0.00  0.00    +0.000 HD
ATOM     37  H   UNL     1     -11.368 -10.374  14.884  0.00  0.00    +0.000 HD
ATOM     38  H   UNL     1     -10.114 -10.850  13.734  0.00  0.00    +0.000 HD
ENDBRANCH  30  35
BRANCH  30  39
ATOM     39  C   UNL     1      -9.589 -11.227  16.611  0.00  0.00    +0.000 C 
ATOM     40  H   UNL     1      -8.703 -11.421  17.228  0.00  0.00    +0.000 HD
ATOM     41  H   UNL     1      -9.823 -12.159  16.086  0.00  0.00    +0.000 HD
ATOM     42  H   UNL     1     -10.423 -11.009  17.286  0.00  0.00    +0.000 HD
ENDBRANCH  30  39
ENDBRANCH  20  30
ENDBRANCH   1  23
BRANCH   6  43
ATOM     43  O   UNL     1     -11.494  -0.224  20.610  0.00  0.00    +0.000 OA
ATOM     44  H   UNL     1     -11.853   0.670  20.460  0.00  0.00    +0.000 HD
ENDBRANCH   6  43
BRANCH   7  45
ATOM     45  O   UNL     1     -10.567   1.478  18.703  0.00  0.00    +0.000 OA
ATOM     46  H   UNL     1     -10.963   2.017  17.986  0.00  0.00    +0.000 HD
ENDBRANCH   7  45
BRANCH  13  47
ATOM     47  O   UNL     1     -10.732  -4.725  12.383  0.00  0.00    +0.000 OA
ATOM     48  H   UNL     1      -9.823  -4.486  12.128  0.00  0.00    +0.000 HD
ENDBRANCH  13  47
BRANCH  14  49
ATOM     49  O   UNL     1      -9.299  -5.088  14.659  0.00  0.00    +0.000 OA
ATOM     50  H   UNL     1      -8.884  -4.945  13.783  0.00  0.00    +0.000 HD
ENDBRANCH  14  49
TORSDOF 9
ENDMDL
MODEL 2
REMARK VINA RESULT:    -7.609      2.868      6.891
REMARK INTER + INTRA:         -10.729
REMARK INTER:                 -10.110
REMARK INTRA:                  -0.619
REMARK UNBOUND:                -0.674
REMARK  Name = 
REMARK  9 active torsions:
REMARK  status: ('A' for Active; 'I' for Inactive)
REMARK    1  A    between atoms: C_1  and  C_2
REMARK    2  A    between atoms: C_2  and  C_3
REMARK    3  A    between atoms: C_2  and  C_4
REMARK    4  A    between atoms: C_2  and  C_5
REMARK    5  A    between atoms: C_8  and  C_9
REMARK    6  A    between atoms: C_14  and  O_15
REMARK    7  A    between atoms: C_16  and  O_17
REMARK    8  A    between atoms: C_23  and  O_24
REMARK    9  A    between atoms: C_25  and  O_26
REMARK                            x       y       z     vdW  Elec       q    Type
REMARK                         _______ _______ _______ _____ _____    ______ ____
ROOT
ATOM      1  C   UNL     1     -11.161  -1.075  18.512  0.00  0.00    +0.000 C 
ATOM      2  O   UNL     1     -11.367   0.062  18.065  0.00  0.00    +0.000 OA
ATOM      3  N   UNL     1     -11.342  -2.147  17.605  0.00  0.00    +0.000 N 
ATOM      4  C   UNL     1     -12.031  -2.019  16.388  0.00  0.00    +0.000 A 
ATOM      5  C   UNL     1     -12.896  -1.046  15.859  0.00  0.00    +0.000 A 
ATOM      6  C   UNL     1     -13.000  -1.026  14.472  0.00  0.00    +0.000 A 
ATOM      7  C   UNL     1     -12.242  -1.877  13.679  0.00  0.00    +0.000 A 
ATOM      8  C   UNL     1     -11.629  -2.994  14.227  0.00  0.00    +0.000 A 
ATOM      9  C   UNL     1     -11.646  -3.110  15.623  0.00  0.00    +0.000 A 
ATOM     10  C   UNL     1     -11.427  -4.131  16.570  0.00  0.00    +0.000 A 
ATOM     11  C   UNL     1     -11.513  -5.536  16.557  0.00  0.00    +0.000 A 
ATOM     12  C   UNL     1     -10.908  -6.260  17.581  0.00  0.00    +0.000 A 
ATOM     13  C   UNL     1     -10.080  -5.590  18.466  0.00  0.00    +0.000 A 
ATOM     14  C   UNL     1     -10.032  -4.190  18.511  0.00  0.00    +0.000 A 
ATOM     15  C   UNL     1     -10.896  -3.471  17.682  0.00  0.00    +0.000 A 
ATOM     16  H   UNL     1     -13.389  -0.313  16.489  0.00  0.00    +0.000 HD
ATOM     17  H   UNL     1     -11.096  -3.703  13.606  0.00  0.00    +0.000 HD
ATOM     18  H   UNL     1     -12.075  -6.038  15.774  0.00  0.00    +0.000 HD
ATOM     19  H   UNL     1     -11.032  -7.337  17.610  0.00  0.00    +0.000 HD
ENDROOT
BRANCH   1  23
ATOM     20  C   UNL     1     -10.080  -1.629  22.653  0.00  0.00    +0.000 A 
ATOM     21  C   UNL     1      -9.204  -0.990  21.756  0.00  0.00    +0.000 A 
ATOM     22  C   UNL     1      -9.551  -0.775  20.418  0.00  0.00    +0.000 A 
ATOM     23  C   UNL     1     -10.812  -1.138  19.951  0.00  0.00    +0.000 A 
ATOM     24  C   UNL     1     -11.719  -1.730  20.842  0.00  0.00    +0.000 A 
ATOM     25  C   UNL     1     -11.358  -1.970  22.174  0.00  0.00    +0.000 A 
ATOM     26  H   UNL     1      -8.211  -0.672  22.062  0.00  0.00    +0.000 HD
ATOM     27  H   UNL     1      -8.812  -0.334  19.757  0.00  0.00    +0.000 HD
ATOM     28  H   UNL     1     -12.700  -2.046  20.492  0.00  0.00    +0.000 HD
ATOM     29  H   UNL     1     -12.084  -2.461  22.819  0.00  0.00    +0.000 HD
BRANCH  20  30
ATOM     30  C   UNL     1      -9.654  -2.014  24.081  0.00  0.00    +0.000 C 
BRANCH  30  31
ATOM     31  C   UNL     1      -8.513  -3.056  24.121  0.00  0.00    +0.000 C 
ATOM     32  H   UNL     1      -7.666  -2.742  23.501  0.00  0.00    +0.000 HD
ATOM     33  H   UNL     1      -8.846  -4.032  23.746  0.00  0.00    +0.000 HD
ATOM     34  H   UNL     1      -8.131  -3.196  25.140  0.00  0.00    +0.000 HD
ENDBRANCH  30  31
BRANCH  30  35
ATOM     35  C   UNL     1     -10.860  -2.637  24.820  0.00  0.00    +0.000 C 
ATOM     36  H   UNL     1     -10.970  -3.699  24.569  0.00  0.00    +0.000 HD
ATOM     37  H   UNL     1     -11.794  -2.132  24.546  0.00  0.00    +0.000 HD
ATOM     38  H   UNL     1     -10.759  -2.573  25.909  0.00  0.00    +0.000 HD
ENDBRANCH  30  35
BRANCH  30  39
ATOM     39  C   UNL     1      -9.173  -0.774  24.861  0.00  0.00    +0.000 C 
ATOM     40  H   UNL     1      -9.164   0.113  24.216  0.00  0.00    +0.000 HD
ATOM     41  H   UNL     1      -8.156  -0.897  25.250  0.00  0.00    +0.000 HD
ATOM     42  H   UNL     1      -9.829  -0.560  25.711  0.00  0.00    +0.000 HD
ENDBRANCH  30  39
ENDBRANCH  20  30
ENDBRANCH   1  23
BRANCH   6  43
ATOM     43  O   UNL     1     -13.843  -0.155  13.839  0.00  0.00    +0.000 OA
ATOM     44  H   UNL     1     -13.736  -0.332  12.886  0.00  0.00    +0.000 HD
ENDBRANCH   6  43
BRANCH   7  45
ATOM     45  O   UNL     1     -12.113  -1.626  12.343  0.00  0.00    +0.000 OA
ATOM     46  H   UNL     1     -12.909  -1.100  12.121  0.00  0.00    +0.000 HD
ENDBRANCH   7  45
BRANCH  13  47
ATOM     47  O   UNL     1      -9.261  -6.279  19.319  0.00  0.00    +0.000 OA
ATOM     48  H   UNL     1      -9.825  -6.763  19.949  0.00  0.00    +0.000 HD
ENDBRANCH  13  47
BRANCH  14  49
ATOM     49  O   UNL     1      -9.088  -3.570  19.282  0.00  0.00    +0.000 OA
ATOM     50  H   UNL     1      -8.761  -2.836  18.723  0.00  0.00    +0.000 HD
ENDBRANCH  14  49
TORSDOF 9
ENDMDL
MODEL 3
REMARK VINA RESULT:    -7.591      3.543      6.520
REMARK INTER + INTRA:         -10.705
REMARK INTER:                 -10.053
REMARK INTRA:                  -0.652
REMARK UNBOUND:                -0.674
REMARK  Name = 
REMARK  9 active torsions:
REMARK  status: ('A' for Active; 'I' for Inactive)
REMARK    1  A    between atoms: C_1  and  C_2
REMARK    2  A    between atoms: C_2  and  C_3
REMARK    3  A    between atoms: C_2  and  C_4
REMARK    4  A    between atoms: C_2  and  C_5
REMARK    5  A    between atoms: C_8  and  C_9
REMARK    6  A    between atoms: C_14  and  O_15
REMARK    7  A    between atoms: C_16  and  O_17
REMARK    8  A    between atoms: C_23  and  O_24
REMARK    9  A    between atoms: C_25  and  O_26
REMARK                            x       y       z     vdW  Elec       q    Type
REMARK                         _______ _______ _______ _____ _____    ______ ____
ROOT
ATOM      1  C   UNL     1     -10.407  -2.127  20.118  0.00  0.00    +0.000 C 
ATOM      2  O   UNL     1     -11.183  -1.471  20.826  0.00  0.00    +0.000 OA
ATOM      3  N   UNL     1      -9.302  -2.716  20.779  0.00  0.00    +0.000 N 
ATOM      4  C   UNL     1      -8.879  -2.335  22.062  0.00  0.00    +0.000 A 
ATOM      5  C   UNL     1      -9.151  -1.231  22.886  0.00  0.00    +0.000 A 
ATOM      6  C   UNL     1      -8.934  -1.428  24.247  0.00  0.00    +0.000 A 
ATOM      7  C   UNL     1      -8.535  -2.662  24.742  0.00  0.00    +0.000 A 
ATOM      8  C   UNL     1      -8.010  -3.627  23.896  0.00  0.00    +0.000 A 
ATOM      9  C   UNL     1      -8.083  -3.376  22.519  0.00  0.00    +0.000 A 
ATOM     10  C   UNL     1      -7.475  -3.878  21.351  0.00  0.00    +0.000 A 
ATOM     11  C   UNL     1      -6.259  -4.527  21.061  0.00  0.00    +0.000 A 
ATOM     12  C   UNL     1      -6.117  -5.183  19.841  0.00  0.00    +0.000 A 
ATOM     13  C   UNL     1      -7.235  -5.343  19.041  0.00  0.00    +0.000 A 
ATOM     14  C   UNL     1      -8.430  -4.658  19.303  0.00  0.00    +0.000 A 
ATOM     15  C   UNL     1      -8.454  -3.748  20.362  0.00  0.00    +0.000 A 
ATOM     16  H   UNL     1      -9.574  -0.312  22.494  0.00  0.00    +0.000 HD
ATOM     17  H   UNL     1      -7.630  -4.565  24.280  0.00  0.00    +0.000 HD
ATOM     18  H   UNL     1      -5.438  -4.481  21.771  0.00  0.00    +0.000 HD
ATOM     19  H   UNL     1      -5.159  -5.623  19.588  0.00  0.00    +0.000 HD
ENDROOT
BRANCH   1  23
ATOM     20  C   UNL     1     -11.075  -2.445  15.867  0.00  0.00    +0.000 A 
ATOM     21  C   UNL     1     -11.993  -2.987  16.785  0.00  0.00    +0.000 A 
ATOM     22  C   UNL     1     -11.808  -2.866  18.166  0.00  0.00    +0.000 A 
ATOM     23  C   UNL     1     -10.728  -2.145  18.671  0.00  0.00    +0.000 A 
ATOM     24  C   UNL     1      -9.830  -1.554  17.771  0.00  0.00    +0.000 A 
ATOM     25  C   UNL     1     -10.002  -1.701  16.389  0.00  0.00    +0.000 A 
ATOM     26  H   UNL     1     -12.862  -3.549  16.455  0.00  0.00    +0.000 HD
ATOM     27  H   UNL     1     -12.514  -3.357  18.828  0.00  0.00    +0.000 HD
ATOM     28  H   UNL     1      -8.964  -1.009  18.144  0.00  0.00    +0.000 HD
ATOM     29  H   UNL     1      -9.260  -1.251  15.731  0.00  0.00    +0.000 HD
BRANCH  20  30
ATOM     30  C   UNL     1     -11.181  -2.704  14.353  0.00  0.00    +0.000 C 
BRANCH  30  31
ATOM     31  C   UNL     1     -11.711  -4.115  14.008  0.00  0.00    +0.000 C 
ATOM     32  H   UNL     1     -12.428  -4.078  13.181  0.00  0.00    +0.000 HD
ATOM     33  H   UNL     1     -12.224  -4.572  14.863  0.00  0.00    +0.000 HD
ATOM     34  H   UNL     1     -10.900  -4.786  13.700  0.00  0.00    +0.000 HD
ENDBRANCH  30  31
BRANCH  30  35
ATOM     35  C   UNL     1      -9.777  -2.583  13.718  0.00  0.00    +0.000 C 
ATOM     36  H   UNL     1      -9.513  -3.495  13.169  0.00  0.00    +0.000 HD
ATOM     37  H   UNL     1      -9.010  -2.423  14.485  0.00  0.00    +0.000 HD
ATOM     38  H   UNL     1      -9.712  -1.751  13.009  0.00  0.00    +0.000 HD
ENDBRANCH  30  35
BRANCH  30  39
ATOM     39  C   UNL     1     -12.123  -1.683  13.687  0.00  0.00    +0.000 C 
ATOM     40  H   UNL     1     -12.922  -1.382  14.377  0.00  0.00    +0.000 HD
ATOM     41  H   UNL     1     -12.609  -2.086  12.792  0.00  0.00    +0.000 HD
ATOM     42  H   UNL     1     -11.582  -0.778  13.391  0.00  0.00    +0.000 HD
ENDBRANCH  30  39
ENDBRANCH  20  30
ENDBRANCH   1  23
BRANCH   6  43
ATOM     43  O   UNL     1      -9.121  -0.416  25.146  0.00  0.00    +0.000 OA
ATOM     44  H   UNL     1      -9.965  -0.615  25.593  0.00  0.00    +0.000 HD
ENDBRANCH   6  43
BRANCH   7  45
ATOM     45  O   UNL     1      -8.643  -2.926  26.077  0.00  0.00    +0.000 OA
ATOM     46  H   UNL     1      -9.575  -2.711  26.289  0.00  0.00    +0.000 HD
ENDBRANCH   7  45
BRANCH  13  47
ATOM     47  O   UNL     1      -7.216  -6.196  17.970  0.00  0.00    +0.000 OA
ATOM     48  H   UNL     1      -7.850  -6.914  18.149  0.00  0.00    +0.000 HD
ENDBRANCH  13  47
BRANCH  14  49
ATOM     49  O   UNL     1      -9.555  -4.965  18.588  0.00  0.00    +0.000 OA
ATOM     50  H   UNL     1     -10.124  -4.173  18.678  0.00  0.00    +0.000 HD
ENDBRANCH  14  49
TORSDOF 9
ENDMDL
MODEL 4
REMARK VINA RESULT:    -7.553      1.217      1.478
REMARK INTER + INTRA:         -10.655
REMARK INTER:                  -9.990
REMARK INTRA:                  -0.666
REMARK UNBOUND:                -0.674
REMARK  Name = 
REMARK  9 active torsions:
REMARK  status: ('A' for Active; 'I' for Inactive)
REMARK    1  A    between atoms: C_1  and  C_2
REMARK    2  A    between atoms: C_2  and  C_3
REMARK    3  A    between atoms: C_2  and  C_4
REMARK    4  A    between atoms: C_2  and  C_5
REMARK    5  A    between atoms: C_8  and  C_9
REMARK    6  A    between atoms: C_14  and  O_15
REMARK    7  A    between atoms: C_16  and  O_17
REMARK    8  A    between atoms: C_23  and  O_24
REMARK    9  A    between atoms: C_25  and  O_26
REMARK                            x       y       z     vdW  Elec       q    Type
REMARK                         _______ _______ _______ _____ _____    ______ ____
ROOT
ATOM      1  C   UNL     1      -9.427  -4.140  18.854  0.00  0.00    +0.000 C 
ATOM      2  O   UNL     1      -8.765  -3.951  19.883  0.00  0.00    +0.000 OA
ATOM      3  N   UNL     1     -10.135  -3.021  18.351  0.00  0.00    +0.000 N 
ATOM      4  C   UNL     1     -10.382  -1.863  19.105  0.00  0.00    +0.000 A 
ATOM      5  C   UNL     1     -10.303  -1.560  20.474  0.00  0.00    +0.000 A 
ATOM      6  C   UNL     1     -10.163  -0.210  20.783  0.00  0.00    +0.000 A 
ATOM      7  C   UNL     1     -10.050   0.751  19.787  0.00  0.00    +0.000 A 
ATOM      8  C   UNL     1     -10.413   0.460  18.481  0.00  0.00    +0.000 A 
ATOM      9  C   UNL     1     -10.705  -0.878  18.182  0.00  0.00    +0.000 A 
ATOM     10  C   UNL     1     -11.354  -1.580  17.147  0.00  0.00    +0.000 A 
ATOM     11  C   UNL     1     -12.342  -1.261  16.195  0.00  0.00    +0.000 A 
ATOM     12  C   UNL     1     -12.522  -2.102  15.100  0.00  0.00    +0.000 A 
ATOM     13  C   UNL     1     -11.598  -3.110  14.880  0.00  0.00    +0.000 A 
ATOM     14  C   UNL     1     -10.647  -3.459  15.849  0.00  0.00    +0.000 A 
ATOM     15  C   UNL     1     -10.689  -2.807  17.084  0.00  0.00    +0.000 A 
ATOM     16  H   UNL     1     -10.275  -2.335  21.233  0.00  0.00    +0.000 HD
ATOM     17  H   UNL     1     -10.396   1.221  17.711  0.00  0.00    +0.000 HD
ATOM     18  H   UNL     1     -12.973  -0.388  16.340  0.00  0.00    +0.000 HD
ATOM     19  H   UNL     1     -13.327  -1.896  14.403  0.00  0.00    +0.000 HD
ENDROOT
BRANCH   1  23
ATOM     20  C   UNL     1      -9.549  -8.050  17.033  0.00  0.00    +0.000 A 
ATOM     21  C   UNL     1      -8.328  -7.375  17.214  0.00  0.00    +0.000 A 
ATOM     22  C   UNL     1      -8.267  -6.120  17.829  0.00  0.00    +0.000 A 
ATOM     23  C   UNL     1      -9.421  -5.530  18.340  0.00  0.00    +0.000 A 
ATOM     24  C   UNL     1     -10.641  -6.211  18.216  0.00  0.00    +0.000 A 
ATOM     25  C   UNL     1     -10.703  -7.454  17.573  0.00  0.00    +0.000 A 
ATOM     26  H   UNL     1      -7.391  -7.787  16.849  0.00  0.00    +0.000 HD
ATOM     27  H   UNL     1      -7.307  -5.617  17.886  0.00  0.00    +0.000 HD
ATOM     28  H   UNL     1     -11.559  -5.756  18.583  0.00  0.00    +0.000 HD
ATOM     29  H   UNL     1     -11.677  -7.929  17.472  0.00  0.00    +0.000 HD
BRANCH  20  30
ATOM     30  C   UNL     1      -9.652  -9.353  16.220  0.00  0.00    +0.000 C 
BRANCH  30  31
ATOM     31  C   UNL     1      -8.770  -9.355  14.950  0.00  0.00    +0.000 C 
ATOM     32  H   UNL     1      -7.920  -8.672  15.056  0.00  0.00    +0.000 HD
ATOM     33  H   UNL     1      -9.336  -9.035  14.066  0.00  0.00    +0.000 HD
ATOM     34  H   UNL     1      -8.357 -10.351  14.747  0.00  0.00    +0.000 HD
ENDBRANCH  30  31
BRANCH  30  35
ATOM     35  C   UNL     1     -11.113  -9.547  15.754  0.00  0.00    +0.000 C 
ATOM     36  H   UNL     1     -11.523 -10.493  16.126  0.00  0.00    +0.000 HD
ATOM     37  H   UNL     1     -11.178  -9.563  14.659  0.00  0.00    +0.000 HD
ATOM     38  H   UNL     1     -11.772  -8.748  16.111  0.00  0.00    +0.000 HD
ENDBRANCH  30  35
BRANCH  30  39
ATOM     39  C   UNL     1      -9.232 -10.566  17.073  0.00  0.00    +0.000 C 
ATOM     40  H   UNL     1      -8.154 -10.751  16.984  0.00  0.00    +0.000 HD
ATOM     41  H   UNL     1      -9.740 -11.486  16.768  0.00  0.00    +0.000 HD
ATOM     42  H   UNL     1      -9.454 -10.401  18.133  0.00  0.00    +0.000 HD
ENDBRANCH  30  39
ENDBRANCH  20  30
ENDBRANCH   1  23
BRANCH   6  43
ATOM     43  O   UNL     1     -10.119   0.216  22.082  0.00  0.00    +0.000 OA
ATOM     44  H   UNL     1      -9.333   0.790  22.142  0.00  0.00    +0.000 HD
ENDBRANCH   6  43
BRANCH   7  45
ATOM     45  O   UNL     1      -9.594   2.000  20.097  0.00  0.00    +0.000 OA
ATOM     46  H   UNL     1     -10.404   2.498  20.331  0.00  0.00    +0.000 HD
ENDBRANCH   7  45
BRANCH  13  47
ATOM     47  O   UNL     1     -11.572  -3.792  13.693  0.00  0.00    +0.000 OA
ATOM     48  H   UNL     1     -10.765  -3.528  13.215  0.00  0.00    +0.000 HD
ENDBRANCH  13  47
BRANCH  14  49
ATOM     49  O   UNL     1      -9.654  -4.345  15.533  0.00  0.00    +0.000 OA
ATOM     50  H   UNL     1     -10.052  -5.225  15.696  0.00  0.00    +0.000 HD
ENDBRANCH  14  49
TORSDOF 9
ENDMDL
MODEL 5
REMARK VINA RESULT:    -7.127      4.869     10.620
REMARK INTER + INTRA:         -10.093
REMARK INTER:                  -9.417
REMARK INTRA:                  -0.676
REMARK UNBOUND:                -0.674
REMARK  Name = 
REMARK  9 active torsions:
REMARK  status: ('A' for Active; 'I' for Inactive)
REMARK    1  A    between atoms: C_1  and  C_2
REMARK    2  A    between atoms: C_2  and  C_3
REMARK    3  A    between atoms: C_2  and  C_4
REMARK    4  A    between atoms: C_2  and  C_5
REMARK    5  A    between atoms: C_8  and  C_9
REMARK    6  A    between atoms: C_14  and  O_15
REMARK    7  A    between atoms: C_16  and  O_17
REMARK    8  A    between atoms: C_23  and  O_24
REMARK    9  A    between atoms: C_25  and  O_26
REMARK                            x       y       z     vdW  Elec       q    Type
REMARK                         _______ _______ _______ _____ _____    ______ ____
ROOT
ATOM      1  C   UNL     1      -9.909  -0.282  20.807  0.00  0.00    +0.000 C 
ATOM      2  O   UNL     1      -9.787  -0.374  19.579  0.00  0.00    +0.000 OA
ATOM      3  N   UNL     1      -9.371  -1.346  21.571  0.00  0.00    +0.000 N 
ATOM      4  C   UNL     1      -9.025  -2.591  21.023  0.00  0.00    +0.000 A 
ATOM      5  C   UNL     1      -9.314  -3.230  19.805  0.00  0.00    +0.000 A 
ATOM      6  C   UNL     1      -8.426  -4.232  19.428  0.00  0.00    +0.000 A 
ATOM      7  C   UNL     1      -7.300  -4.523  20.187  0.00  0.00    +0.000 A 
ATOM      8  C   UNL     1      -7.200  -4.084  21.498  0.00  0.00    +0.000 A 
ATOM      9  C   UNL     1      -8.178  -3.185  21.947  0.00  0.00    +0.000 A 
ATOM     10  C   UNL     1      -8.642  -2.711  23.190  0.00  0.00    +0.000 A 
ATOM     11  C   UNL     1      -8.645  -3.208  24.508  0.00  0.00    +0.000 A 
ATOM     12  C   UNL     1      -8.896  -2.332  25.560  0.00  0.00    +0.000 A 
ATOM     13  C   UNL     1      -8.939  -0.974  25.295  0.00  0.00    +0.000 A 
ATOM     14  C   UNL     1      -8.986  -0.482  23.984  0.00  0.00    +0.000 A 
ATOM     15  C   UNL     1      -9.056  -1.401  22.934  0.00  0.00    +0.000 A 
ATOM     16  H   UNL     1     -10.132  -2.909  19.169  0.00  0.00    +0.000 HD
ATOM     17  H   UNL     1      -6.361  -4.364  22.122  0.00  0.00    +0.000 HD
ATOM     18  H   UNL     1      -8.487  -4.268  24.687  0.00  0.00    +0.000 HD
ATOM     19  H   UNL     1      -8.967  -2.725  26.568  0.00  0.00    +0.000 HD
ENDROOT
BRANCH   1  23
ATOM     20  C   UNL     1     -11.944   3.104  22.543  0.00  0.00    +0.000 A 
ATOM     21  C   UNL     1     -10.809   3.281  21.732  0.00  0.00    +0.000 A 
ATOM     22  C   UNL     1     -10.154   2.197  21.137  0.00  0.00    +0.000 A 
ATOM     23  C   UNL     1     -10.656   0.906  21.285  0.00  0.00    +0.000 A 
ATOM     24  C   UNL     1     -11.817   0.715  22.047  0.00  0.00    +0.000 A 
ATOM     25  C   UNL     1     -12.453   1.798  22.666  0.00  0.00    +0.000 A 
ATOM     26  H   UNL     1     -10.376   4.265  21.567  0.00  0.00    +0.000 HD
ATOM     27  H   UNL     1      -9.247   2.387  20.573  0.00  0.00    +0.000 HD
ATOM     28  H   UNL     1     -12.210  -0.289  22.198  0.00  0.00    +0.000 HD
ATOM     29  H   UNL     1     -13.332   1.595  23.274  0.00  0.00    +0.000 HD
BRANCH  20  30
ATOM     30  C   UNL     1     -12.579   4.265  23.330  0.00  0.00    +0.000 C 
BRANCH  30  31
ATOM     31  C   UNL     1     -13.844   4.843  22.655  0.00  0.00    +0.000 C 
ATOM     32  H   UNL     1     -13.685   5.002  21.583  0.00  0.00    +0.000 HD
ATOM     33  H   UNL     1     -14.125   5.811  23.089  0.00  0.00    +0.000 HD
ATOM     34  H   UNL     1     -14.700   4.164  22.756  0.00  0.00    +0.000 HD
ENDBRANCH  30  31
BRANCH  30  35
ATOM     35  C   UNL     1     -11.559   5.421  23.441  0.00  0.00    +0.000 C 
ATOM     36  H   UNL     1     -11.395   5.897  22.467  0.00  0.00    +0.000 HD
ATOM     37  H   UNL     1     -10.589   5.058  23.801  0.00  0.00    +0.000 HD
ATOM     38  H   UNL     1     -11.893   6.205  24.130  0.00  0.00    +0.000 HD
ENDBRANCH  30  35
BRANCH  30  39
ATOM     39  C   UNL     1     -12.980   3.811  24.747  0.00  0.00    +0.000 C 
ATOM     40  H   UNL     1     -13.309   4.664  25.352  0.00  0.00    +0.000 HD
ATOM     41  H   UNL     1     -12.150   3.339  25.283  0.00  0.00    +0.000 HD
ATOM     42  H   UNL     1     -13.805   3.090  24.714  0.00  0.00    +0.000 HD
ENDBRANCH  30  39
ENDBRANCH  20  30
ENDBRANCH   1  23
BRANCH   6  43
ATOM     43  O   UNL     1      -8.623  -4.957  18.285  0.00  0.00    +0.000 OA
ATOM     44  H   UNL     1      -9.464  -5.433  18.419  0.00  0.00    +0.000 HD
ENDBRANCH   6  43
BRANCH   7  45
ATOM     45  O   UNL     1      -6.288  -5.263  19.646  0.00  0.00    +0.000 OA
ATOM     46  H   UNL     1      -6.749  -5.960  19.136  0.00  0.00    +0.000 HD
ENDBRANCH   7  45
BRANCH  13  47
ATOM     47  O   UNL     1      -8.919  -0.059  26.314  0.00  0.00    +0.000 OA
ATOM     48  H   UNL     1      -9.547  -0.358  26.997  0.00  0.00    +0.000 HD
ENDBRANCH  13  47
BRANCH  14  49
ATOM     49  O   UNL     1      -8.866   0.862  23.761  0.00  0.00    +0.000 OA
ATOM     50  H   UNL     1      -8.730   0.937  22.794  0.00  0.00    +0.000 HD
ENDBRANCH  14  49
TORSDOF 9
ENDMDL
MODEL 6
REMARK VINA RESULT:    -7.092      3.642      7.152
REMARK INTER + INTRA:         -10.046
REMARK INTER:                  -9.306
REMARK INTRA:                  -0.740
REMARK UNBOUND:                -0.674
REMARK  Name = 
REMARK  9 active torsions:
REMARK  status: ('A' for Active; 'I' for Inactive)
REMARK    1  A    between atoms: C_1  and  C_2
REMARK    2  A    between atoms: C_2  and  C_3
REMARK    3  A    between atoms: C_2  and  C_4
REMARK    4  A    between atoms: C_2  and  C_5
REMARK    5  A    between atoms: C_8  and  C_9
REMARK    6  A    between atoms: C_14  and  O_15
REMARK    7  A    between atoms: C_16  and  O_17
REMARK    8  A    between atoms: C_23  and  O_24
REMARK    9  A    between atoms: C_25  and  O_26
REMARK                            x       y       z     vdW  Elec       q    Type
REMARK                         _______ _______ _______ _____ _____    ______ ____
ROOT
ATOM      1  C   UNL     1     -10.899  -2.363  18.569  0.00  0.00    +0.000 C 
ATOM      2  O   UNL     1     -11.842  -3.148  18.405  0.00  0.00    +0.000 OA
ATOM      3  N   UNL     1     -10.328  -1.816  17.393  0.00  0.00    +0.000 N 
ATOM      4  C   UNL     1     -10.543  -2.349  16.112  0.00  0.00    +0.000 A 
ATOM      5  C   UNL     1     -11.057  -3.569  15.641  0.00  0.00    +0.000 A 
ATOM      6  C   UNL     1     -11.553  -3.549  14.341  0.00  0.00    +0.000 A 
ATOM      7  C   UNL     1     -11.585  -2.377  13.598  0.00  0.00    +0.000 A 
ATOM      8  C   UNL     1     -10.825  -1.280  13.976  0.00  0.00    +0.000 A 
ATOM      9  C   UNL     1     -10.191  -1.343  15.225  0.00  0.00    +0.000 A 
ATOM     10  C   UNL     1      -9.152  -0.655  15.883  0.00  0.00    +0.000 A 
ATOM     11  C   UNL     1      -8.029   0.087  15.467  0.00  0.00    +0.000 A 
ATOM     12  C   UNL     1      -7.385   0.911  16.387  0.00  0.00    +0.000 A 
ATOM     13  C   UNL     1      -7.983   1.124  17.617  0.00  0.00    +0.000 A 
ATOM     14  C   UNL     1      -9.070   0.351  18.050  0.00  0.00    +0.000 A 
ATOM     15  C   UNL     1      -9.505  -0.696  17.235  0.00  0.00    +0.000 A 
ATOM     16  H   UNL     1     -11.131  -4.444  16.277  0.00  0.00    +0.000 HD
ATOM     17  H   UNL     1     -10.787  -0.386  13.367  0.00  0.00    +0.000 HD
ATOM     18  H   UNL     1      -7.658  -0.016  14.451  0.00  0.00    +0.000 HD
ATOM     19  H   UNL     1      -6.481   1.428  16.088  0.00  0.00    +0.000 HD
ENDROOT
BRANCH   1  23
ATOM     20  C   UNL     1      -9.837  -2.109  22.743  0.00  0.00    +0.000 A 
ATOM     21  C   UNL     1      -8.873  -2.431  21.770  0.00  0.00    +0.000 A 
ATOM     22  C   UNL     1      -9.193  -2.488  20.410  0.00  0.00    +0.000 A 
ATOM     23  C   UNL     1     -10.476  -2.163  19.975  0.00  0.00    +0.000 A 
ATOM     24  C   UNL     1     -11.437  -1.789  20.924  0.00  0.00    +0.000 A 
ATOM     25  C   UNL     1     -11.122  -1.761  22.289  0.00  0.00    +0.000 A 
ATOM     26  H   UNL     1      -7.851  -2.682  22.044  0.00  0.00    +0.000 HD
ATOM     27  H   UNL     1      -8.426  -2.803  19.710  0.00  0.00    +0.000 HD
ATOM     28  H   UNL     1     -12.453  -1.557  20.609  0.00  0.00    +0.000 HD
ATOM     29  H   UNL     1     -11.910  -1.496  22.990  0.00  0.00    +0.000 HD
BRANCH  20  30
ATOM     30  C   UNL     1      -9.540  -2.196  24.251  0.00  0.00    +0.000 C 
BRANCH  30  31
ATOM     31  C   UNL     1      -9.058  -0.858  24.859  0.00  0.00    +0.000 C 
ATOM     32  H   UNL     1      -8.971  -0.925  25.949  0.00  0.00    +0.000 HD
ATOM     33  H   UNL     1      -9.756  -0.041  24.638  0.00  0.00    +0.000 HD
ATOM     34  H   UNL     1      -8.070  -0.574  24.474  0.00  0.00    +0.000 HD
ENDBRANCH  30  31
BRANCH  30  35
ATOM     35  C   UNL     1      -8.417  -3.229  24.489  0.00  0.00    +0.000 C 
ATOM     36  H   UNL     1      -7.665  -2.841  25.187  0.00  0.00    +0.000 HD
ATOM     37  H   UNL     1      -7.904  -3.477  23.552  0.00  0.00    +0.000 HD
ATOM     38  H   UNL     1      -8.796  -4.165  24.914  0.00  0.00    +0.000 HD
ENDBRANCH  30  35
BRANCH  30  39
ATOM     39  C   UNL     1     -10.797  -2.629  25.032  0.00  0.00    +0.000 C 
ATOM     40  H   UNL     1     -10.548  -2.859  26.075  0.00  0.00    +0.000 HD
ATOM     41  H   UNL     1     -11.260  -3.526  24.608  0.00  0.00    +0.000 HD
ATOM     42  H   UNL     1     -11.553  -1.837  25.038  0.00  0.00    +0.000 HD
ENDBRANCH  30  39
ENDBRANCH  20  30
ENDBRANCH   1  23
BRANCH   6  43
ATOM     43  O   UNL     1     -12.039  -4.684  13.754  0.00  0.00    +0.000 OA
ATOM     44  H   UNL     1     -11.330  -4.997  13.161  0.00  0.00    +0.000 HD
ENDBRANCH   6  43
BRANCH   7  45
ATOM     45  O   UNL     1     -12.357  -2.305  12.474  0.00  0.00    +0.000 OA
ATOM     46  H   UNL     1     -12.768  -3.192  12.410  0.00  0.00    +0.000 HD
ENDBRANCH   7  45
BRANCH  13  47
ATOM     47  O   UNL     1      -7.541   2.115  18.451  0.00  0.00    +0.000 OA
ATOM     48  H   UNL     1      -7.744   1.850  19.366  0.00  0.00    +0.000 HD
ENDBRANCH  13  47
BRANCH  14  49
ATOM     49  O   UNL     1      -9.732   0.697  19.196  0.00  0.00    +0.000 OA
ATOM     50  H   UNL     1      -9.582  -0.059  19.801  0.00  0.00    +0.000 HD
ENDBRANCH  14  49
TORSDOF 9
ENDMDL
MODEL 7
REMARK VINA RESULT:    -6.775      2.694      5.371
REMARK INTER + INTRA:          -9.628
REMARK INTER:                  -8.965
REMARK INTRA:                  -0.663
REMARK UNBOUND:                -0.674
REMARK  Name = 
REMARK  9 active torsions:
REMARK  status: ('A' for Active; 'I' for Inactive)
REMARK    1  A    between atoms: C_1  and  C_2
REMARK    2  A    between atoms: C_2  and  C_3
REMARK    3  A    between atoms: C_2  and  C_4
REMARK    4  A    between atoms: C_2  and  C_5
REMARK    5  A    between atoms: C_8  and  C_9
REMARK    6  A    between atoms: C_14  and  O_15
REMARK    7  A    between atoms: C_16  and  O_17
REMARK    8  A    between atoms: C_23  and  O_24
REMARK    9  A    between atoms: C_25  and  O_26
REMARK                            x       y       z     vdW  Elec       q    Type
REMARK                         _______ _______ _______ _____ _____    ______ ____
ROOT
ATOM      1  C   UNL     1     -11.308  -1.640  17.773  0.00  0.00    +0.000 C 
ATOM      2  O   UNL     1     -11.523  -1.232  16.624  0.00  0.00    +0.000 OA
ATOM      3  N   UNL     1     -11.369  -0.670  18.804  0.00  0.00    +0.000 N 
ATOM      4  C   UNL     1     -11.328   0.713  18.564  0.00  0.00    +0.000 A 
ATOM      5  C   UNL     1     -10.973   1.496  17.453  0.00  0.00    +0.000 A 
ATOM      6  C   UNL     1     -11.504   2.782  17.430  0.00  0.00    +0.000 A 
ATOM      7  C   UNL     1     -12.376   3.220  18.417  0.00  0.00    +0.000 A 
ATOM      8  C   UNL     1     -12.478   2.541  19.622  0.00  0.00    +0.000 A 
ATOM      9  C   UNL     1     -11.820   1.307  19.717  0.00  0.00    +0.000 A 
ATOM     10  C   UNL     1     -11.414   0.438  20.749  0.00  0.00    +0.000 A 
ATOM     11  C   UNL     1     -11.102   0.590  22.114  0.00  0.00    +0.000 A 
ATOM     12  C   UNL     1     -11.051  -0.540  22.926  0.00  0.00    +0.000 A 
ATOM     13  C   UNL     1     -11.499  -1.745  22.412  0.00  0.00    +0.000 A 
ATOM     14  C   UNL     1     -11.762  -1.908  21.045  0.00  0.00    +0.000 A 
ATOM     15  C   UNL     1     -11.498  -0.839  20.187  0.00  0.00    +0.000 A 
ATOM     16  H   UNL     1     -10.385   1.096  16.633  0.00  0.00    +0.000 HD
ATOM     17  H   UNL     1     -13.100   2.913  20.426  0.00  0.00    +0.000 HD
ATOM     18  H   UNL     1     -10.871   1.575  22.510  0.00  0.00    +0.000 HD
ATOM     19  H   UNL     1     -10.744  -0.433  23.960  0.00  0.00    +0.000 HD
ENDROOT
BRANCH   1  23
ATOM     20  C   UNL     1     -10.172  -5.803  17.738  0.00  0.00    +0.000 A 
ATOM     21  C   UNL     1      -9.415  -4.853  18.447  0.00  0.00    +0.000 A 
ATOM     22  C   UNL     1      -9.785  -3.505  18.494  0.00  0.00    +0.000 A 
ATOM     23  C   UNL     1     -10.962  -3.077  17.884  0.00  0.00    +0.000 A 
ATOM     24  C   UNL     1     -11.757  -4.018  17.214  0.00  0.00    +0.000 A 
ATOM     25  C   UNL     1     -11.369  -5.362  17.144  0.00  0.00    +0.000 A 
ATOM     26  H   UNL     1      -8.494  -5.126  18.956  0.00  0.00    +0.000 HD
ATOM     27  H   UNL     1      -9.131  -2.806  19.004  0.00  0.00    +0.000 HD
ATOM     28  H   UNL     1     -12.666  -3.700  16.707  0.00  0.00    +0.000 HD
ATOM     29  H   UNL     1     -12.002  -6.048  16.586  0.00  0.00    +0.000 HD
BRANCH  20  30
ATOM     30  C   UNL     1      -9.695  -7.253  17.545  0.00  0.00    +0.000 C 
BRANCH  30  31
ATOM     31  C   UNL     1      -9.315  -7.954  18.870  0.00  0.00    +0.000 C 
ATOM     32  H   UNL     1     -10.015  -7.696  19.671  0.00  0.00    +0.000 HD
ATOM     33  H   UNL     1      -8.313  -7.662  19.207  0.00  0.00    +0.000 HD
ATOM     34  H   UNL     1      -9.333  -9.047  18.767  0.00  0.00    +0.000 HD
ENDBRANCH  30  31
BRANCH  30  35
ATOM     35  C   UNL     1      -8.432  -7.259  16.654  0.00  0.00    +0.000 C 
ATOM     36  H   UNL     1      -7.538  -7.005  17.236  0.00  0.00    +0.000 HD
ATOM     37  H   UNL     1      -8.519  -6.527  15.842  0.00  0.00    +0.000 HD
ATOM     38  H   UNL     1      -8.250  -8.237  16.196  0.00  0.00    +0.000 HD
ENDBRANCH  30  35
BRANCH  30  39
ATOM     39  C   UNL     1     -10.789  -8.105  16.872  0.00  0.00    +0.000 C 
ATOM     40  H   UNL     1     -11.788  -7.756  17.162  0.00  0.00    +0.000 HD
ATOM     41  H   UNL     1     -10.725  -9.161  17.152  0.00  0.00    +0.000 HD
ATOM     42  H   UNL     1     -10.721  -8.047  15.780  0.00  0.00    +0.000 HD
ENDBRANCH  30  39
ENDBRANCH  20  30
ENDBRANCH   1  23
BRANCH   6  43
ATOM     43  O   UNL     1     -11.196   3.655  16.424  0.00  0.00    +0.000 OA
ATOM     44  H   UNL     1     -11.292   3.146  15.597  0.00  0.00    +0.000 HD
ENDBRANCH   6  43
BRANCH   7  45
ATOM     45  O   UNL     1     -13.129   4.340  18.210  0.00  0.00    +0.000 OA
ATOM     46  H   UNL     1     -14.011   3.993  17.965  0.00  0.00    +0.000 HD
ENDBRANCH   7  45
BRANCH  13  47
ATOM     47  O   UNL     1     -11.719  -2.819  23.231  0.00  0.00    +0.000 OA
ATOM     48  H   UNL     1     -11.256  -2.653  24.073  0.00  0.00    +0.000 HD
ENDBRANCH  13  47
BRANCH  14  49
ATOM     49  O   UNL     1     -12.354  -3.060  20.603  0.00  0.00    +0.000 OA
ATOM     50  H   UNL     1     -13.275  -2.796  20.397  0.00  0.00    +0.000 HD
ENDBRANCH  14  49
TORSDOF 9
ENDMDL
MODEL 8
REMARK VINA RESULT:    -6.771      3.994      7.117
REMARK INTER + INTRA:          -9.622
REMARK INTER:                  -9.602
REMARK INTRA:                  -0.020
REMARK UNBOUND:                -0.674
REMARK  Name = 
REMARK  9 active torsions:
REMARK  status: ('A' for Active; 'I' for Inactive)
REMARK    1  A    between atoms: C_1  and  C_2
REMARK    2  A    between atoms: C_2  and  C_3
REMARK    3  A    between atoms: C_2  and  C_4
REMARK    4  A    between atoms: C_2  and  C_5
REMARK    5  A    between atoms: C_8  and  C_9
REMARK    6  A    between atoms: C_14  and  O_15
REMARK    7  A    between atoms: C_16  and  O_17
REMARK    8  A    between atoms: C_23  and  O_24
REMARK    9  A    between atoms: C_25  and  O_26
REMARK                            x       y       z     vdW  Elec       q    Type
REMARK                         _______ _______ _______ _____ _____    ______ ____
ROOT
ATOM      1  C   UNL     1     -10.209  -0.979  20.320  0.00  0.00    +0.000 C 
ATOM      2  O   UNL     1     -10.761  -0.485  19.328  0.00  0.00    +0.000 OA
ATOM      3  N   UNL     1     -10.154  -0.163  21.477  0.00  0.00    +0.000 N 
ATOM      4  C   UNL     1     -10.379   1.222  21.455  0.00  0.00    +0.000 A 
ATOM      5  C   UNL     1     -10.429   2.181  20.429  0.00  0.00    +0.000 A 
ATOM      6  C   UNL     1     -11.133   3.344  20.729  0.00  0.00    +0.000 A 
ATOM      7  C   UNL     1     -11.787   3.499  21.944  0.00  0.00    +0.000 A 
ATOM      8  C   UNL     1     -11.485   2.676  23.019  0.00  0.00    +0.000 A 
ATOM      9  C   UNL     1     -10.650   1.579  22.767  0.00  0.00    +0.000 A 
ATOM     10  C   UNL     1      -9.876   0.682  23.532  0.00  0.00    +0.000 A 
ATOM     11  C   UNL     1      -9.261   0.727  24.797  0.00  0.00    +0.000 A 
ATOM     12  C   UNL     1      -8.845  -0.462  25.389  0.00  0.00    +0.000 A 
ATOM     13  C   UNL     1      -9.224  -1.660  24.807  0.00  0.00    +0.000 A 
ATOM     14  C   UNL     1      -9.792  -1.707  23.526  0.00  0.00    +0.000 A 
ATOM     15  C   UNL     1      -9.910  -0.514  22.810  0.00  0.00    +0.000 A 
ATOM     16  H   UNL     1     -10.012   1.993  19.446  0.00  0.00    +0.000 HD
ATOM     17  H   UNL     1     -11.936   2.833  23.990  0.00  0.00    +0.000 HD
ATOM     18  H   UNL     1      -9.086   1.684  25.282  0.00  0.00    +0.000 HD
ATOM     19  H   UNL     1      -8.309  -0.424  26.331  0.00  0.00    +0.000 HD
ENDROOT
BRANCH   1  23
ATOM     20  C   UNL     1      -8.402  -4.792  19.419  0.00  0.00    +0.000 A 
ATOM     21  C   UNL     1      -7.864  -3.954  20.413  0.00  0.00    +0.000 A 
ATOM     22  C   UNL     1      -8.455  -2.729  20.739  0.00  0.00    +0.000 A 
ATOM     23  C   UNL     1      -9.639  -2.333  20.123  0.00  0.00    +0.000 A 
ATOM     24  C   UNL     1     -10.219  -3.178  19.166  0.00  0.00    +0.000 A 
ATOM     25  C   UNL     1      -9.610  -4.391  18.820  0.00  0.00    +0.000 A 
ATOM     26  H   UNL     1      -6.949  -4.212  20.940  0.00  0.00    +0.000 HD
ATOM     27  H   UNL     1      -7.962  -2.095  21.469  0.00  0.00    +0.000 HD
ATOM     28  H   UNL     1     -11.130  -2.876  18.652  0.00  0.00    +0.000 HD
ATOM     29  H   UNL     1     -10.080  -4.997  18.049  0.00  0.00    +0.000 HD
BRANCH  20  30
ATOM     30  C   UNL     1      -7.679  -6.064  18.940  0.00  0.00    +0.000 C 
BRANCH  30  31
ATOM     31  C   UNL     1      -8.067  -6.485  17.504  0.00  0.00    +0.000 C 
ATOM     32  H   UNL     1      -7.440  -7.309  17.148  0.00  0.00    +0.000 HD
ATOM     33  H   UNL     1      -7.947  -5.656  16.795  0.00  0.00    +0.000 HD
ATOM     34  H   UNL     1      -9.108  -6.828  17.452  0.00  0.00    +0.000 HD
ENDBRANCH  30  31
BRANCH  30  35
ATOM     35  C   UNL     1      -8.051  -7.241  19.870  0.00  0.00    +0.000 C 
ATOM     36  H   UNL     1      -9.137  -7.314  19.998  0.00  0.00    +0.000 HD
ATOM     37  H   UNL     1      -7.607  -7.112  20.865  0.00  0.00    +0.000 HD
ATOM     38  H   UNL     1      -7.707  -8.204  19.479  0.00  0.00    +0.000 HD
ENDBRANCH  30  35
BRANCH  30  39
ATOM     39  C   UNL     1      -6.150  -5.867  18.965  0.00  0.00    +0.000 C 
ATOM     40  H   UNL     1      -5.696  -6.222  18.032  0.00  0.00    +0.000 HD
ATOM     41  H   UNL     1      -5.673  -6.417  19.783  0.00  0.00    +0.000 HD
ATOM     42  H   UNL     1      -5.888  -4.810  19.080  0.00  0.00    +0.000 HD
ENDBRANCH  30  39
ENDBRANCH  20  30
ENDBRANCH   1  23
BRANCH   6  43
ATOM     43  O   UNL     1     -11.217   4.370  19.830  0.00  0.00    +0.000 OA
ATOM     44  H   UNL     1     -12.091   4.777  19.978  0.00  0.00    +0.000 HD
ENDBRANCH   6  43
BRANCH   7  45
ATOM     45  O   UNL     1     -12.724   4.481  22.091  0.00  0.00    +0.000 OA
ATOM     46  H   UNL     1     -12.421   5.192  21.489  0.00  0.00    +0.000 HD
ENDBRANCH   7  45
BRANCH  13  47
ATOM     47  O   UNL     1      -9.073  -2.845  25.476  0.00  0.00    +0.000 OA
ATOM     48  H   UNL     1      -9.308  -3.566  24.864  0.00  0.00    +0.000 HD
ENDBRANCH  13  47
BRANCH  14  49
ATOM     49  O   UNL     1     -10.299  -2.886  23.054  0.00  0.00    +0.000 OA
ATOM     50  H   UNL     1     -11.270  -2.781  23.129  0.00  0.00    +0.000 HD
ENDBRANCH  14  49
TORSDOF 9
ENDMDL
MODEL 9
REMARK VINA RESULT:    -6.737      3.043      8.884
REMARK INTER + INTRA:          -9.577
REMARK INTER:                  -8.931
REMARK INTRA:                  -0.646
REMARK UNBOUND:                -0.674
REMARK  Name = 
REMARK  9 active torsions:
REMARK  status: ('A' for Active; 'I' for Inactive)
REMARK    1  A    between atoms: C_1  and  C_2
REMARK    2  A    between atoms: C_2  and  C_3
REMARK    3  A    between atoms: C_2  and  C_4
REMARK    4  A    between atoms: C_2  and  C_5
REMARK    5  A    between atoms: C_8  and  C_9
REMARK    6  A    between atoms: C_14  and  O_15
REMARK    7  A    between atoms: C_16  and  O_17
REMARK    8  A    between atoms: C_23  and  O_24
REMARK    9  A    between atoms: C_25  and  O_26
REMARK                            x       y       z     vdW  Elec       q    Type
REMARK                         _______ _______ _______ _____ _____    ______ ____
ROOT
ATOM      1  C   UNL     1     -10.975  -2.095  18.633  0.00  0.00    +0.000 C 
ATOM      2  O   UNL     1     -11.568  -2.304  17.566  0.00  0.00    +0.000 OA
ATOM      3  N   UNL     1     -10.061  -3.094  19.047  0.00  0.00    +0.000 N 
ATOM      4  C   UNL     1     -10.044  -4.392  18.513  0.00  0.00    +0.000 A 
ATOM      5  C   UNL     1     -10.949  -5.136  17.738  0.00  0.00    +0.000 A 
ATOM      6  C   UNL     1     -10.397  -6.188  17.014  0.00  0.00    +0.000 A 
ATOM      7  C   UNL     1      -9.030  -6.430  17.021  0.00  0.00    +0.000 A 
ATOM      8  C   UNL     1      -8.220  -5.873  17.998  0.00  0.00    +0.000 A 
ATOM      9  C   UNL     1      -8.801  -4.916  18.841  0.00  0.00    +0.000 A 
ATOM     10  C   UNL     1      -8.495  -4.317  20.079  0.00  0.00    +0.000 A 
ATOM     11  C   UNL     1      -7.731  -4.689  21.203  0.00  0.00    +0.000 A 
ATOM     12  C   UNL     1      -7.371  -3.713  22.128  0.00  0.00    +0.000 A 
ATOM     13  C   UNL     1      -7.606  -2.385  21.815  0.00  0.00    +0.000 A 
ATOM     14  C   UNL     1      -8.406  -2.017  20.725  0.00  0.00    +0.000 A 
ATOM     15  C   UNL     1      -9.027  -3.028  19.988  0.00  0.00    +0.000 A 
ATOM     16  H   UNL     1     -11.995  -4.858  17.653  0.00  0.00    +0.000 HD
ATOM     17  H   UNL     1      -7.165  -6.112  18.057  0.00  0.00    +0.000 HD
ATOM     18  H   UNL     1      -7.462  -5.730  21.354  0.00  0.00    +0.000 HD
ATOM     19  H   UNL     1      -6.844  -4.008  23.028  0.00  0.00    +0.000 HD
ENDROOT
BRANCH   1  23
ATOM     20  C   UNL     1     -11.772   1.495  20.890  0.00  0.00    +0.000 A 
ATOM     21  C   UNL     1     -11.378   1.562  19.542  0.00  0.00    +0.000 A 
ATOM     22  C   UNL     1     -11.144   0.408  18.786  0.00  0.00    +0.000 A 
ATOM     23  C   UNL     1     -11.360  -0.851  19.341  0.00  0.00    +0.000 A 
ATOM     24  C   UNL     1     -11.803  -0.939  20.669  0.00  0.00    +0.000 A 
ATOM     25  C   UNL     1     -12.008   0.218  21.432  0.00  0.00    +0.000 A 
ATOM     26  H   UNL     1     -11.205   2.514  19.047  0.00  0.00    +0.000 HD
ATOM     27  H   UNL     1     -10.781   0.519  17.770  0.00  0.00    +0.000 HD
ATOM     28  H   UNL     1     -11.952  -1.913  21.131  0.00  0.00    +0.000 HD
ATOM     29  H   UNL     1     -12.321   0.099  22.467  0.00  0.00    +0.000 HD
BRANCH  20  30
ATOM     30  C   UNL     1     -11.879   2.749  21.776  0.00  0.00    +0.000 C 
BRANCH  30  31
ATOM     31  C   UNL     1     -12.254   2.433  23.243  0.00  0.00    +0.000 C 
ATOM     32  H   UNL     1     -12.694   1.435  23.334  0.00  0.00    +0.000 HD
ATOM     33  H   UNL     1     -12.987   3.149  23.634  0.00  0.00    +0.000 HD
ATOM     34  H   UNL     1     -11.373   2.457  23.897  0.00  0.00    +0.000 HD
ENDBRANCH  30  31
BRANCH  30  35
ATOM     35  C   UNL     1     -12.985   3.673  21.218  0.00  0.00    +0.000 C 
ATOM     36  H   UNL     1     -13.804   3.787  21.938  0.00  0.00    +0.000 HD
ATOM     37  H   UNL     1     -13.409   3.265  20.292  0.00  0.00    +0.000 HD
ATOM     38  H   UNL     1     -12.613   4.679  20.994  0.00  0.00    +0.000 HD
ENDBRANCH  30  35
BRANCH  30  39
ATOM     39  C   UNL     1     -10.544   3.519  21.798  0.00  0.00    +0.000 C 
ATOM     40  H   UNL     1     -10.667   4.499  22.276  0.00  0.00    +0.000 HD
ATOM     41  H   UNL     1     -10.152   3.701  20.792  0.00  0.00    +0.000 HD
ATOM     42  H   UNL     1      -9.779   2.970  22.357  0.00  0.00    +0.000 HD
ENDBRANCH  30  39
ENDBRANCH  20  30
ENDBRANCH   1  23
BRANCH   6  43
ATOM     43  O   UNL     1     -11.182  -7.012  16.256  0.00  0.00    +0.000 OA
ATOM     44  H   UNL     1     -11.127  -6.662  15.347  0.00  0.00    +0.000 HD
ENDBRANCH   6  43
BRANCH   7  45
ATOM     45  O   UNL     1      -8.478  -7.240  16.070  0.00  0.00    +0.000 OA
ATOM     46  H   UNL     1      -8.994  -7.043  15.261  0.00  0.00    +0.000 HD
ENDBRANCH   7  45
BRANCH  13  47
ATOM     47  O   UNL     1      -7.044  -1.379  22.555  0.00  0.00    +0.000 OA
ATOM     48  H   UNL     1      -6.848  -0.638  21.953  0.00  0.00    +0.000 HD
ENDBRANCH  13  47
BRANCH  14  49
ATOM     49  O   UNL     1      -8.481  -0.703  20.354  0.00  0.00    +0.000 OA
ATOM     50  H   UNL     1      -7.624  -0.321  20.635  0.00  0.00    +0.000 HD
ENDBRANCH  14  49
TORSDOF 9
ENDMDL
