MODEL 1
REMARK VINA RESULT:    -8.981      0.000      0.000
REMARK INTER + INTRA:         -11.156
REMARK INTER:                 -11.343
REMARK INTRA:                   0.187
REMARK UNBOUND:                 0.187
REMARK  Name = 
REMARK  6 active torsions:
REMARK  status: ('A' for Active; 'I' for Inactive)
REMARK    1  A    between atoms: C_1  and  O_2
REMARK    2  A    between atoms: O_2  and  C_3
REMARK    3  A    between atoms: C_4  and  N_5
REMARK    4  A    between atoms: N_5  and  C_6
REMARK    5  A    between atoms: C_7  and  C_9
REMARK    6  A    between atoms: C_18  and  C_19
REMARK                            x       y       z     vdW  Elec       q    Type
REMARK                         _______ _______ _______ _____ _____    ______ ____
ROOT
ATOM      1  C   UNL     1     -11.138  -3.779  17.430  0.00  0.00    +0.000 C 
ATOM      2  C   UNL     1     -10.118  -4.949  17.533  0.00  0.00    +0.000 C 
ATOM      3  C   UNL     1      -8.664  -4.413  18.117  0.00  0.00    +0.000 C 
ATOM      4  C   UNL     1      -8.927  -3.973  19.730  0.00  0.00    +0.000 C 
ATOM      5  O   UNL     1     -10.327  -3.790  19.702  0.00  0.00    +0.000 OA
ATOM      6  C   UNL     1     -10.790  -2.863  18.626  0.00  0.00    +0.000 C 
ATOM      7  N   UNL     1      -9.799  -1.796  18.299  0.00  0.00    +0.000 N 
ATOM      8  C   UNL     1      -9.372  -0.953  17.235  0.00  0.00    +0.000 A 
ATOM      9  C   UNL     1      -9.087  -1.162  15.868  0.00  0.00    +0.000 A 
ATOM     10  C   UNL     1      -8.206  -0.295  15.195  0.00  0.00    +0.000 A 
ATOM     11  C   UNL     1      -7.554   0.737  15.852  0.00  0.00    +0.000 A 
ATOM     12  C   UNL     1      -7.912   1.040  17.157  0.00  0.00    +0.000 A 
ATOM     13  C   UNL     1      -8.953   0.327  17.811  0.00  0.00    +0.000 A 
ATOM     14  C   UNL     1      -9.161   0.297  19.209  0.00  0.00    +0.000 A 
ATOM     15  C   UNL     1     -10.368   0.787  19.830  0.00  0.00    +0.000 A 
ATOM     16  C   UNL     1     -10.462   0.343  21.172  0.00  0.00    +0.000 A 
ATOM     17  C   UNL     1      -9.721  -0.854  21.355  0.00  0.00    +0.000 A 
ATOM     18  C   UNL     1     -10.031  -1.894  22.269  0.00  0.00    +0.000 A 
ATOM     19  C   UNL     1     -10.696  -1.772  23.493  0.00  0.00    +0.000 A 
ATOM     20  C   UNL     1      -9.788  -1.345  24.447  0.00  0.00    +0.000 A 
ATOM     21  C   UNL     1      -8.434  -1.662  24.297  0.00  0.00    +0.000 A 
ATOM     22  C   UNL     1      -7.957  -2.481  23.220  0.00  0.00    +0.000 A 
ATOM     23  C   UNL     1      -8.842  -2.747  22.129  0.00  0.00    +0.000 A 
ATOM     24  N   UNL     1      -8.519  -2.882  20.660  0.00  0.00    +0.000 N 
ATOM     25  C   UNL     1      -8.954  -1.602  20.455  0.00  0.00    +0.000 A 
ATOM     26  C   UNL     1      -9.091  -1.092  19.223  0.00  0.00    +0.000 A 
ATOM     27  C   UNL     1     -11.668   0.848  21.746  0.00  0.00    +0.000 C 
ATOM     28  O   UNL     1     -12.056   0.967  22.887  0.00  0.00    +0.000 OA
ATOM     29  N   UNL     1     -12.370   1.214  20.628  0.00  0.00    +0.000 N 
ATOM     30  C   UNL     1     -11.729   1.008  19.430  0.00  0.00    +0.000 C 
ATOM     31  O   UNL     1     -12.334   0.809  18.384  0.00  0.00    +0.000 OA
ATOM     32  H   UNL     1     -12.134  -4.215  17.562  0.00  0.00    +0.000 HD
ATOM     33  H   UNL     1     -10.385  -5.512  18.404  0.00  0.00    +0.000 HD
ATOM     34  H   UNL     1      -8.284  -3.591  17.500  0.00  0.00    +0.000 HD
ATOM     35  H   UNL     1      -7.914  -5.209  18.056  0.00  0.00    +0.000 HD
ATOM     36  H   UNL     1      -8.661  -4.873  20.293  0.00  0.00    +0.000 HD
ATOM     37  H   UNL     1      -9.405  -2.048  15.337  0.00  0.00    +0.000 HD
ATOM     38  H   UNL     1      -7.953  -0.492  14.157  0.00  0.00    +0.000 HD
ATOM     39  H   UNL     1      -6.708   1.252  15.397  0.00  0.00    +0.000 HD
ATOM     40  H   UNL     1      -7.301   1.738  17.735  0.00  0.00    +0.000 HD
ATOM     41  H   UNL     1     -11.712  -1.377  23.551  0.00  0.00    +0.000 HD
ATOM     42  H   UNL     1     -10.137  -0.659  25.217  0.00  0.00    +0.000 HD
ATOM     43  H   UNL     1      -7.729  -1.182  24.976  0.00  0.00    +0.000 HD
ATOM     44  H   UNL     1      -6.886  -2.627  23.118  0.00  0.00    +0.000 HD
ATOM     45  H   UNL     1     -13.378   1.199  20.706  0.00  0.00    +0.000 HD
ENDROOT
BRANCH   6  46
ATOM     46  C   UNL     1     -12.097  -2.519  19.388  0.00  0.00    +0.000 C 
ATOM     47  H   UNL     1     -11.872  -1.737  20.134  0.00  0.00    +0.000 HD
ATOM     48  H   UNL     1     -12.584  -3.361  19.888  0.00  0.00    +0.000 HD
ATOM     49  H   UNL     1     -12.810  -1.994  18.741  0.00  0.00    +0.000 HD
ENDBRANCH   6  46
BRANCH   2  50
ATOM     50  N   UNL     1     -10.391  -6.031  16.548  0.00  0.00    +0.000 N 
ATOM     51  C   UNL     1     -10.503  -7.434  16.922  0.00  0.00    +0.000 C 
ATOM     52  O   UNL     1     -11.158  -8.199  16.205  0.00  0.00    +0.000 OA
BRANCH  51  53
ATOM     53  C   UNL     1      -9.858  -8.108  18.131  0.00  0.00    +0.000 A 
ATOM     54  C   UNL     1      -9.331  -9.414  17.943  0.00  0.00    +0.000 A 
ATOM     55  C   UNL     1      -8.550 -10.055  18.922  0.00  0.00    +0.000 A 
ATOM     56  C   UNL     1      -8.301  -9.424  20.134  0.00  0.00    +0.000 A 
ATOM     57  C   UNL     1      -8.853  -8.173  20.367  0.00  0.00    +0.000 A 
ATOM     58  C   UNL     1      -9.599  -7.519  19.372  0.00  0.00    +0.000 A 
ATOM     59  H   UNL     1      -9.481  -9.938  16.999  0.00  0.00    +0.000 HD
ATOM     60  H   UNL     1      -8.112 -11.031  18.724  0.00  0.00    +0.000 HD
ATOM     61  H   UNL     1      -7.662  -9.889  20.882  0.00  0.00    +0.000 HD
ATOM     62  H   UNL     1      -8.667  -7.668  21.313  0.00  0.00    +0.000 HD
ATOM     63  H   UNL     1      -9.888  -6.513  19.624  0.00  0.00    +0.000 HD
ENDBRANCH  51  53
BRANCH  50  64
ATOM     64  C   UNL     1     -11.200  -5.713  15.379  0.00  0.00    +0.000 C 
ATOM     65  H   UNL     1     -10.930  -4.734  14.982  0.00  0.00    +0.000 HD
ATOM     66  H   UNL     1     -12.264  -5.755  15.637  0.00  0.00    +0.000 HD
ATOM     67  H   UNL     1     -11.026  -6.461  14.593  0.00  0.00    +0.000 HD
ENDBRANCH  50  64
ENDBRANCH   2  50
BRANCH   1  68
ATOM     68  O   UNL     1     -11.179  -3.151  16.149  0.00  0.00    +0.000 OA
BRANCH  68  69
ATOM     69  C   UNL     1     -12.382  -2.419  15.876  0.00  0.00    +0.000 C 
ATOM     70  H   UNL     1     -12.221  -1.600  15.171  0.00  0.00    +0.000 HD
ATOM     71  H   UNL     1     -12.814  -2.021  16.793  0.00  0.00    +0.000 HD
ATOM     72  H   UNL     1     -13.099  -3.102  15.406  0.00  0.00    +0.000 HD
ENDBRANCH  68  69
ENDBRANCH   1  68
TORSDOF 6
ENDMDL
MODEL 2
REMARK VINA RESULT:    -8.514      3.009      8.468
REMARK INTER + INTRA:         -10.566
REMARK INTER:                  -8.877
REMARK INTRA:                  -1.689
REMARK UNBOUND:                 0.187
REMARK  Name = 
REMARK  6 active torsions:
REMARK  status: ('A' for Active; 'I' for Inactive)
REMARK    1  A    between atoms: C_1  and  O_2
REMARK    2  A    between atoms: O_2  and  C_3
REMARK    3  A    between atoms: C_4  and  N_5
REMARK    4  A    between atoms: N_5  and  C_6
REMARK    5  A    between atoms: C_7  and  C_9
REMARK    6  A    between atoms: C_18  and  C_19
REMARK                            x       y       z     vdW  Elec       q    Type
REMARK                         _______ _______ _______ _____ _____    ______ ____
ROOT
ATOM      1  C   UNL     1     -11.829   2.107  20.787  0.00  0.00    +0.000 C 
ATOM      2  C   UNL     1     -10.978   3.399  20.619  0.00  0.00    +0.000 C 
ATOM      3  C   UNL     1      -9.416   3.027  20.215  0.00  0.00    +0.000 C 
ATOM      4  C   UNL     1      -9.466   2.379  18.652  0.00  0.00    +0.000 C 
ATOM      5  O   UNL     1     -10.823   1.991  18.598  0.00  0.00    +0.000 OA
ATOM      6  C   UNL     1     -11.248   1.129  19.741  0.00  0.00    +0.000 C 
ATOM      7  N   UNL     1     -10.151   0.265  20.269  0.00  0.00    +0.000 N 
ATOM      8  C   UNL     1      -9.709  -0.383  21.456  0.00  0.00    +0.000 A 
ATOM      9  C   UNL     1      -9.583   0.015  22.805  0.00  0.00    +0.000 A 
ATOM     10  C   UNL     1      -8.653  -0.630  23.642  0.00  0.00    +0.000 A 
ATOM     11  C   UNL     1      -7.806  -1.619  23.166  0.00  0.00    +0.000 A 
ATOM     12  C   UNL     1      -7.997  -2.114  21.884  0.00  0.00    +0.000 A 
ATOM     13  C   UNL     1      -9.063  -1.641  21.072  0.00  0.00    +0.000 A 
ATOM     14  C   UNL     1      -9.145  -1.795  19.670  0.00  0.00    +0.000 A 
ATOM     15  C   UNL     1     -10.209  -2.526  19.025  0.00  0.00    +0.000 A 
ATOM     16  C   UNL     1     -10.241  -2.251  17.635  0.00  0.00    +0.000 A 
ATOM     17  C   UNL     1      -9.662  -0.984  17.364  0.00  0.00    +0.000 A 
ATOM     18  C   UNL     1     -10.030  -0.109  16.310  0.00  0.00    +0.000 A 
ATOM     19  C   UNL     1     -10.556  -0.462  15.064  0.00  0.00    +0.000 A 
ATOM     20  C   UNL     1      -9.514  -0.850  14.239  0.00  0.00    +0.000 A 
ATOM     21  C   UNL     1      -8.237  -0.319  14.450  0.00  0.00    +0.000 A 
ATOM     22  C   UNL     1      -7.981   0.675  15.452  0.00  0.00    +0.000 A 
ATOM     23  C   UNL     1      -8.991   0.923  16.433  0.00  0.00    +0.000 A 
ATOM     24  N   UNL     1      -8.825   1.266  17.894  0.00  0.00    +0.000 N 
ATOM     25  C   UNL     1      -9.093  -0.035  18.221  0.00  0.00    +0.000 A 
ATOM     26  C   UNL     1      -9.269  -0.422  19.492  0.00  0.00    +0.000 A 
ATOM     27  C   UNL     1     -11.306  -2.991  17.039  0.00  0.00    +0.000 C 
ATOM     28  O   UNL     1     -11.568  -3.292  15.895  0.00  0.00    +0.000 OA
ATOM     29  N   UNL     1     -12.050  -3.334  18.138  0.00  0.00    +0.000 N 
ATOM     30  C   UNL     1     -11.556  -2.904  19.346  0.00  0.00    +0.000 C 
ATOM     31  O   UNL     1     -12.276  -2.684  20.312  0.00  0.00    +0.000 OA
ATOM     32  H   UNL     1     -12.860   2.373  20.529  0.00  0.00    +0.000 HD
ATOM     33  H   UNL     1     -11.240   3.817  19.668  0.00  0.00    +0.000 HD
ATOM     34  H   UNL     1      -8.983   2.343  20.953  0.00  0.00    +0.000 HD
ATOM     35  H   UNL     1      -8.794   3.928  20.234  0.00  0.00    +0.000 HD
ATOM     36  H   UNL     1      -9.279   3.241  18.005  0.00  0.00    +0.000 HD
ATOM     37  H   UNL     1     -10.069   0.896  23.199  0.00  0.00    +0.000 HD
ATOM     38  H   UNL     1      -8.527  -0.286  24.665  0.00  0.00    +0.000 HD
ATOM     39  H   UNL     1      -6.941  -1.948  23.743  0.00  0.00    +0.000 HD
ATOM     40  H   UNL     1      -7.243  -2.770  21.443  0.00  0.00    +0.000 HD
ATOM     41  H   UNL     1     -11.497  -1.009  14.978  0.00  0.00    +0.000 HD
ATOM     42  H   UNL     1      -9.691  -1.661  13.535  0.00  0.00    +0.000 HD
ATOM     43  H   UNL     1      -7.413  -0.759  13.888  0.00  0.00    +0.000 HD
ATOM     44  H   UNL     1      -6.954   0.991  15.615  0.00  0.00    +0.000 HD
ATOM     45  H   UNL     1     -13.038  -3.478  17.983  0.00  0.00    +0.000 HD
ENDROOT
BRANCH   6  46
ATOM     46  C   UNL     1     -12.418   0.512  18.931  0.00  0.00    +0.000 C 
ATOM     47  H   UNL     1     -13.161   1.303  18.727  0.00  0.00    +0.000 HD
ATOM     48  H   UNL     1     -12.921  -0.336  19.406  0.00  0.00    +0.000 HD
ATOM     49  H   UNL     1     -12.105   0.250  17.913  0.00  0.00    +0.000 HD
ENDBRANCH   6  46
BRANCH   2  50
ATOM     50  N   UNL     1     -11.489   4.530  21.442  0.00  0.00    +0.000 N 
ATOM     51  C   UNL     1     -10.854   4.961  22.679  0.00  0.00    +0.000 C 
ATOM     52  O   UNL     1     -11.011   6.125  23.064  0.00  0.00    +0.000 OA
BRANCH  51  53
ATOM     53  C   UNL     1     -10.004   4.103  23.613  0.00  0.00    +0.000 A 
ATOM     54  C   UNL     1      -8.594   4.181  23.464  0.00  0.00    +0.000 A 
ATOM     55  C   UNL     1      -7.708   3.589  24.383  0.00  0.00    +0.000 A 
ATOM     56  C   UNL     1      -8.207   2.870  25.461  0.00  0.00    +0.000 A 
ATOM     57  C   UNL     1      -9.580   2.728  25.599  0.00  0.00    +0.000 A 
ATOM     58  C   UNL     1     -10.461   3.353  24.701  0.00  0.00    +0.000 A 
ATOM     59  H   UNL     1      -8.157   4.755  22.646  0.00  0.00    +0.000 HD
ATOM     60  H   UNL     1      -6.633   3.718  24.273  0.00  0.00    +0.000 HD
ATOM     61  H   UNL     1      -7.535   2.446  26.205  0.00  0.00    +0.000 HD
ATOM     62  H   UNL     1      -9.984   2.165  26.438  0.00  0.00    +0.000 HD
ATOM     63  H   UNL     1     -11.501   3.262  24.965  0.00  0.00    +0.000 HD
ENDBRANCH  51  53
BRANCH  50  64
ATOM     64  C   UNL     1     -12.161   5.630  20.762  0.00  0.00    +0.000 C 
ATOM     65  H   UNL     1     -11.457   6.180  20.137  0.00  0.00    +0.000 HD
ATOM     66  H   UNL     1     -12.636   6.290  21.498  0.00  0.00    +0.000 HD
ATOM     67  H   UNL     1     -12.957   5.236  20.116  0.00  0.00    +0.000 HD
ENDBRANCH  50  64
ENDBRANCH   2  50
BRANCH   1  68
ATOM     68  O   UNL     1     -11.898   1.624  22.129  0.00  0.00    +0.000 OA
BRANCH  68  69
ATOM     69  C   UNL     1     -13.066   0.848  22.429  0.00  0.00    +0.000 C 
ATOM     70  H   UNL     1     -13.286   0.822  23.498  0.00  0.00    +0.000 HD
ATOM     71  H   UNL     1     -12.963  -0.171  22.060  0.00  0.00    +0.000 HD
ATOM     72  H   UNL     1     -13.926   1.323  21.943  0.00  0.00    +0.000 HD
ENDBRANCH  68  69
ENDBRANCH   1  68
TORSDOF 6
ENDMDL
MODEL 3
REMARK VINA RESULT:    -8.364      2.557      6.844
REMARK INTER + INTRA:         -10.377
REMARK INTER:                  -9.815
REMARK INTRA:                  -0.561
REMARK UNBOUND:                 0.187
REMARK  Name = 
REMARK  6 active torsions:
REMARK  status: ('A' for Active; 'I' for Inactive)
REMARK    1  A    between atoms: C_1  and  O_2
REMARK    2  A    between atoms: O_2  and  C_3
REMARK    3  A    between atoms: C_4  and  N_5
REMARK    4  A    between atoms: N_5  and  C_6
REMARK    5  A    between atoms: C_7  and  C_9
REMARK    6  A    between atoms: C_18  and  C_19
REMARK                            x       y       z     vdW  Elec       q    Type
REMARK                         _______ _______ _______ _____ _____    ______ ____
ROOT
ATOM      1  C   UNL     1      -9.991   0.341  19.718  0.00  0.00    +0.000 C 
ATOM      2  C   UNL     1     -10.613  -0.284  21.000  0.00  0.00    +0.000 C 
ATOM      3  C   UNL     1     -11.950  -1.186  20.627  0.00  0.00    +0.000 C 
ATOM      4  C   UNL     1     -11.395  -2.530  19.760  0.00  0.00    +0.000 C 
ATOM      5  O   UNL     1     -10.148  -2.033  19.323  0.00  0.00    +0.000 OA
ATOM      6  C   UNL     1     -10.236  -0.718  18.620  0.00  0.00    +0.000 C 
ATOM      7  N   UNL     1     -11.518  -0.531  17.878  0.00  0.00    +0.000 N 
ATOM      8  C   UNL     1     -12.410   0.479  17.422  0.00  0.00    +0.000 A 
ATOM      9  C   UNL     1     -12.980   1.628  18.014  0.00  0.00    +0.000 A 
ATOM     10  C   UNL     1     -14.199   2.136  17.527  0.00  0.00    +0.000 A 
ATOM     11  C   UNL     1     -14.897   1.506  16.509  0.00  0.00    +0.000 A 
ATOM     12  C   UNL     1     -14.300   0.454  15.830  0.00  0.00    +0.000 A 
ATOM     13  C   UNL     1     -12.978   0.041  16.145  0.00  0.00    +0.000 A 
ATOM     14  C   UNL     1     -12.410  -1.203  15.788  0.00  0.00    +0.000 A 
ATOM     15  C   UNL     1     -11.250  -1.318  14.937  0.00  0.00    +0.000 A 
ATOM     16  C   UNL     1     -10.697  -2.620  15.009  0.00  0.00    +0.000 A 
ATOM     17  C   UNL     1     -11.031  -3.237  16.242  0.00  0.00    +0.000 A 
ATOM     18  C   UNL     1     -10.237  -4.180  16.944  0.00  0.00    +0.000 A 
ATOM     19  C   UNL     1      -9.329  -5.092  16.398  0.00  0.00    +0.000 A 
ATOM     20  C   UNL     1     -10.033  -6.189  15.930  0.00  0.00    +0.000 A 
ATOM     21  C   UNL     1     -11.251  -6.529  16.529  0.00  0.00    +0.000 A 
ATOM     22  C   UNL     1     -11.766  -5.820  17.665  0.00  0.00    +0.000 A 
ATOM     23  C   UNL     1     -11.160  -4.574  18.017  0.00  0.00    +0.000 A 
ATOM     24  N   UNL     1     -11.811  -3.329  18.571  0.00  0.00    +0.000 N 
ATOM     25  C   UNL     1     -11.789  -2.772  17.323  0.00  0.00    +0.000 A 
ATOM     26  C   UNL     1     -12.115  -1.488  17.117  0.00  0.00    +0.000 A 
ATOM     27  C   UNL     1      -9.554  -2.688  14.155  0.00  0.00    +0.000 C 
ATOM     28  O   UNL     1      -8.925  -3.610  13.685  0.00  0.00    +0.000 OA
ATOM     29  N   UNL     1      -9.288  -1.359  13.949  0.00  0.00    +0.000 N 
ATOM     30  C   UNL     1     -10.146  -0.480  14.565  0.00  0.00    +0.000 C 
ATOM     31  O   UNL     1      -9.806   0.649  14.896  0.00  0.00    +0.000 OA
ATOM     32  H   UNL     1      -8.918   0.451  19.909  0.00  0.00    +0.000 HD
ATOM     33  H   UNL     1      -9.992  -1.114  21.268  0.00  0.00    +0.000 HD
ATOM     34  H   UNL     1     -12.676  -0.582  20.071  0.00  0.00    +0.000 HD
ATOM     35  H   UNL     1     -12.459  -1.507  21.542  0.00  0.00    +0.000 HD
ATOM     36  H   UNL     1     -11.264  -3.300  20.526  0.00  0.00    +0.000 HD
ATOM     37  H   UNL     1     -12.597   2.064  18.926  0.00  0.00    +0.000 HD
ATOM     38  H   UNL     1     -14.656   2.990  18.019  0.00  0.00    +0.000 HD
ATOM     39  H   UNL     1     -15.936   1.759  16.296  0.00  0.00    +0.000 HD
ATOM     40  H   UNL     1     -14.896  -0.151  15.142  0.00  0.00    +0.000 HD
ATOM     41  H   UNL     1      -8.469  -4.758  15.813  0.00  0.00    +0.000 HD
ATOM     42  H   UNL     1      -9.682  -6.674  15.022  0.00  0.00    +0.000 HD
ATOM     43  H   UNL     1     -11.851  -7.296  16.041  0.00  0.00    +0.000 HD
ATOM     44  H   UNL     1     -12.752  -6.086  18.035  0.00  0.00    +0.000 HD
ATOM     45  H   UNL     1      -8.326  -1.120  13.751  0.00  0.00    +0.000 HD
ENDROOT
BRANCH   6  46
ATOM     46  C   UNL     1      -8.910  -0.959  17.854  0.00  0.00    +0.000 C 
ATOM     47  H   UNL     1      -8.306  -1.694  18.417  0.00  0.00    +0.000 HD
ATOM     48  H   UNL     1      -8.305  -0.067  17.670  0.00  0.00    +0.000 HD
ATOM     49  H   UNL     1      -9.082  -1.504  16.918  0.00  0.00    +0.000 HD
ENDBRANCH   6  46
BRANCH   2  50
ATOM     50  N   UNL     1     -10.339   0.525  22.220  0.00  0.00    +0.000 N 
ATOM     51  C   UNL     1      -9.209   0.274  23.102  0.00  0.00    +0.000 C 
ATOM     52  O   UNL     1      -8.766   1.196  23.795  0.00  0.00    +0.000 OA
BRANCH  51  53
ATOM     53  C   UNL     1      -8.490  -1.059  23.303  0.00  0.00    +0.000 A 
ATOM     54  C   UNL     1      -9.016  -1.940  24.285  0.00  0.00    +0.000 A 
ATOM     55  C   UNL     1      -8.560  -3.263  24.427  0.00  0.00    +0.000 A 
ATOM     56  C   UNL     1      -7.540  -3.736  23.613  0.00  0.00    +0.000 A 
ATOM     57  C   UNL     1      -6.967  -2.879  22.684  0.00  0.00    +0.000 A 
ATOM     58  C   UNL     1      -7.452  -1.571  22.518  0.00  0.00    +0.000 A 
ATOM     59  H   UNL     1      -9.834  -1.619  24.931  0.00  0.00    +0.000 HD
ATOM     60  H   UNL     1      -9.024  -3.930  25.151  0.00  0.00    +0.000 HD
ATOM     61  H   UNL     1      -7.208  -4.770  23.681  0.00  0.00    +0.000 HD
ATOM     62  H   UNL     1      -6.166  -3.237  22.041  0.00  0.00    +0.000 HD
ATOM     63  H   UNL     1      -7.004  -1.033  21.700  0.00  0.00    +0.000 HD
ENDBRANCH  51  53
BRANCH  50  64
ATOM     64  C   UNL     1     -10.725   1.931  22.217  0.00  0.00    +0.000 C 
ATOM     65  H   UNL     1      -9.889   2.556  21.901  0.00  0.00    +0.000 HD
ATOM     66  H   UNL     1     -11.082   2.223  23.211  0.00  0.00    +0.000 HD
ATOM     67  H   UNL     1     -11.555   2.086  21.514  0.00  0.00    +0.000 HD
ENDBRANCH  50  64
ENDBRANCH   2  50
BRANCH   1  68
ATOM     68  O   UNL     1     -10.450   1.662  19.431  0.00  0.00    +0.000 OA
BRANCH  68  69
ATOM     69  C   UNL     1      -9.489   2.504  18.781  0.00  0.00    +0.000 C 
ATOM     70  H   UNL     1      -9.607   3.556  19.049  0.00  0.00    +0.000 HD
ATOM     71  H   UNL     1      -9.549   2.402  17.698  0.00  0.00    +0.000 HD
ATOM     72  H   UNL     1      -8.489   2.205  19.116  0.00  0.00    +0.000 HD
ENDBRANCH  68  69
ENDBRANCH   1  68
TORSDOF 6
ENDMDL
MODEL 4
REMARK VINA RESULT:    -8.331      2.892      6.542
REMARK INTER + INTRA:         -10.335
REMARK INTER:                  -9.698
REMARK INTRA:                  -0.637
REMARK UNBOUND:                 0.187
REMARK  Name = 
REMARK  6 active torsions:
REMARK  status: ('A' for Active; 'I' for Inactive)
REMARK    1  A    between atoms: C_1  and  O_2
REMARK    2  A    between atoms: O_2  and  C_3
REMARK    3  A    between atoms: C_4  and  N_5
REMARK    4  A    between atoms: N_5  and  C_6
REMARK    5  A    between atoms: C_7  and  C_9
REMARK    6  A    between atoms: C_18  and  C_19
REMARK                            x       y       z     vdW  Elec       q    Type
REMARK                         _______ _______ _______ _____ _____    ______ ____
ROOT
ATOM      1  C   UNL     1      -9.770  -0.621  20.842  0.00  0.00    +0.000 C 
ATOM      2  C   UNL     1     -10.466  -1.977  21.153  0.00  0.00    +0.000 C 
ATOM      3  C   UNL     1     -11.859  -2.140  20.273  0.00  0.00    +0.000 C 
ATOM      4  C   UNL     1     -11.388  -2.298  18.655  0.00  0.00    +0.000 C 
ATOM      5  O   UNL     1     -10.097  -1.731  18.725  0.00  0.00    +0.000 OA
ATOM      6  C   UNL     1     -10.070  -0.373  19.346  0.00  0.00    +0.000 C 
ATOM      7  N   UNL     1     -11.316   0.411  19.104  0.00  0.00    +0.000 N 
ATOM      8  C   UNL     1     -12.119   1.441  19.670  0.00  0.00    +0.000 A 
ATOM      9  C   UNL     1     -12.613   1.702  20.968  0.00  0.00    +0.000 A 
ATOM     10  C   UNL     1     -13.778   2.473  21.131  0.00  0.00    +0.000 A 
ATOM     11  C   UNL     1     -14.499   2.945  20.046  0.00  0.00    +0.000 A 
ATOM     12  C   UNL     1     -13.969   2.812  18.771  0.00  0.00    +0.000 A 
ATOM     13  C   UNL     1     -12.689   2.227  18.573  0.00  0.00    +0.000 A 
ATOM     14  C   UNL     1     -12.209   1.722  17.344  0.00  0.00    +0.000 A 
ATOM     15  C   UNL     1     -11.042   2.255  16.682  0.00  0.00    +0.000 A 
ATOM     16  C   UNL     1     -10.591   1.376  15.667  0.00  0.00    +0.000 A 
ATOM     17  C   UNL     1     -10.999   0.045  15.942  0.00  0.00    +0.000 A 
ATOM     18  C   UNL     1     -10.295  -1.133  15.583  0.00  0.00    +0.000 A 
ATOM     19  C   UNL     1      -9.446  -1.309  14.486  0.00  0.00    +0.000 A 
ATOM     20  C   UNL     1     -10.220  -1.555  13.364  0.00  0.00    +0.000 A 
ATOM     21  C   UNL     1     -11.474  -2.158  13.515  0.00  0.00    +0.000 A 
ATOM     22  C   UNL     1     -11.960  -2.599  14.791  0.00  0.00    +0.000 A 
ATOM     23  C   UNL     1     -11.269  -2.165  15.964  0.00  0.00    +0.000 A 
ATOM     24  N   UNL     1     -11.837  -1.811  17.319  0.00  0.00    +0.000 N 
ATOM     25  C   UNL     1     -11.743  -0.484  17.002  0.00  0.00    +0.000 A 
ATOM     26  C   UNL     1     -11.967   0.476  17.910  0.00  0.00    +0.000 A 
ATOM     27  C   UNL     1      -9.438   1.940  15.041  0.00  0.00    +0.000 C 
ATOM     28  O   UNL     1      -8.870   1.716  13.995  0.00  0.00    +0.000 OA
ATOM     29  N   UNL     1      -9.067   2.889  15.958  0.00  0.00    +0.000 N 
ATOM     30  C   UNL     1      -9.869   2.986  17.069  0.00  0.00    +0.000 C 
ATOM     31  O   UNL     1      -9.452   3.383  18.150  0.00  0.00    +0.000 OA
ATOM     32  H   UNL     1      -8.696  -0.775  20.995  0.00  0.00    +0.000 HD
ATOM     33  H   UNL     1      -9.916  -2.731  20.628  0.00  0.00    +0.000 HD
ATOM     34  H   UNL     1     -12.524  -1.287  20.449  0.00  0.00    +0.000 HD
ATOM     35  H   UNL     1     -12.411  -3.028  20.598  0.00  0.00    +0.000 HD
ATOM     36  H   UNL     1     -11.333  -3.381  18.503  0.00  0.00    +0.000 HD
ATOM     37  H   UNL     1     -12.218   1.216  21.848  0.00  0.00    +0.000 HD
ATOM     38  H   UNL     1     -14.180   2.628  22.129  0.00  0.00    +0.000 HD
ATOM     39  H   UNL     1     -15.511   3.334  20.165  0.00  0.00    +0.000 HD
ATOM     40  H   UNL     1     -14.593   3.031  17.902  0.00  0.00    +0.000 HD
ATOM     41  H   UNL     1      -8.551  -0.697  14.355  0.00  0.00    +0.000 HD
ATOM     42  H   UNL     1      -9.887  -1.149  12.411  0.00  0.00    +0.000 HD
ATOM     43  H   UNL     1     -12.120  -2.196  12.638  0.00  0.00    +0.000 HD
ATOM     44  H   UNL     1     -12.971  -2.990  14.850  0.00  0.00    +0.000 HD
ATOM     45  H   UNL     1      -8.085   3.129  15.982  0.00  0.00    +0.000 HD
ENDROOT
BRANCH   6  46
ATOM     46  C   UNL     1      -8.748   0.005  18.628  0.00  0.00    +0.000 C 
ATOM     47  H   UNL     1      -8.971   0.207  17.565  0.00  0.00    +0.000 HD
ATOM     48  H   UNL     1      -7.950  -0.741  18.690  0.00  0.00    +0.000 HD
ATOM     49  H   UNL     1      -8.382   0.985  18.955  0.00  0.00    +0.000 HD
ENDBRANCH   6  46
BRANCH   2  50
ATOM     50  N   UNL     1     -10.160  -2.474  22.523  0.00  0.00    +0.000 N 
ATOM     51  C   UNL     1      -8.825  -2.880  22.939  0.00  0.00    +0.000 C 
ATOM     52  O   UNL     1      -8.528  -2.839  24.138  0.00  0.00    +0.000 OA
BRANCH  51  53
ATOM     53  C   UNL     1      -7.708  -3.399  22.036  0.00  0.00    +0.000 A 
ATOM     54  C   UNL     1      -6.385  -2.972  22.327  0.00  0.00    +0.000 A 
ATOM     55  C   UNL     1      -5.260  -3.528  21.690  0.00  0.00    +0.000 A 
ATOM     56  C   UNL     1      -5.427  -4.504  20.716  0.00  0.00    +0.000 A 
ATOM     57  C   UNL     1      -6.712  -4.898  20.370  0.00  0.00    +0.000 A 
ATOM     58  C   UNL     1      -7.829  -4.369  21.036  0.00  0.00    +0.000 A 
ATOM     59  H   UNL     1      -6.205  -2.226  23.101  0.00  0.00    +0.000 HD
ATOM     60  H   UNL     1      -4.257  -3.221  21.978  0.00  0.00    +0.000 HD
ATOM     61  H   UNL     1      -4.565  -4.975  20.248  0.00  0.00    +0.000 HD
ATOM     62  H   UNL     1      -6.856  -5.660  19.607  0.00  0.00    +0.000 HD
ATOM     63  H   UNL     1      -8.766  -4.823  20.759  0.00  0.00    +0.000 HD
ENDBRANCH  51  53
BRANCH  50  64
ATOM     64  C   UNL     1     -10.943  -1.957  23.637  0.00  0.00    +0.000 C 
ATOM     65  H   UNL     1     -11.864  -1.498  23.276  0.00  0.00    +0.000 HD
ATOM     66  H   UNL     1     -10.346  -1.242  24.215  0.00  0.00    +0.000 HD
ATOM     67  H   UNL     1     -11.213  -2.779  24.314  0.00  0.00    +0.000 HD
ENDBRANCH  50  64
ENDBRANCH   2  50
BRANCH   1  68
ATOM     68  O   UNL     1     -10.121   0.434  21.737  0.00  0.00    +0.000 OA
BRANCH  68  69
ATOM     69  C   UNL     1      -9.121   0.750  22.715  0.00  0.00    +0.000 C 
ATOM     70  H   UNL     1      -8.964   1.826  22.819  0.00  0.00    +0.000 HD
ATOM     71  H   UNL     1      -8.172   0.273  22.473  0.00  0.00    +0.000 HD
ATOM     72  H   UNL     1      -9.469   0.387  23.689  0.00  0.00    +0.000 HD
ENDBRANCH  68  69
ENDBRANCH   1  68
TORSDOF 6
ENDMDL
MODEL 5
REMARK VINA RESULT:    -8.256      3.384      7.145
REMARK INTER + INTRA:         -10.241
REMARK INTER:                  -9.977
REMARK INTRA:                  -0.264
REMARK UNBOUND:                 0.187
REMARK  Name = 
REMARK  6 active torsions:
REMARK  status: ('A' for Active; 'I' for Inactive)
REMARK    1  A    between atoms: C_1  and  O_2
REMARK    2  A    between atoms: O_2  and  C_3
REMARK    3  A    between atoms: C_4  and  N_5
REMARK    4  A    between atoms: N_5  and  C_6
REMARK    5  A    between atoms: C_7  and  C_9
REMARK    6  A    between atoms: C_18  and  C_19
REMARK                            x       y       z     vdW  Elec       q    Type
REMARK                         _______ _______ _______ _____ _____    ______ ____
ROOT
ATOM      1  C   UNL     1      -9.535  -1.395  17.316  0.00  0.00    +0.000 C 
ATOM      2  C   UNL     1     -10.185  -2.745  17.735  0.00  0.00    +0.000 C 
ATOM      3  C   UNL     1     -11.696  -2.901  17.076  0.00  0.00    +0.000 C 
ATOM      4  C   UNL     1     -11.476  -3.068  15.407  0.00  0.00    +0.000 C 
ATOM      5  O   UNL     1     -10.186  -2.510  15.278  0.00  0.00    +0.000 OA
ATOM      6  C   UNL     1     -10.056  -1.150  15.882  0.00  0.00    +0.000 C 
ATOM      7  N   UNL     1     -11.320  -0.358  15.828  0.00  0.00    +0.000 N 
ATOM      8  C   UNL     1     -12.021   0.680  16.505  0.00  0.00    +0.000 A 
ATOM      9  C   UNL     1     -12.312   0.948  17.861  0.00  0.00    +0.000 A 
ATOM     10  C   UNL     1     -13.434   1.728  18.196  0.00  0.00    +0.000 A 
ATOM     11  C   UNL     1     -14.308   2.202  17.230  0.00  0.00    +0.000 A 
ATOM     12  C   UNL     1     -13.977   2.060  15.891  0.00  0.00    +0.000 A 
ATOM     13  C   UNL     1     -12.746   1.466  15.504  0.00  0.00    +0.000 A 
ATOM     14  C   UNL     1     -12.461   0.954  14.218  0.00  0.00    +0.000 A 
ATOM     15  C   UNL     1     -11.404   1.477  13.385  0.00  0.00    +0.000 A 
ATOM     16  C   UNL     1     -11.118   0.591  12.316  0.00  0.00    +0.000 A 
ATOM     17  C   UNL     1     -11.488  -0.736  12.656  0.00  0.00    +0.000 A 
ATOM     18  C   UNL     1     -10.853  -1.920  12.199  0.00  0.00    +0.000 A 
ATOM     19  C   UNL     1     -10.182  -2.105  10.987  0.00  0.00    +0.000 A 
ATOM     20  C   UNL     1     -11.119  -2.349   9.997  0.00  0.00    +0.000 A 
ATOM     21  C   UNL     1     -12.339  -2.943  10.338  0.00  0.00    +0.000 A 
ATOM     22  C   UNL     1     -12.629  -3.376  11.675  0.00  0.00    +0.000 A 
ATOM     23  C   UNL     1     -11.765  -2.943  12.728  0.00  0.00    +0.000 A 
ATOM     24  N   UNL     1     -12.119  -2.581  14.151  0.00  0.00    +0.000 N 
ATOM     25  C   UNL     1     -12.066  -1.256  13.819  0.00  0.00    +0.000 A 
ATOM     26  C   UNL     1     -12.143  -0.292  14.746  0.00  0.00    +0.000 A 
ATOM     27  C   UNL     1     -10.069   1.145  11.521  0.00  0.00    +0.000 C 
ATOM     28  O   UNL     1      -9.667   0.915  10.402  0.00  0.00    +0.000 OA
ATOM     29  N   UNL     1      -9.558   2.095  12.367  0.00  0.00    +0.000 N 
ATOM     30  C   UNL     1     -10.182   2.201  13.586  0.00  0.00    +0.000 C 
ATOM     31  O   UNL     1      -9.603   2.599  14.590  0.00  0.00    +0.000 OA
ATOM     32  H   UNL     1      -8.451  -1.556  17.305  0.00  0.00    +0.000 HD
ATOM     33  H   UNL     1      -9.725  -3.505  17.136  0.00  0.00    +0.000 HD
ATOM     34  H   UNL     1     -12.321  -2.043  17.347  0.00  0.00    +0.000 HD
ATOM     35  H   UNL     1     -12.198  -3.784  17.485  0.00  0.00    +0.000 HD
ATOM     36  H   UNL     1     -11.452  -4.151  15.253  0.00  0.00    +0.000 HD
ATOM     37  H   UNL     1     -11.791   0.462  18.674  0.00  0.00    +0.000 HD
ATOM     38  H   UNL     1     -13.679   1.889  19.242  0.00  0.00    +0.000 HD
ATOM     39  H   UNL     1     -15.287   2.598  17.500  0.00  0.00    +0.000 HD
ATOM     40  H   UNL     1     -14.725   2.281  15.125  0.00  0.00    +0.000 HD
ATOM     41  H   UNL     1      -9.313  -1.500  10.720  0.00  0.00    +0.000 HD
ATOM     42  H   UNL     1     -10.931  -1.949   9.003  0.00  0.00    +0.000 HD
ATOM     43  H   UNL     1     -13.110  -2.979   9.569  0.00  0.00    +0.000 HD
ATOM     44  H   UNL     1     -13.622  -3.761  11.888  0.00  0.00    +0.000 HD
ATOM     45  H   UNL     1      -8.582   2.328  12.241  0.00  0.00    +0.000 HD
ENDROOT
BRANCH   6  46
ATOM     46  C   UNL     1      -8.856  -0.783  14.970  0.00  0.00    +0.000 C 
ATOM     47  H   UNL     1      -8.439  -1.714  14.547  0.00  0.00    +0.000 HD
ATOM     48  H   UNL     1      -8.053  -0.220  15.455  0.00  0.00    +0.000 HD
ATOM     49  H   UNL     1      -9.188  -0.269  14.060  0.00  0.00    +0.000 HD
ENDBRANCH   6  46
BRANCH   2  50
ATOM     50  N   UNL     1      -9.677  -3.240  19.044  0.00  0.00    +0.000 N 
ATOM     51  C   UNL     1      -9.037  -4.537  19.208  0.00  0.00    +0.000 C 
ATOM     52  O   UNL     1      -8.252  -4.709  20.148  0.00  0.00    +0.000 OA
BRANCH  51  53
ATOM     53  C   UNL     1      -9.249  -5.773  18.337  0.00  0.00    +0.000 A 
ATOM     54  C   UNL     1     -10.543  -6.358  18.341  0.00  0.00    +0.000 A 
ATOM     55  C   UNL     1     -10.910  -7.375  17.441  0.00  0.00    +0.000 A 
ATOM     56  C   UNL     1      -9.981  -7.864  16.532  0.00  0.00    +0.000 A 
ATOM     57  C   UNL     1      -8.692  -7.352  16.545  0.00  0.00    +0.000 A 
ATOM     58  C   UNL     1      -8.341  -6.309  17.418  0.00  0.00    +0.000 A 
ATOM     59  H   UNL     1     -11.312  -5.990  19.021  0.00  0.00    +0.000 HD
ATOM     60  H   UNL     1     -11.927  -7.761  17.431  0.00  0.00    +0.000 HD
ATOM     61  H   UNL     1     -10.263  -8.618  15.800  0.00  0.00    +0.000 HD
ATOM     62  H   UNL     1      -7.954  -7.728  15.839  0.00  0.00    +0.000 HD
ATOM     63  H   UNL     1      -7.348  -5.921  17.268  0.00  0.00    +0.000 HD
ENDBRANCH  51  53
BRANCH  50  64
ATOM     64  C   UNL     1      -9.184  -2.264  20.007  0.00  0.00    +0.000 C 
ATOM     65  H   UNL     1      -8.578  -1.507  19.508  0.00  0.00    +0.000 HD
ATOM     66  H   UNL     1      -8.614  -2.770  20.795  0.00  0.00    +0.000 HD
ATOM     67  H   UNL     1     -10.032  -1.760  20.491  0.00  0.00    +0.000 HD
ENDBRANCH  50  64
ENDBRANCH   2  50
BRANCH   1  68
ATOM     68  O   UNL     1      -9.740  -0.334  18.249  0.00  0.00    +0.000 OA
BRANCH  68  69
ATOM     69  C   UNL     1      -8.721   0.676  18.243  0.00  0.00    +0.000 C 
ATOM     70  H   UNL     1      -8.969   1.513  17.587  0.00  0.00    +0.000 HD
ATOM     71  H   UNL     1      -7.760   0.260  17.945  0.00  0.00    +0.000 HD
ATOM     72  H   UNL     1      -8.639   1.085  19.257  0.00  0.00    +0.000 HD
ENDBRANCH  68  69
ENDBRANCH   1  68
TORSDOF 6
ENDMDL
MODEL 6
REMARK VINA RESULT:    -8.197      2.075      2.724
REMARK INTER + INTRA:         -10.166
REMARK INTER:                  -9.286
REMARK INTRA:                  -0.880
REMARK UNBOUND:                 0.187
REMARK  Name = 
REMARK  6 active torsions:
REMARK  status: ('A' for Active; 'I' for Inactive)
REMARK    1  A    between atoms: C_1  and  O_2
REMARK    2  A    between atoms: O_2  and  C_3
REMARK    3  A    between atoms: C_4  and  N_5
REMARK    4  A    between atoms: N_5  and  C_6
REMARK    5  A    between atoms: C_7  and  C_9
REMARK    6  A    between atoms: C_18  and  C_19
REMARK                            x       y       z     vdW  Elec       q    Type
REMARK                         _______ _______ _______ _____ _____    ______ ____
ROOT
ATOM      1  C   UNL     1     -11.196  -2.180  16.212  0.00  0.00    +0.000 C 
ATOM      2  C   UNL     1     -10.677  -3.436  16.971  0.00  0.00    +0.000 C 
ATOM      3  C   UNL     1      -9.535  -3.016  18.093  0.00  0.00    +0.000 C 
ATOM      4  C   UNL     1     -10.341  -2.134  19.291  0.00  0.00    +0.000 C 
ATOM      5  O   UNL     1     -11.484  -1.734  18.565  0.00  0.00    +0.000 OA
ATOM      6  C   UNL     1     -11.168  -1.056  17.272  0.00  0.00    +0.000 C 
ATOM      7  N   UNL     1      -9.886  -0.291  17.305  0.00  0.00    +0.000 N 
ATOM      8  C   UNL     1      -8.832   0.163  16.464  0.00  0.00    +0.000 A 
ATOM      9  C   UNL     1      -8.052  -0.439  15.453  0.00  0.00    +0.000 A 
ATOM     10  C   UNL     1      -6.769   0.063  15.165  0.00  0.00    +0.000 A 
ATOM     11  C   UNL     1      -6.215   1.108  15.888  0.00  0.00    +0.000 A 
ATOM     12  C   UNL     1      -7.006   1.796  16.797  0.00  0.00    +0.000 A 
ATOM     13  C   UNL     1      -8.377   1.461  16.969  0.00  0.00    +0.000 A 
ATOM     14  C   UNL     1      -9.168   1.831  18.079  0.00  0.00    +0.000 A 
ATOM     15  C   UNL     1     -10.344   2.659  17.960  0.00  0.00    +0.000 A 
ATOM     16  C   UNL     1     -11.125   2.602  19.140  0.00  0.00    +0.000 A 
ATOM     17  C   UNL     1     -10.889   1.388  19.837  0.00  0.00    +0.000 A 
ATOM     18  C   UNL     1     -11.830   0.689  20.635  0.00  0.00    +0.000 A 
ATOM     19  C   UNL     1     -12.899   1.234  21.352  0.00  0.00    +0.000 A 
ATOM     20  C   UNL     1     -12.416   1.738  22.548  0.00  0.00    +0.000 A 
ATOM     21  C   UNL     1     -11.271   1.172  23.119  0.00  0.00    +0.000 A 
ATOM     22  C   UNL     1     -10.615   0.034  22.543  0.00  0.00    +0.000 A 
ATOM     23  C   UNL     1     -10.976  -0.356  21.217  0.00  0.00    +0.000 A 
ATOM     24  N   UNL     1     -10.099  -0.921  20.125  0.00  0.00    +0.000 N 
ATOM     25  C   UNL     1     -10.040   0.315  19.543  0.00  0.00    +0.000 A 
ATOM     26  C   UNL     1      -9.488   0.502  18.337  0.00  0.00    +0.000 A 
ATOM     27  C   UNL     1     -12.276   3.432  18.978  0.00  0.00    +0.000 C 
ATOM     28  O   UNL     1     -13.071   3.908  19.758  0.00  0.00    +0.000 OA
ATOM     29  N   UNL     1     -12.298   3.606  17.618  0.00  0.00    +0.000 N 
ATOM     30  C   UNL     1     -11.283   2.991  16.925  0.00  0.00    +0.000 C 
ATOM     31  O   UNL     1     -11.405   2.630  15.761  0.00  0.00    +0.000 OA
ATOM     32  H   UNL     1     -12.227  -2.396  15.913  0.00  0.00    +0.000 HD
ATOM     33  H   UNL     1     -11.435  -3.700  17.680  0.00  0.00    +0.000 HD
ATOM     34  H   UNL     1      -8.720  -2.457  17.619  0.00  0.00    +0.000 HD
ATOM     35  H   UNL     1      -9.077  -3.913  18.523  0.00  0.00    +0.000 HD
ATOM     36  H   UNL     1     -10.597  -2.887  20.042  0.00  0.00    +0.000 HD
ATOM     37  H   UNL     1      -8.333  -1.367  14.977  0.00  0.00    +0.000 HD
ATOM     38  H   UNL     1      -6.155  -0.436  14.420  0.00  0.00    +0.000 HD
ATOM     39  H   UNL     1      -5.152   1.338  15.824  0.00  0.00    +0.000 HD
ATOM     40  H   UNL     1      -6.543   2.508  17.484  0.00  0.00    +0.000 HD
ATOM     41  H   UNL     1     -13.693   1.794  20.853  0.00  0.00    +0.000 HD
ATOM     42  H   UNL     1     -12.865   2.649  22.940  0.00  0.00    +0.000 HD
ATOM     43  H   UNL     1     -10.830   1.688  23.971  0.00  0.00    +0.000 HD
ATOM     44  H   UNL     1      -9.688  -0.310  22.994  0.00  0.00    +0.000 HD
ATOM     45  H   UNL     1     -13.203   3.779  17.203  0.00  0.00    +0.000 HD
ENDROOT
BRANCH   6  46
ATOM     46  C   UNL     1     -12.529  -0.313  17.249  0.00  0.00    +0.000 C 
ATOM     47  H   UNL     1     -13.181  -0.798  16.500  0.00  0.00    +0.000 HD
ATOM     48  H   UNL     1     -12.476   0.758  17.035  0.00  0.00    +0.000 HD
ATOM     49  H   UNL     1     -13.098  -0.492  18.169  0.00  0.00    +0.000 HD
ENDBRANCH   6  46
BRANCH   2  50
ATOM     50  N   UNL     1     -10.777  -4.677  16.154  0.00  0.00    +0.000 N 
ATOM     51  C   UNL     1     -10.352  -5.982  16.639  0.00  0.00    +0.000 C 
ATOM     52  O   UNL     1     -10.853  -7.000  16.150  0.00  0.00    +0.000 OA
BRANCH  51  53
ATOM     53  C   UNL     1      -9.295  -6.256  17.707  0.00  0.00    +0.000 A 
ATOM     54  C   UNL     1      -7.937  -6.260  17.291  0.00  0.00    +0.000 A 
ATOM     55  C   UNL     1      -6.872  -6.311  18.209  0.00  0.00    +0.000 A 
ATOM     56  C   UNL     1      -7.133  -6.394  19.570  0.00  0.00    +0.000 A 
ATOM     57  C   UNL     1      -8.451  -6.451  20.001  0.00  0.00    +0.000 A 
ATOM     58  C   UNL     1      -9.511  -6.361  19.084  0.00  0.00    +0.000 A 
ATOM     59  H   UNL     1      -7.684  -6.172  16.234  0.00  0.00    +0.000 HD
ATOM     60  H   UNL     1      -5.842  -6.253  17.861  0.00  0.00    +0.000 HD
ATOM     61  H   UNL     1      -6.320  -6.388  20.294  0.00  0.00    +0.000 HD
ATOM     62  H   UNL     1      -8.669  -6.519  21.065  0.00  0.00    +0.000 HD
ATOM     63  H   UNL     1     -10.486  -6.310  19.538  0.00  0.00    +0.000 HD
ENDBRANCH  51  53
BRANCH  50  64
ATOM     64  C   UNL     1     -11.862  -4.782  15.187  0.00  0.00    +0.000 C 
ATOM     65  H   UNL     1     -11.477  -5.076  14.210  0.00  0.00    +0.000 HD
ATOM     66  H   UNL     1     -12.405  -3.831  15.129  0.00  0.00    +0.000 HD
ATOM     67  H   UNL     1     -12.579  -5.546  15.517  0.00  0.00    +0.000 HD
ENDBRANCH  50  64
ENDBRANCH   2  50
BRANCH   1  68
ATOM     68  O   UNL     1     -10.508  -1.910  14.991  0.00  0.00    +0.000 OA
BRANCH  68  69
ATOM     69  C   UNL     1     -11.324  -1.353  13.952  0.00  0.00    +0.000 C 
ATOM     70  H   UNL     1     -12.066  -2.063  13.579  0.00  0.00    +0.000 HD
ATOM     71  H   UNL     1     -10.714  -1.005  13.120  0.00  0.00    +0.000 HD
ATOM     72  H   UNL     1     -11.881  -0.507  14.370  0.00  0.00    +0.000 HD
ENDBRANCH  68  69
ENDBRANCH   1  68
TORSDOF 6
ENDMDL
MODEL 7
REMARK VINA RESULT:    -7.922      3.064      7.697
REMARK INTER + INTRA:          -9.820
REMARK INTER:                  -8.275
REMARK INTRA:                  -1.544
REMARK UNBOUND:                 0.187
REMARK  Name = 
REMARK  6 active torsions:
REMARK  status: ('A' for Active; 'I' for Inactive)
REMARK    1  A    between atoms: C_1  and  O_2
REMARK    2  A    between atoms: O_2  and  C_3
REMARK    3  A    between atoms: C_4  and  N_5
REMARK    4  A    between atoms: N_5  and  C_6
REMARK    5  A    between atoms: C_7  and  C_9
REMARK    6  A    between atoms: C_18  and  C_19
REMARK                            x       y       z     vdW  Elec       q    Type
REMARK                         _______ _______ _______ _____ _____    ______ ____
ROOT
ATOM      1  C   UNL     1      -9.259  -0.734  18.012  0.00  0.00    +0.000 C 
ATOM      2  C   UNL     1      -9.778  -2.059  18.642  0.00  0.00    +0.000 C 
ATOM      3  C   UNL     1     -11.318  -2.391  18.131  0.00  0.00    +0.000 C 
ATOM      4  C   UNL     1     -11.209  -2.751  16.481  0.00  0.00    +0.000 C 
ATOM      5  O   UNL     1      -9.975  -2.134  16.183  0.00  0.00    +0.000 OA
ATOM      6  C   UNL     1      -9.900  -0.704  16.606  0.00  0.00    +0.000 C 
ATOM      7  N   UNL     1     -11.218  -0.005  16.560  0.00  0.00    +0.000 N 
ATOM      8  C   UNL     1     -11.941   1.063  17.161  0.00  0.00    +0.000 A 
ATOM      9  C   UNL     1     -12.150   1.480  18.495  0.00  0.00    +0.000 A 
ATOM     10  C   UNL     1     -13.299   2.225  18.823  0.00  0.00    +0.000 A 
ATOM     11  C   UNL     1     -14.272   2.518  17.881  0.00  0.00    +0.000 A 
ATOM     12  C   UNL     1     -14.030   2.231  16.546  0.00  0.00    +0.000 A 
ATOM     13  C   UNL     1     -12.791   1.671  16.135  0.00  0.00    +0.000 A 
ATOM     14  C   UNL     1     -12.564   1.021  14.901  0.00  0.00    +0.000 A 
ATOM     15  C   UNL     1     -11.611   1.500  13.929  0.00  0.00    +0.000 A 
ATOM     16  C   UNL     1     -11.340   0.507  12.955  0.00  0.00    +0.000 A 
ATOM     17  C   UNL     1     -11.587  -0.788  13.480  0.00  0.00    +0.000 A 
ATOM     18  C   UNL     1     -10.904  -1.978  13.119  0.00  0.00    +0.000 A 
ATOM     19  C   UNL     1     -10.311  -2.271  11.888  0.00  0.00    +0.000 A 
ATOM     20  C   UNL     1     -11.297  -2.695  11.013  0.00  0.00    +0.000 A 
ATOM     21  C   UNL     1     -12.444  -3.317  11.521  0.00  0.00    +0.000 A 
ATOM     22  C   UNL     1     -12.604  -3.596  12.919  0.00  0.00    +0.000 A 
ATOM     23  C   UNL     1     -11.700  -2.982  13.839  0.00  0.00    +0.000 A 
ATOM     24  N   UNL     1     -11.974  -2.467  15.233  0.00  0.00    +0.000 N 
ATOM     25  C   UNL     1     -12.041  -1.193  14.740  0.00  0.00    +0.000 A 
ATOM     26  C   UNL     1     -12.120  -0.127  15.548  0.00  0.00    +0.000 A 
ATOM     27  C   UNL     1     -10.394   1.021  12.017  0.00  0.00    +0.000 C 
ATOM     28  O   UNL     1     -10.059   0.678  10.905  0.00  0.00    +0.000 OA
ATOM     29  N   UNL     1      -9.892   2.100  12.698  0.00  0.00    +0.000 N 
ATOM     30  C   UNL     1     -10.432   2.319  13.942  0.00  0.00    +0.000 C 
ATOM     31  O   UNL     1      -9.812   2.874  14.841  0.00  0.00    +0.000 OA
ATOM     32  H   UNL     1      -8.171  -0.827  17.934  0.00  0.00    +0.000 HD
ATOM     33  H   UNL     1      -9.310  -2.858  18.103  0.00  0.00    +0.000 HD
ATOM     34  H   UNL     1     -11.982  -1.546  18.347  0.00  0.00    +0.000 HD
ATOM     35  H   UNL     1     -11.725  -3.245  18.682  0.00  0.00    +0.000 HD
ATOM     36  H   UNL     1     -11.118  -3.841  16.457  0.00  0.00    +0.000 HD
ATOM     37  H   UNL     1     -11.539   1.134  19.315  0.00  0.00    +0.000 HD
ATOM     38  H   UNL     1     -13.478   2.500  19.859  0.00  0.00    +0.000 HD
ATOM     39  H   UNL     1     -15.255   2.883  18.180  0.00  0.00    +0.000 HD
ATOM     40  H   UNL     1     -14.845   2.307  15.822  0.00  0.00    +0.000 HD
ATOM     41  H   UNL     1      -9.509  -1.651  11.481  0.00  0.00    +0.000 HD
ATOM     42  H   UNL     1     -11.212  -2.412   9.966  0.00  0.00    +0.000 HD
ATOM     43  H   UNL     1     -13.264  -3.497  10.826  0.00  0.00    +0.000 HD
ATOM     44  H   UNL     1     -13.549  -4.012  13.256  0.00  0.00    +0.000 HD
ATOM     45  H   UNL     1      -8.947   2.376  12.467  0.00  0.00    +0.000 HD
ENDROOT
BRANCH   6  46
ATOM     46  C   UNL     1      -8.798  -0.380  15.563  0.00  0.00    +0.000 C 
ATOM     47  H   UNL     1      -9.198   0.361  14.848  0.00  0.00    +0.000 HD
ATOM     48  H   UNL     1      -8.411  -1.239  15.008  0.00  0.00    +0.000 HD
ATOM     49  H   UNL     1      -7.975   0.187  16.014  0.00  0.00    +0.000 HD
ENDBRANCH   6  46
BRANCH   2  50
ATOM     50  N   UNL     1      -9.143  -2.353  19.956  0.00  0.00    +0.000 N 
ATOM     51  C   UNL     1      -9.736  -1.965  21.228  0.00  0.00    +0.000 C 
ATOM     52  O   UNL     1      -9.443  -2.598  22.248  0.00  0.00    +0.000 OA
BRANCH  51  53
ATOM     53  C   UNL     1     -10.696  -0.802  21.467  0.00  0.00    +0.000 A 
ATOM     54  C   UNL     1     -12.085  -1.097  21.477  0.00  0.00    +0.000 A 
ATOM     55  C   UNL     1     -13.050  -0.152  21.874  0.00  0.00    +0.000 A 
ATOM     56  C   UNL     1     -12.657   1.128  22.239  0.00  0.00    +0.000 A 
ATOM     57  C   UNL     1     -11.311   1.462  22.182  0.00  0.00    +0.000 A 
ATOM     58  C   UNL     1     -10.348   0.505  21.824  0.00  0.00    +0.000 A 
ATOM     59  H   UNL     1     -12.438  -2.096  21.221  0.00  0.00    +0.000 HD
ATOM     60  H   UNL     1     -14.101  -0.428  21.926  0.00  0.00    +0.000 HD
ATOM     61  H   UNL     1     -13.387   1.855  22.590  0.00  0.00    +0.000 HD
ATOM     62  H   UNL     1     -10.990   2.463  22.464  0.00  0.00    +0.000 HD
ATOM     63  H   UNL     1      -9.330   0.845  21.916  0.00  0.00    +0.000 HD
ENDBRANCH  51  53
BRANCH  50  64
ATOM     64  C   UNL     1      -8.334  -3.559  20.078  0.00  0.00    +0.000 C 
ATOM     65  H   UNL     1      -7.283  -3.335  19.892  0.00  0.00    +0.000 HD
ATOM     66  H   UNL     1      -8.702  -4.328  19.388  0.00  0.00    +0.000 HD
ATOM     67  H   UNL     1      -8.424  -3.964  21.095  0.00  0.00    +0.000 HD
ENDBRANCH  50  64
ENDBRANCH   2  50
BRANCH   1  68
ATOM     68  O   UNL     1      -9.472   0.420  18.825  0.00  0.00    +0.000 OA
BRANCH  68  69
ATOM     69  C   UNL     1      -8.575   1.509  18.567  0.00  0.00    +0.000 C 
ATOM     70  H   UNL     1      -9.098   2.461  18.447  0.00  0.00    +0.000 HD
ATOM     71  H   UNL     1      -7.973   1.319  17.679  0.00  0.00    +0.000 HD
ATOM     72  H   UNL     1      -7.914   1.621  19.434  0.00  0.00    +0.000 HD
ENDBRANCH  68  69
ENDBRANCH   1  68
TORSDOF 6
ENDMDL
MODEL 8
REMARK VINA RESULT:    -7.830     10.895     14.365
REMARK INTER + INTRA:          -9.702
REMARK INTER:                  -7.892
REMARK INTRA:                  -1.811
REMARK UNBOUND:                 0.187
REMARK  Name = 
REMARK  6 active torsions:
REMARK  status: ('A' for Active; 'I' for Inactive)
REMARK    1  A    between atoms: C_1  and  O_2
REMARK    2  A    between atoms: O_2  and  C_3
REMARK    3  A    between atoms: C_4  and  N_5
REMARK    4  A    between atoms: N_5  and  C_6
REMARK    5  A    between atoms: C_7  and  C_9
REMARK    6  A    between atoms: C_18  and  C_19
REMARK                            x       y       z     vdW  Elec       q    Type
REMARK                         _______ _______ _______ _____ _____    ______ ____
ROOT
ATOM      1  C   UNL     1       2.690   2.661  14.676  0.00  0.00    +0.000 C 
ATOM      2  C   UNL     1       3.585   2.298  13.457  0.00  0.00    +0.000 C 
ATOM      3  C   UNL     1       3.330   0.732  12.984  0.00  0.00    +0.000 C 
ATOM      4  C   UNL     1       1.761   0.670  12.354  0.00  0.00    +0.000 C 
ATOM      5  O   UNL     1       1.215   1.823  12.960  0.00  0.00    +0.000 OA
ATOM      6  C   UNL     1       1.387   1.862  14.443  0.00  0.00    +0.000 C 
ATOM      7  N   UNL     1       1.392   0.508  15.072  0.00  0.00    +0.000 N 
ATOM      8  C   UNL     1       1.897  -0.203  16.197  0.00  0.00    +0.000 A 
ATOM      9  C   UNL     1       3.160  -0.281  16.825  0.00  0.00    +0.000 A 
ATOM     10  C   UNL     1       3.503  -1.426  17.568  0.00  0.00    +0.000 A 
ATOM     11  C   UNL     1       2.653  -2.518  17.660  0.00  0.00    +0.000 A 
ATOM     12  C   UNL     1       1.363  -2.415  17.161  0.00  0.00    +0.000 A 
ATOM     13  C   UNL     1       0.898  -1.200  16.589  0.00  0.00    +0.000 A 
ATOM     14  C   UNL     1      -0.232  -1.080  15.750  0.00  0.00    +0.000 A 
ATOM     15  C   UNL     1      -1.380  -0.276  16.095  0.00  0.00    +0.000 A 
ATOM     16  C   UNL     1      -2.205  -0.061  14.963  0.00  0.00    +0.000 A 
ATOM     17  C   UNL     1      -1.450  -0.169  13.767  0.00  0.00    +0.000 A 
ATOM     18  C   UNL     1      -1.694   0.537  12.561  0.00  0.00    +0.000 A 
ATOM     19  C   UNL     1      -2.925   1.001  12.088  0.00  0.00    +0.000 A 
ATOM     20  C   UNL     1      -3.590  -0.053  11.484  0.00  0.00    +0.000 A 
ATOM     21  C   UNL     1      -2.850  -1.094  10.912  0.00  0.00    +0.000 A 
ATOM     22  C   UNL     1      -1.416  -1.074  10.866  0.00  0.00    +0.000 A 
ATOM     23  C   UNL     1      -0.727  -0.108  11.663  0.00  0.00    +0.000 A 
ATOM     24  N   UNL     1       0.587  -0.250  12.394  0.00  0.00    +0.000 N 
ATOM     25  C   UNL     1      -0.094  -0.449  13.562  0.00  0.00    +0.000 A 
ATOM     26  C   UNL     1       0.533  -0.497  14.746  0.00  0.00    +0.000 A 
ATOM     27  C   UNL     1      -3.324   0.738  15.349  0.00  0.00    +0.000 C 
ATOM     28  O   UNL     1      -4.398   0.962  14.836  0.00  0.00    +0.000 OA
ATOM     29  N   UNL     1      -2.895   1.251  16.546  0.00  0.00    +0.000 N 
ATOM     30  C   UNL     1      -1.646   0.846  16.950  0.00  0.00    +0.000 C 
ATOM     31  O   UNL     1      -0.933   1.531  17.673  0.00  0.00    +0.000 OA
ATOM     32  H   UNL     1       2.493   3.737  14.614  0.00  0.00    +0.000 HD
ATOM     33  H   UNL     1       3.130   2.747  12.598  0.00  0.00    +0.000 HD
ATOM     34  H   UNL     1       3.486   0.048  13.825  0.00  0.00    +0.000 HD
ATOM     35  H   UNL     1       4.059   0.443  12.219  0.00  0.00    +0.000 HD
ATOM     36  H   UNL     1       1.903   0.823  11.280  0.00  0.00    +0.000 HD
ATOM     37  H   UNL     1       3.943   0.440  16.646  0.00  0.00    +0.000 HD
ATOM     38  H   UNL     1       4.494  -1.501  18.007  0.00  0.00    +0.000 HD
ATOM     39  H   UNL     1       3.008  -3.480  18.031  0.00  0.00    +0.000 HD
ATOM     40  H   UNL     1       0.743  -3.312  17.082  0.00  0.00    +0.000 HD
ATOM     41  H   UNL     1      -3.524   1.712  12.661  0.00  0.00    +0.000 HD
ATOM     42  H   UNL     1      -4.671  -0.106  11.590  0.00  0.00    +0.000 HD
ATOM     43  H   UNL     1      -3.398  -1.977  10.585  0.00  0.00    +0.000 HD
ATOM     44  H   UNL     1      -0.901  -1.948  10.477  0.00  0.00    +0.000 HD
ATOM     45  H   UNL     1      -3.283   2.144  16.816  0.00  0.00    +0.000 HD
ENDROOT
BRANCH   6  46
ATOM     46  C   UNL     1       0.177   2.813  14.630  0.00  0.00    +0.000 C 
ATOM     47  H   UNL     1       0.145   3.513  13.775  0.00  0.00    +0.000 HD
ATOM     48  H   UNL     1       0.170   3.387  15.561  0.00  0.00    +0.000 HD
ATOM     49  H   UNL     1      -0.773   2.282  14.501  0.00  0.00    +0.000 HD
ENDBRANCH   6  46
BRANCH   2  50
ATOM     50  N   UNL     1       4.841   3.097  13.414  0.00  0.00    +0.000 N 
ATOM     51  C   UNL     1       6.115   2.600  13.913  0.00  0.00    +0.000 C 
ATOM     52  O   UNL     1       7.165   3.070  13.461  0.00  0.00    +0.000 OA
BRANCH  51  53
ATOM     53  C   UNL     1       6.318   1.542  14.995  0.00  0.00    +0.000 A 
ATOM     54  C   UNL     1       6.477   0.197  14.568  0.00  0.00    +0.000 A 
ATOM     55  C   UNL     1       6.859  -0.830  15.450  0.00  0.00    +0.000 A 
ATOM     56  C   UNL     1       7.058  -0.550  16.795  0.00  0.00    +0.000 A 
ATOM     57  C   UNL     1       6.852   0.744  17.251  0.00  0.00    +0.000 A 
ATOM     58  C   UNL     1       6.511   1.774  16.360  0.00  0.00    +0.000 A 
ATOM     59  H   UNL     1       6.354  -0.065  13.517  0.00  0.00    +0.000 HD
ATOM     60  H   UNL     1       7.029  -1.839  15.079  0.00  0.00    +0.000 HD
ATOM     61  H   UNL     1       7.397  -1.325  17.480  0.00  0.00    +0.000 HD
ATOM     62  H   UNL     1       7.004   0.976  18.304  0.00  0.00    +0.000 HD
ATOM     63  H   UNL     1       6.480   2.754  16.807  0.00  0.00    +0.000 HD
ENDBRANCH  51  53
BRANCH  50  64
ATOM     64  C   UNL     1       5.017   4.049  12.324  0.00  0.00    +0.000 C 
ATOM     65  H   UNL     1       4.865   3.560  11.361  0.00  0.00    +0.000 HD
ATOM     66  H   UNL     1       6.012   4.505  12.383  0.00  0.00    +0.000 HD
ATOM     67  H   UNL     1       4.281   4.859  12.417  0.00  0.00    +0.000 HD
ENDBRANCH  50  64
ENDBRANCH   2  50
BRANCH   1  68
ATOM     68  O   UNL     1       3.323   2.476  15.942  0.00  0.00    +0.000 OA
BRANCH  68  69
ATOM     69  C   UNL     1       3.375   3.649  16.765  0.00  0.00    +0.000 C 
ATOM     70  H   UNL     1       4.212   3.630  17.466  0.00  0.00    +0.000 HD
ATOM     71  H   UNL     1       2.447   3.778  17.321  0.00  0.00    +0.000 HD
ATOM     72  H   UNL     1       3.530   4.517  16.114  0.00  0.00    +0.000 HD
ENDBRANCH  68  69
ENDBRANCH   1  68
TORSDOF 6
ENDMDL
MODEL 9
REMARK VINA RESULT:    -7.703      4.504      9.471
REMARK INTER + INTRA:          -9.543
REMARK INTER:                  -8.548
REMARK INTRA:                  -0.995
REMARK UNBOUND:                 0.187
REMARK  Name = 
REMARK  6 active torsions:
REMARK  status: ('A' for Active; 'I' for Inactive)
REMARK    1  A    between atoms: C_1  and  O_2
REMARK    2  A    between atoms: O_2  and  C_3
REMARK    3  A    between atoms: C_4  and  N_5
REMARK    4  A    between atoms: N_5  and  C_6
REMARK    5  A    between atoms: C_7  and  C_9
REMARK    6  A    between atoms: C_18  and  C_19
REMARK                            x       y       z     vdW  Elec       q    Type
REMARK                         _______ _______ _______ _____ _____    ______ ____
ROOT
ATOM      1  C   UNL     1     -13.728   1.986  16.142  0.00  0.00    +0.000 C 
ATOM      2  C   UNL     1     -13.803   3.065  15.024  0.00  0.00    +0.000 C 
ATOM      3  C   UNL     1     -12.451   3.019  14.069  0.00  0.00    +0.000 C 
ATOM      4  C   UNL     1     -12.516   1.559  13.216  0.00  0.00    +0.000 C 
ATOM      5  O   UNL     1     -13.397   0.835  14.049  0.00  0.00    +0.000 OA
ATOM      6  C   UNL     1     -12.981   0.804  15.483  0.00  0.00    +0.000 C 
ATOM      7  N   UNL     1     -11.501   0.849  15.669  0.00  0.00    +0.000 N 
ATOM      8  C   UNL     1     -10.500   1.262  16.592  0.00  0.00    +0.000 A 
ATOM      9  C   UNL     1     -10.289   2.433  17.355  0.00  0.00    +0.000 A 
ATOM     10  C   UNL     1      -8.987   2.777  17.764  0.00  0.00    +0.000 A 
ATOM     11  C   UNL     1      -7.883   2.027  17.391  0.00  0.00    +0.000 A 
ATOM     12  C   UNL     1      -8.076   0.810  16.754  0.00  0.00    +0.000 A 
ATOM     13  C   UNL     1      -9.385   0.316  16.508  0.00  0.00    +0.000 A 
ATOM     14  C   UNL     1      -9.708  -0.699  15.579  0.00  0.00    +0.000 A 
ATOM     15  C   UNL     1     -10.312  -1.951  15.968  0.00  0.00    +0.000 A 
ATOM     16  C   UNL     1     -10.829  -2.635  14.841  0.00  0.00    +0.000 A 
ATOM     17  C   UNL     1     -11.133  -1.721  13.799  0.00  0.00    +0.000 A 
ATOM     18  C   UNL     1     -12.166  -1.866  12.838  0.00  0.00    +0.000 A 
ATOM     19  C   UNL     1     -12.696  -3.061  12.342  0.00  0.00    +0.000 A 
ATOM     20  C   UNL     1     -11.853  -3.540  11.354  0.00  0.00    +0.000 A 
ATOM     21  C   UNL     1     -11.075  -2.639  10.617  0.00  0.00    +0.000 A 
ATOM     22  C   UNL     1     -11.174  -1.220  10.801  0.00  0.00    +0.000 A 
ATOM     23  C   UNL     1     -11.877  -0.733  11.947  0.00  0.00    +0.000 A 
ATOM     24  N   UNL     1     -11.576   0.479  12.796  0.00  0.00    +0.000 N 
ATOM     25  C   UNL     1     -10.993  -0.330  13.731  0.00  0.00    +0.000 A 
ATOM     26  C   UNL     1     -10.609   0.136  14.928  0.00  0.00    +0.000 A 
ATOM     27  C   UNL     1     -11.417  -3.863  15.270  0.00  0.00    +0.000 C 
ATOM     28  O   UNL     1     -11.739  -4.876  14.689  0.00  0.00    +0.000 OA
ATOM     29  N   UNL     1     -11.551  -3.645  16.617  0.00  0.00    +0.000 N 
ATOM     30  C   UNL     1     -11.099  -2.429  17.069  0.00  0.00    +0.000 C 
ATOM     31  O   UNL     1     -11.559  -1.884  18.066  0.00  0.00    +0.000 OA
ATOM     32  H   UNL     1     -14.760   1.701  16.377  0.00  0.00    +0.000 HD
ATOM     33  H   UNL     1     -14.475   2.689  14.280  0.00  0.00    +0.000 HD
ATOM     34  H   UNL     1     -11.548   3.123  14.681  0.00  0.00    +0.000 HD
ATOM     35  H   UNL     1     -12.448   3.866  13.375  0.00  0.00    +0.000 HD
ATOM     36  H   UNL     1     -13.000   1.828  12.273  0.00  0.00    +0.000 HD
ATOM     37  H   UNL     1     -11.066   3.164  17.524  0.00  0.00    +0.000 HD
ATOM     38  H   UNL     1      -8.826   3.704  18.307  0.00  0.00    +0.000 HD
ATOM     39  H   UNL     1      -6.871   2.415  17.507  0.00  0.00    +0.000 HD
ATOM     40  H   UNL     1      -7.221   0.291  16.314  0.00  0.00    +0.000 HD
ATOM     41  H   UNL     1     -13.166  -3.793  13.002  0.00  0.00    +0.000 HD
ATOM     42  H   UNL     1     -11.719  -4.617  11.271  0.00  0.00    +0.000 HD
ATOM     43  H   UNL     1     -10.313  -3.057   9.960  0.00  0.00    +0.000 HD
ATOM     44  H   UNL     1     -10.490  -0.580  10.252  0.00  0.00    +0.000 HD
ATOM     45  H   UNL     1     -12.298  -4.146  17.080  0.00  0.00    +0.000 HD
ENDROOT
BRANCH   6  46
ATOM     46  C   UNL     1     -13.771  -0.502  15.757  0.00  0.00    +0.000 C 
ATOM     47  H   UNL     1     -13.403  -0.944  16.700  0.00  0.00    +0.000 HD
ATOM     48  H   UNL     1     -13.722  -1.255  14.966  0.00  0.00    +0.000 HD
ATOM     49  H   UNL     1     -14.815  -0.290  16.019  0.00  0.00    +0.000 HD
ENDBRANCH   6  46
BRANCH   2  50
ATOM     50  N   UNL     1     -14.633   4.237  15.417  0.00  0.00    +0.000 N 
ATOM     51  C   UNL     1     -16.072   4.156  15.624  0.00  0.00    +0.000 C 
ATOM     52  O   UNL     1     -16.623   4.980  16.363  0.00  0.00    +0.000 OA
BRANCH  51  53
ATOM     53  C   UNL     1     -17.028   3.149  14.988  0.00  0.00    +0.000 A 
ATOM     54  C   UNL     1     -17.495   2.088  15.809  0.00  0.00    +0.000 A 
ATOM     55  C   UNL     1     -18.519   1.216  15.396  0.00  0.00    +0.000 A 
ATOM     56  C   UNL     1     -19.082   1.355  14.135  0.00  0.00    +0.000 A 
ATOM     57  C   UNL     1     -18.603   2.345  13.289  0.00  0.00    +0.000 A 
ATOM     58  C   UNL     1     -17.609   3.239  13.720  0.00  0.00    +0.000 A 
ATOM     59  H   UNL     1     -17.099   1.955  16.816  0.00  0.00    +0.000 HD
ATOM     60  H   UNL     1     -18.895   0.450  16.072  0.00  0.00    +0.000 HD
ATOM     61  H   UNL     1     -19.905   0.716  13.820  0.00  0.00    +0.000 HD
ATOM     62  H   UNL     1     -19.035   2.464  12.298  0.00  0.00    +0.000 HD
ATOM     63  H   UNL     1     -17.391   4.029  13.021  0.00  0.00    +0.000 HD
ENDBRANCH  51  53
BRANCH  50  64
ATOM     64  C   UNL     1     -14.022   5.270  16.243  0.00  0.00    +0.000 C 
ATOM     65  H   UNL     1     -13.606   6.062  15.618  0.00  0.00    +0.000 HD
ATOM     66  H   UNL     1     -13.251   4.829  16.886  0.00  0.00    +0.000 HD
ATOM     67  H   UNL     1     -14.780   5.716  16.901  0.00  0.00    +0.000 HD
ENDBRANCH  50  64
ENDBRANCH   2  50
BRANCH   1  68
ATOM     68  O   UNL     1     -13.189   2.460  17.376  0.00  0.00    +0.000 OA
BRANCH  68  69
ATOM     69  C   UNL     1     -14.052   2.300  18.510  0.00  0.00    +0.000 C 
ATOM     70  H   UNL     1     -15.040   2.734  18.346  0.00  0.00    +0.000 HD
ATOM     71  H   UNL     1     -13.611   2.742  19.403  0.00  0.00    +0.000 HD
ATOM     72  H   UNL     1     -14.204   1.227  18.676  0.00  0.00    +0.000 HD
ENDBRANCH  68  69
ENDBRANCH   1  68
TORSDOF 6
ENDMDL
