REMARK  Name = 
REMARK  8 active torsions:
REMARK  status: ('A' for Active; 'I' for Inactive)
REMARK    1  A    between atoms: N_1  and  C_2
REMARK    2  A    between atoms: C_2  and  C_3
REMARK    3  A    between atoms: C_2  and  C_19
REMARK    4  A    between atoms: C_3  and  O_4
REMARK    5  A    between atoms: O_4  and  C_5
REMARK    6  A    between atoms: C_9  and  C_10
REMARK    7  A    between atoms: C_11  and  C_12
REMARK    8  A    between atoms: C_19  and  C_20
REMARK                            x       y       z     vdW  Elec       q    Type
REMARK                         _______ _______ _______ _____ _____    ______ ____
ROOT
ATOM      1  C   UNL     1       0.585   0.051  -0.357  0.00  0.00    +0.000 C 
ATOM      2  H   UNL     1       0.238   0.835  -1.044  0.00  0.00    +0.000 HD
ATOM      3  H   UNL     1       0.244  -0.925  -0.718  0.00  0.00    +0.000 HD
ENDROOT
BRANCH   1   4
ATOM      4  C   UNL     1       2.133   0.055  -0.309  0.00  0.00    +0.000 C 
ATOM      5  H   UNL     1       2.505  -0.195  -1.310  0.00  0.00    +0.000 HD
BRANCH   4   6
ATOM      6  N   UNL     1       2.610   1.420  -0.006  0.00  0.00    +0.000 NA
ATOM      7  H   UNL     1       3.629   1.402   0.081  0.00  0.00    +0.000 HD
ATOM      8  H   UNL     1       2.266   1.688   0.917  0.00  0.00    +0.000 HD
ENDBRANCH   4   6
BRANCH   4   9
ATOM      9  C   UNL     1       2.635  -1.015   0.695  0.00  0.00    +0.000 C 
ATOM     10  H   UNL     1       2.259  -1.997   0.380  0.00  0.00    +0.000 HD
ATOM     11  H   UNL     1       2.216  -0.836   1.693  0.00  0.00    +0.000 HD
BRANCH   9  12
ATOM     12  C   UNL     1       4.129  -1.088   0.807  0.00  0.00    +0.000 A 
ATOM     13  C   UNL     1       4.981  -1.866   0.047  0.00  0.00    +0.000 A 
ATOM     14  N   UNL     1       6.266  -1.604   0.440  0.00  0.00    +0.000 N 
ATOM     15  C   UNL     1       6.276  -0.664   1.444  0.00  0.00    +0.000 A 
ATOM     16  C   UNL     1       7.351  -0.070   2.117  0.00  0.00    +0.000 A 
ATOM     17  C   UNL     1       7.054   0.872   3.107  0.00  0.00    +0.000 A 
ATOM     18  C   UNL     1       5.736   1.190   3.425  0.00  0.00    +0.000 A 
ATOM     19  C   UNL     1       4.675   0.580   2.747  0.00  0.00    +0.000 A 
ATOM     20  C   UNL     1       4.947  -0.351   1.723  0.00  0.00    +0.000 A 
ATOM     21  H   UNL     1       4.783  -2.576  -0.746  0.00  0.00    +0.000 HD
ATOM     22  H   UNL     1       7.095  -2.024   0.043  0.00  0.00    +0.000 HD
ATOM     23  H   UNL     1       8.379  -0.319   1.878  0.00  0.00    +0.000 HD
ATOM     24  H   UNL     1       7.866   1.364   3.638  0.00  0.00    +0.000 HD
ATOM     25  H   UNL     1       5.526   1.921   4.201  0.00  0.00    +0.000 HD
ATOM     26  H   UNL     1       3.651   0.836   3.003  0.00  0.00    +0.000 HD
ENDBRANCH   9  12
ENDBRANCH   4   9
ENDBRANCH   1   4
BRANCH   1  27
ATOM     27  O   UNL     1       0.076   0.290   0.960  0.00  0.00    +0.000 OA
BRANCH  27  28
ATOM     28  C   UNL     1      -1.277   0.337   1.117  0.00  0.00    +0.000 A 
ATOM     29  C   UNL     1      -1.723   0.622   2.404  0.00  0.00    +0.000 A 
ATOM     30  N   UNL     1      -3.024   0.708   2.764  0.00  0.00    +0.000 NA
ATOM     31  C   UNL     1      -3.926   0.503   1.780  0.00  0.00    +0.000 A 
ATOM     32  C   UNL     1      -3.601   0.217   0.453  0.00  0.00    +0.000 A 
ATOM     33  C   UNL     1      -2.241   0.122   0.133  0.00  0.00    +0.000 A 
ATOM     34  H   UNL     1      -1.013   0.790   3.210  0.00  0.00    +0.000 HD
ATOM     35  H   UNL     1      -4.961   0.585   2.102  0.00  0.00    +0.000 HD
ATOM     36  H   UNL     1      -1.949  -0.131  -0.880  0.00  0.00    +0.000 HD
BRANCH  32  37
ATOM     37  C   UNL     1      -4.684  -0.022  -0.513  0.00  0.00    +0.000 C 
ATOM     38  C   UNL     1      -4.614   0.243  -1.828  0.00  0.00    +0.000 C 
ATOM     39  H   UNL     1      -5.597  -0.426  -0.080  0.00  0.00    +0.000 HD
ATOM     40  H   UNL     1      -3.705   0.646  -2.268  0.00  0.00    +0.000 HD
BRANCH  38  41
ATOM     41  C   UNL     1      -5.728   0.035  -2.770  0.00  0.00    +0.000 A 
ATOM     42  C   UNL     1      -7.067   0.153  -2.389  0.00  0.00    +0.000 A 
ATOM     43  C   UNL     1      -8.052  -0.019  -3.349  0.00  0.00    +0.000 A 
ATOM     44  N   UNL     1      -7.798  -0.286  -4.646  0.00  0.00    +0.000 NA
ATOM     45  C   UNL     1      -6.500  -0.380  -4.999  0.00  0.00    +0.000 A 
ATOM     46  C   UNL     1      -5.445  -0.225  -4.112  0.00  0.00    +0.000 A 
ATOM     47  H   UNL     1      -7.358   0.389  -1.372  0.00  0.00    +0.000 HD
ATOM     48  H   UNL     1      -9.104   0.063  -3.090  0.00  0.00    +0.000 HD
ATOM     49  H   UNL     1      -6.321  -0.585  -6.051  0.00  0.00    +0.000 HD
ATOM     50  H   UNL     1      -4.425  -0.312  -4.473  0.00  0.00    +0.000 HD
ENDBRANCH  38  41
ENDBRANCH  32  37
ENDBRANCH  27  28
ENDBRANCH   1  27
TORSDOF 8
