
 OpenBabel01112422403D

 41 44  0  0  0  0  0  0  0  0999 V2000
    1.0818    0.1292    0.3548 O   0  0  0  0  0  0  0  0  0  0  0  0
    2.3033    0.0422    0.2087 C   0  0  0  0  0  0  0  0  0  0  0  0
    3.0734    1.3018    0.1526 C   0  0  0  0  0  0  0  0  0  0  0  0
    2.3855    2.5288    0.1405 C   0  0  0  0  0  0  0  0  0  0  0  0
    1.0159    2.6445    0.2019 O   0  0  0  0  0  0  0  0  0  0  0  0
    3.0864    3.7215    0.0501 C   0  0  0  0  0  0  0  0  0  0  0  0
    2.4145    4.9086    0.0135 O   0  0  0  0  0  0  0  0  0  0  0  0
    4.4664    3.7220   -0.0093 C   0  0  0  0  0  0  0  0  0  0  0  0
    5.1537    2.5024    0.0067 C   0  0  0  0  0  0  0  0  0  0  0  0
    4.4782    1.2622    0.0824 C   0  0  0  0  0  0  0  0  0  0  0  0
    5.1722   -0.0463    0.0720 C   0  0  0  0  0  0  0  0  0  0  0  0
    6.5852   -0.1490    0.0812 C   0  0  0  0  0  0  0  0  0  0  0  0
    7.2116   -1.3903    0.0522 C   0  0  0  0  0  0  0  0  0  0  0  0
    8.5714   -1.5216    0.0604 O   0  0  0  0  0  0  0  0  0  0  0  0
    6.4555   -2.5478    0.0189 C   0  0  0  0  0  0  0  0  0  0  0  0
    7.0710   -3.7666   -0.0067 O   0  0  0  0  0  0  0  0  0  0  0  0
    5.0716   -2.4866    0.0203 C   0  0  0  0  0  0  0  0  0  0  0  0
    4.4108   -1.2430    0.0488 C   0  0  0  0  0  0  0  0  0  0  0  0
    2.9807   -1.1663    0.0836 N   0  0  0  0  0  0  0  0  0  0  0  0
    2.1528   -2.3770    0.0540 C   0  0  0  0  0  0  0  0  0  0  0  0
    2.0087   -3.1037    1.3769 C   0  0  0  0  0  0  0  0  0  0  0  0
    2.4342   -2.5616    2.5985 C   0  0  0  0  0  0  0  0  0  0  0  0
    2.3287   -3.2959    3.7803 C   0  0  0  0  0  0  0  0  0  0  0  0
    1.7737   -4.5725    3.7621 C   0  0  0  0  0  0  0  0  0  0  0  0
    1.3015   -5.1068    2.5661 C   0  0  0  0  0  0  0  0  0  0  0  0
    1.4133   -4.3758    1.3821 C   0  0  0  0  0  0  0  0  0  0  0  0
    0.6484    1.7345    0.3049 H   0  0  0  0  0  0  0  0  0  0  0  0
    1.4689    4.6539    0.0470 H   0  0  0  0  0  0  0  0  0  0  0  0
    5.0076    4.6625   -0.0774 H   0  0  0  0  0  0  0  0  0  0  0  0
    6.2362    2.5609   -0.0562 H   0  0  0  0  0  0  0  0  0  0  0  0
    7.2096    0.7355    0.1150 H   0  0  0  0  0  0  0  0  0  0  0  0
    8.9729   -0.6364    0.0927 H   0  0  0  0  0  0  0  0  0  0  0  0
    8.0262   -3.5648    0.0137 H   0  0  0  0  0  0  0  0  0  0  0  0
    4.5381   -3.4312    0.0194 H   0  0  0  0  0  0  0  0  0  0  0  0
    2.5526   -3.0544   -0.7101 H   0  0  0  0  0  0  0  0  0  0  0  0
    1.1444   -2.1177   -0.2930 H   0  0  0  0  0  0  0  0  0  0  0  0
    2.8654   -1.5652    2.6480 H   0  0  0  0  0  0  0  0  0  0  0  0
    2.6864   -2.8701    4.7142 H   0  0  0  0  0  0  0  0  0  0  0  0
    1.7054   -5.1479    4.6812 H   0  0  0  0  0  0  0  0  0  0  0  0
    0.8512   -6.0957    2.5539 H   0  0  0  0  0  0  0  0  0  0  0  0
    1.0374   -4.8097    0.4575 H   0  0  0  0  0  0  0  0  0  0  0  0
  1  2  2  0  0  0  0
  2  3  1  0  0  0  0
  2 19  1  0  0  0  0
  3  4  1  0  0  0  0
  3 10  2  0  0  0  0
  4  5  1  0  0  0  0
  4  6  2  0  0  0  0
  5 27  1  0  0  0  0
  6  7  1  0  0  0  0
  6  8  1  0  0  0  0
  7 28  1  0  0  0  0
  8  9  2  0  0  0  0
  8 29  1  0  0  0  0
  9 10  1  0  0  0  0
  9 30  1  0  0  0  0
 10 11  1  0  0  0  0
 11 12  1  0  0  0  0
 11 18  2  0  0  0  0
 12 13  2  0  0  0  0
 12 31  1  0  0  0  0
 13 14  1  0  0  0  0
 13 15  1  0  0  0  0
 14 32  1  0  0  0  0
 15 16  1  0  0  0  0
 15 17  2  0  0  0  0
 16 33  1  0  0  0  0
 17 18  1  0  0  0  0
 17 34  1  0  0  0  0
 18 19  1  0  0  0  0
 19 20  1  0  0  0  0
 20 21  1  0  0  0  0
 20 35  1  0  0  0  0
 20 36  1  0  0  0  0
 21 22  1  0  0  0  0
 21 26  2  0  0  0  0
 22 23  2  0  0  0  0
 22 37  1  0  0  0  0
 23 24  1  0  0  0  0
 23 38  1  0  0  0  0
 24 25  2  0  0  0  0
 24 39  1  0  0  0  0
 25 26  1  0  0  0  0
 25 40  1  0  0  0  0
 26 41  1  0  0  0  0
M  END
$$$$
