REMARK  Name = 
REMARK  9 active torsions:
REMARK  status: ('A' for Active; 'I' for Inactive)
REMARK    1  A    between atoms: C_1  and  O_2
REMARK    2  A    between atoms: O_2  and  C_3
REMARK    3  A    between atoms: C_4  and  N_5
REMARK    4  A    between atoms: N_5  and  C_6
REMARK    5  A    between atoms: C_7  and  C_9
REMARK    6  A    between atoms: C_9  and  C_10
REMARK    7  A    between atoms: C_10  and  C_11
REMARK    8  A    between atoms: C_11  and  O_13
REMARK    9  A    between atoms: C_17  and  C_18
REMARK                            x       y       z     vdW  Elec       q    Type
REMARK                         _______ _______ _______ _____ _____    ______ ____
ROOT
ATOM      1  C   UNL     1       1.954  -0.624  -2.067  0.00  0.00    +0.000 C 
ATOM      2  C   UNL     1       2.553   0.636  -1.341  0.00  0.00    +0.000 C 
ATOM      3  C   UNL     1       1.958   1.951  -1.842  0.00  0.00    +0.000 C 
ATOM      4  C   UNL     1       0.456   1.899  -1.987  0.00  0.00    +0.000 C 
ATOM      5  O   UNL     1       0.119   0.864  -2.903  0.00  0.00    +0.000 OA
ATOM      6  C   UNL     1       0.438  -0.491  -2.493  0.00  0.00    +0.000 C 
ATOM      7  N   UNL     1      -0.590  -0.950  -1.561  0.00  0.00    +0.000 N 
ATOM      8  C   UNL     1      -1.199  -2.231  -1.415  0.00  0.00    +0.000 A 
ATOM      9  C   UNL     1      -0.681  -3.537  -1.472  0.00  0.00    +0.000 A 
ATOM     10  C   UNL     1      -1.582  -4.612  -1.546  0.00  0.00    +0.000 A 
ATOM     11  C   UNL     1      -2.954  -4.403  -1.645  0.00  0.00    +0.000 A 
ATOM     12  C   UNL     1      -3.479  -3.143  -1.391  0.00  0.00    +0.000 A 
ATOM     13  C   UNL     1      -2.601  -2.078  -1.111  0.00  0.00    +0.000 A 
ATOM     14  C   UNL     1      -2.758  -0.798  -0.593  0.00  0.00    +0.000 A 
ATOM     15  C   UNL     1      -3.749  -0.379   0.305  0.00  0.00    +0.000 A 
ATOM     16  C   UNL     1      -3.696   0.997   0.635  0.00  0.00    +0.000 A 
ATOM     17  C   UNL     1      -2.552   1.640   0.086  0.00  0.00    +0.000 A 
ATOM     18  C   UNL     1      -2.060   2.909   0.451  0.00  0.00    +0.000 A 
ATOM     19  C   UNL     1      -2.607   4.037   1.095  0.00  0.00    +0.000 A 
ATOM     20  C   UNL     1      -1.788   5.105   1.461  0.00  0.00    +0.000 A 
ATOM     21  C   UNL     1      -0.418   5.048   1.243  0.00  0.00    +0.000 A 
ATOM     22  C   UNL     1       0.159   3.989   0.533  0.00  0.00    +0.000 A 
ATOM     23  C   UNL     1      -0.665   2.954   0.060  0.00  0.00    +0.000 A 
ATOM     24  N   UNL     1      -0.349   1.861  -0.780  0.00  0.00    +0.000 N 
ATOM     25  C   UNL     1      -1.470   1.128  -0.622  0.00  0.00    +0.000 A 
ATOM     26  C   UNL     1      -1.568  -0.199  -0.998  0.00  0.00    +0.000 A 
ATOM     27  C   UNL     1      -4.623   1.273   1.670  0.00  0.00    +0.000 C 
ATOM     28  O   UNL     1      -5.001   2.291   2.231  0.00  0.00    +0.000 OA
ATOM     29  N   UNL     1      -5.046  -0.000   2.069  0.00  0.00    +0.000 N 
ATOM     30  C   UNL     1      -4.536  -1.120   1.281  0.00  0.00    +0.000 C 
ATOM     31  H   UNL     1       2.508  -0.640  -3.020  0.00  0.00    +0.000 HD
ATOM     32  H   UNL     1       3.598   0.663  -1.688  0.00  0.00    +0.000 HD
ATOM     33  H   UNL     1       2.366   2.130  -2.847  0.00  0.00    +0.000 HD
ATOM     34  H   UNL     1       2.252   2.811  -1.243  0.00  0.00    +0.000 HD
ATOM     35  H   UNL     1       0.145   2.823  -2.485  0.00  0.00    +0.000 HD
ATOM     36  H   UNL     1       0.388  -3.718  -1.419  0.00  0.00    +0.000 HD
ATOM     37  H   UNL     1      -1.204  -5.631  -1.556  0.00  0.00    +0.000 HD
ATOM     38  H   UNL     1      -3.626  -5.226  -1.867  0.00  0.00    +0.000 HD
ATOM     39  H   UNL     1      -4.551  -2.967  -1.429  0.00  0.00    +0.000 HD
ATOM     40  H   UNL     1      -3.673   4.090   1.300  0.00  0.00    +0.000 HD
ATOM     41  H   UNL     1      -2.231   5.970   1.946  0.00  0.00    +0.000 HD
ATOM     42  H   UNL     1       0.212   5.850   1.616  0.00  0.00    +0.000 HD
ATOM     43  H   UNL     1       1.234   3.966   0.390  0.00  0.00    +0.000 HD
ATOM     44  H   UNL     1      -5.309  -0.092   3.040  0.00  0.00    +0.000 HD
ATOM     45  H   UNL     1      -5.360  -1.692   0.859  0.00  0.00    +0.000 HD
ATOM     46  H   UNL     1      -3.901  -1.733   1.931  0.00  0.00    +0.000 HD
ENDROOT
BRANCH   6  47
ATOM     47  C   UNL     1       0.256  -1.262  -3.829  0.00  0.00    +0.000 C 
ATOM     48  H   UNL     1      -0.784  -1.205  -4.176  0.00  0.00    +0.000 HD
ATOM     49  H   UNL     1       0.856  -0.803  -4.624  0.00  0.00    +0.000 HD
ATOM     50  H   UNL     1       0.541  -2.315  -3.754  0.00  0.00    +0.000 HD
ENDBRANCH   6  47
BRANCH   2  51
ATOM     51  N   UNL     1       2.735   0.622   0.119  0.00  0.00    +0.000 N 
ATOM     52  C   UNL     1       2.056  -0.279   0.912  0.00  0.00    +0.000 C 
ATOM     53  O   UNL     1       0.937  -0.698   0.654  0.00  0.00    +0.000 OA
BRANCH  51  54
ATOM     54  C   UNL     1       3.711   1.539   0.703  0.00  0.00    +0.000 C 
ATOM     55  H   UNL     1       3.421   1.778   1.731  0.00  0.00    +0.000 HD
ATOM     56  H   UNL     1       3.755   2.476   0.145  0.00  0.00    +0.000 HD
ATOM     57  H   UNL     1       4.697   1.071   0.690  0.00  0.00    +0.000 HD
ENDBRANCH  51  54
BRANCH  52  58
ATOM     58  C   UNL     1       2.793  -0.826   2.101  0.00  0.00    +0.000 C 
ATOM     59  H   UNL     1       2.885  -1.911   1.954  0.00  0.00    +0.000 HD
ATOM     60  H   UNL     1       3.821  -0.459   2.171  0.00  0.00    +0.000 HD
BRANCH  58  61
ATOM     61  C   UNL     1       1.988  -0.511   3.338  0.00  0.00    +0.000 C 
ATOM     62  H   UNL     1       1.844   0.568   3.458  0.00  0.00    +0.000 HD
ATOM     63  H   UNL     1       0.988  -0.957   3.281  0.00  0.00    +0.000 HD
BRANCH  61  64
ATOM     64  C   UNL     1       2.722  -1.045   4.519  0.00  0.00    +0.000 C 
ATOM     65  O   UNL     1       3.760  -0.595   4.975  0.00  0.00    +0.000 OA
BRANCH  64  66
ATOM     66  O   UNL     1       2.174  -2.169   5.008  0.00  0.00    +0.000 OA
ATOM     67  H   UNL     1       2.782  -2.445   5.723  0.00  0.00    +0.000 HD
ENDBRANCH  64  66
ENDBRANCH  61  64
ENDBRANCH  58  61
ENDBRANCH  52  58
ENDBRANCH   2  51
BRANCH   1  68
ATOM     68  O   UNL     1       2.221  -1.899  -1.464  0.00  0.00    +0.000 OA
BRANCH  68  69
ATOM     69  C   UNL     1       3.568  -2.237  -1.195  0.00  0.00    +0.000 C 
ATOM     70  H   UNL     1       4.022  -2.699  -2.073  0.00  0.00    +0.000 HD
ATOM     71  H   UNL     1       4.172  -1.389  -0.867  0.00  0.00    +0.000 HD
ATOM     72  H   UNL     1       3.562  -2.973  -0.384  0.00  0.00    +0.000 HD
ENDBRANCH  68  69
ENDBRANCH   1  68
TORSDOF 9
