MODEL 1
REMARK VINA RESULT:   -11.183      0.000      0.000
REMARK INTER + INTRA:         -21.112
REMARK INTER:                 -18.047
REMARK INTRA:                  -3.065
REMARK UNBOUND:                -3.065
REMARK  Name = 
REMARK  13 active torsions:
REMARK  status: ('A' for Active; 'I' for Inactive)
REMARK    1  A    between atoms: C_2  and  C_34
REMARK    2  A    between atoms: N_3  and  C_4
REMARK    3  A    between atoms: C_10  and  O_11
REMARK    4  A    between atoms: O_11  and  C_12
REMARK    5  A    between atoms: C_12  and  C_14
REMARK    6  A    between atoms: C_16  and  O_17
REMARK    7  A    between atoms: C_18  and  C_19
REMARK    8  A    between atoms: C_19  and  C_21
REMARK    9  A    between atoms: C_22  and  O_23
REMARK   10  A    between atoms: C_27  and  C_28
REMARK   11  A    between atoms: C_28  and  O_30
REMARK   12  A    between atoms: C_31  and  O_32
REMARK   13  A    between atoms: C_37  and  O_38
REMARK                            x       y       z     vdW  Elec       q    Type
REMARK                         _______ _______ _______ _____ _____    ______ ____
ROOT
ATOM      1  C   UNL     1      -9.210  -2.903  20.710  0.00  0.00    +0.000 C 
ATOM      2  C   UNL     1      -8.772  -1.418  20.718  0.00  0.00    +0.000 C 
ATOM      3  N   UNL     1      -8.898  -0.797  22.043  0.00  0.00    +0.000 NA
ATOM      4  C   UNL     1      -7.823  -1.015  22.999  0.00  0.00    +0.000 C 
ATOM      5  C   UNL     1      -6.972  -2.281  22.920  0.00  0.00    +0.000 C 
ATOM      6  C   UNL     1      -7.760  -3.574  22.726  0.00  0.00    +0.000 C 
ATOM      7  C   UNL     1      -8.139  -3.860  21.270  0.00  0.00    +0.000 C 
ATOM      8  H   UNL     1     -10.084  -2.986  21.375  0.00  0.00    +0.000 HD
ATOM      9  H   UNL     1      -9.442  -0.854  20.057  0.00  0.00    +0.000 HD
ATOM     10  H   UNL     1      -7.764  -1.276  20.313  0.00  0.00    +0.000 HD
ATOM     11  H   UNL     1      -9.801  -1.025  22.457  0.00  0.00    +0.000 HD
ATOM     12  H   UNL     1      -8.265  -0.967  24.002  0.00  0.00    +0.000 HD
ATOM     13  H   UNL     1      -7.144  -0.155  22.946  0.00  0.00    +0.000 HD
ATOM     14  H   UNL     1      -6.421  -2.364  23.867  0.00  0.00    +0.000 HD
ATOM     15  H   UNL     1      -6.207  -2.167  22.145  0.00  0.00    +0.000 HD
ATOM     16  H   UNL     1      -8.650  -3.590  23.366  0.00  0.00    +0.000 HD
ATOM     17  H   UNL     1      -7.116  -4.398  23.061  0.00  0.00    +0.000 HD
ATOM     18  H   UNL     1      -8.552  -4.875  21.245  0.00  0.00    +0.000 HD
ENDROOT
BRANCH   1  21
ATOM     19  O   UNL     1     -11.897  -2.578  19.547  0.00  0.00    +0.000 OA
ATOM     20  C   UNL     1     -11.008  -3.154  18.932  0.00  0.00    +0.000 C 
ATOM     21  N   UNL     1      -9.753  -3.410  19.439  0.00  0.00    +0.000 N 
ATOM     22  H   UNL     1      -9.049  -3.646  18.752  0.00  0.00    +0.000 HD
BRANCH  20  23
ATOM     23  C   UNL     1     -11.219  -3.585  17.512  0.00  0.00    +0.000 A 
ATOM     24  C   UNL     1     -11.420  -2.600  16.535  0.00  0.00    +0.000 A 
ATOM     25  C   UNL     1     -11.564  -2.950  15.185  0.00  0.00    +0.000 A 
ATOM     26  C   UNL     1     -11.513  -4.294  14.823  0.00  0.00    +0.000 A 
ATOM     27  C   UNL     1     -11.344  -5.285  15.783  0.00  0.00    +0.000 A 
ATOM     28  C   UNL     1     -11.209  -4.935  17.129  0.00  0.00    +0.000 A 
ATOM     29  H   UNL     1     -11.458  -1.546  16.817  0.00  0.00    +0.000 HD
ATOM     30  H   UNL     1     -11.702  -2.171  14.441  0.00  0.00    +0.000 HD
ATOM     31  H   UNL     1     -11.318  -6.330  15.482  0.00  0.00    +0.000 HD
ATOM     32  H   UNL     1     -11.111  -5.731  17.863  0.00  0.00    +0.000 HD
BRANCH  26  33
ATOM     33  O   UNL     1     -11.624  -4.686  13.522  0.00  0.00    +0.000 OA
ATOM     34  H   UNL     1     -11.768  -5.646  13.495  0.00  0.00    +0.000 HD
ENDBRANCH  26  33
ENDBRANCH  20  23
ENDBRANCH   1  21
BRANCH   7  35
ATOM     35  O   UNL     1      -6.938  -3.775  20.478  0.00  0.00    +0.000 OA
BRANCH  35  36
ATOM     36  C   UNL     1      -6.237  -4.910  20.296  0.00  0.00    +0.000 C 
ATOM     37  O   UNL     1      -5.100  -5.127  20.681  0.00  0.00    +0.000 OA
BRANCH  36  38
ATOM     38  C   UNL     1      -7.040  -5.894  19.533  0.00  0.00    +0.000 A 
ATOM     39  C   UNL     1      -7.735  -6.863  20.266  0.00  0.00    +0.000 A 
ATOM     40  C   UNL     1      -8.554  -7.777  19.607  0.00  0.00    +0.000 A 
ATOM     41  C   UNL     1      -8.693  -7.743  18.208  0.00  0.00    +0.000 A 
ATOM     42  C   UNL     1      -7.994  -6.766  17.483  0.00  0.00    +0.000 A 
ATOM     43  C   UNL     1      -7.158  -5.860  18.137  0.00  0.00    +0.000 A 
ATOM     44  H   UNL     1      -7.625  -6.896  21.348  0.00  0.00    +0.000 HD
ATOM     45  H   UNL     1      -6.630  -5.110  17.552  0.00  0.00    +0.000 HD
BRANCH  40  46
ATOM     46  O   UNL     1      -9.214  -8.715  20.352  0.00  0.00    +0.000 OA
ATOM     47  H   UNL     1     -10.172  -8.560  20.314  0.00  0.00    +0.000 HD
ENDBRANCH  40  46
BRANCH  41  48
ATOM     48  C   UNL     1      -9.631  -8.682  17.556  0.00  0.00    +0.000 C 
ATOM     49  O   UNL     1     -10.839  -8.444  17.640  0.00  0.00    +0.000 OA
BRANCH  48  50
ATOM     50  C   UNL     1      -9.230  -9.780  16.629  0.00  0.00    +0.000 A 
ATOM     51  C   UNL     1      -9.340  -9.495  15.250  0.00  0.00    +0.000 A 
ATOM     52  C   UNL     1      -8.979 -10.423  14.276  0.00  0.00    +0.000 A 
ATOM     53  C   UNL     1      -8.493 -11.666  14.655  0.00  0.00    +0.000 A 
ATOM     54  C   UNL     1      -8.369 -11.975  16.010  0.00  0.00    +0.000 A 
ATOM     55  C   UNL     1      -8.723 -11.040  17.003  0.00  0.00    +0.000 A 
ATOM     56  H   UNL     1      -9.092 -10.171  13.224  0.00  0.00    +0.000 HD
ATOM     57  H   UNL     1      -8.233 -12.400  13.895  0.00  0.00    +0.000 HD
ATOM     58  H   UNL     1      -8.024 -12.973  16.278  0.00  0.00    +0.000 HD
BRANCH  51  59
ATOM     59  O   UNL     1      -9.782  -8.290  14.761  0.00  0.00    +0.000 OA
ATOM     60  H   UNL     1     -10.615  -8.056  15.237  0.00  0.00    +0.000 HD
ENDBRANCH  51  59
BRANCH  55  61
ATOM     61  C   UNL     1      -8.597 -11.468  18.415  0.00  0.00    +0.000 C 
ATOM     62  O   UNL     1      -7.956 -10.855  19.248  0.00  0.00    +0.000 OA
BRANCH  61  63
ATOM     63  O   UNL     1      -9.276 -12.605  18.704  0.00  0.00    +0.000 OA
ATOM     64  H   UNL     1      -8.850 -13.206  19.345  0.00  0.00    +0.000 HD
ENDBRANCH  61  63
ENDBRANCH  55  61
ENDBRANCH  48  50
ENDBRANCH  41  48
BRANCH  42  65
ATOM     65  O   UNL     1      -8.078  -6.619  16.123  0.00  0.00    +0.000 OA
ATOM     66  H   UNL     1      -7.453  -7.230  15.694  0.00  0.00    +0.000 HD
ENDBRANCH  42  65
ENDBRANCH  36  38
ENDBRANCH  35  36
ENDBRANCH   7  35
TORSDOF 13
ENDMDL
MODEL 2
REMARK VINA RESULT:   -11.073      0.620      2.330
REMARK INTER + INTRA:         -20.935
REMARK INTER:                 -18.897
REMARK INTRA:                  -2.037
REMARK UNBOUND:                -3.065
REMARK  Name = 
REMARK  13 active torsions:
REMARK  status: ('A' for Active; 'I' for Inactive)
REMARK    1  A    between atoms: C_2  and  C_34
REMARK    2  A    between atoms: N_3  and  C_4
REMARK    3  A    between atoms: C_10  and  O_11
REMARK    4  A    between atoms: O_11  and  C_12
REMARK    5  A    between atoms: C_12  and  C_14
REMARK    6  A    between atoms: C_16  and  O_17
REMARK    7  A    between atoms: C_18  and  C_19
REMARK    8  A    between atoms: C_19  and  C_21
REMARK    9  A    between atoms: C_22  and  O_23
REMARK   10  A    between atoms: C_27  and  C_28
REMARK   11  A    between atoms: C_28  and  O_30
REMARK   12  A    between atoms: C_31  and  O_32
REMARK   13  A    between atoms: C_37  and  O_38
REMARK                            x       y       z     vdW  Elec       q    Type
REMARK                         _______ _______ _______ _____ _____    ______ ____
ROOT
ATOM      1  C   UNL     1      -9.149  -3.007  20.645  0.00  0.00    +0.000 C 
ATOM      2  C   UNL     1      -8.627  -1.549  20.637  0.00  0.00    +0.000 C 
ATOM      3  N   UNL     1      -8.688  -0.918  21.962  0.00  0.00    +0.000 NA
ATOM      4  C   UNL     1      -7.606  -1.194  22.895  0.00  0.00    +0.000 C 
ATOM      5  C   UNL     1      -6.830  -2.507  22.802  0.00  0.00    +0.000 C 
ATOM      6  C   UNL     1      -7.694  -3.753  22.631  0.00  0.00    +0.000 C 
ATOM      7  C   UNL     1      -8.121  -4.021  21.185  0.00  0.00    +0.000 C 
ATOM      8  H   UNL     1     -10.011  -3.038  21.329  0.00  0.00    +0.000 HD
ATOM      9  H   UNL     1      -9.278  -0.950  19.989  0.00  0.00    +0.000 HD
ATOM     10  H   UNL     1      -7.621  -1.466  20.209  0.00  0.00    +0.000 HD
ATOM     11  H   UNL     1      -9.593  -1.093  22.397  0.00  0.00    +0.000 HD
ATOM     12  H   UNL     1      -8.022  -1.118  23.908  0.00  0.00    +0.000 HD
ATOM     13  H   UNL     1      -6.880  -0.374  22.824  0.00  0.00    +0.000 HD
ATOM     14  H   UNL     1      -6.263  -2.618  23.737  0.00  0.00    +0.000 HD
ATOM     15  H   UNL     1      -6.077  -2.438  22.010  0.00  0.00    +0.000 HD
ATOM     16  H   UNL     1      -8.570  -3.717  23.291  0.00  0.00    +0.000 HD
ATOM     17  H   UNL     1      -7.090  -4.611  22.955  0.00  0.00    +0.000 HD
ATOM     18  H   UNL     1      -8.592  -5.012  21.173  0.00  0.00    +0.000 HD
ENDROOT
BRANCH   1  21
ATOM     19  O   UNL     1     -11.901  -2.708  19.636  0.00  0.00    +0.000 OA
ATOM     20  C   UNL     1     -11.033  -3.242  18.957  0.00  0.00    +0.000 C 
ATOM     21  N   UNL     1      -9.748  -3.485  19.388  0.00  0.00    +0.000 N 
ATOM     22  H   UNL     1      -9.076  -3.682  18.657  0.00  0.00    +0.000 HD
BRANCH  20  23
ATOM     23  C   UNL     1     -11.310  -3.633  17.537  0.00  0.00    +0.000 A 
ATOM     24  C   UNL     1     -11.594  -2.623  16.606  0.00  0.00    +0.000 A 
ATOM     25  C   UNL     1     -11.803  -2.932  15.256  0.00  0.00    +0.000 A 
ATOM     26  C   UNL     1     -11.734  -4.262  14.844  0.00  0.00    +0.000 A 
ATOM     27  C   UNL     1     -11.483  -5.278  15.759  0.00  0.00    +0.000 A 
ATOM     28  C   UNL     1     -11.283  -4.968  17.106  0.00  0.00    +0.000 A 
ATOM     29  H   UNL     1     -11.647  -1.580  16.927  0.00  0.00    +0.000 HD
ATOM     30  H   UNL     1     -12.006  -2.134  14.548  0.00  0.00    +0.000 HD
ATOM     31  H   UNL     1     -11.443  -6.311  15.421  0.00  0.00    +0.000 HD
ATOM     32  H   UNL     1     -11.121  -5.785  17.806  0.00  0.00    +0.000 HD
BRANCH  26  33
ATOM     33  O   UNL     1     -11.905  -4.614  13.538  0.00  0.00    +0.000 OA
ATOM     34  H   UNL     1     -11.207  -5.242  13.289  0.00  0.00    +0.000 HD
ENDBRANCH  26  33
ENDBRANCH  20  23
ENDBRANCH   1  21
BRANCH   7  35
ATOM     35  O   UNL     1      -6.935  -4.006  20.366  0.00  0.00    +0.000 OA
BRANCH  35  36
ATOM     36  C   UNL     1      -6.324  -5.186  20.144  0.00  0.00    +0.000 C 
ATOM     37  O   UNL     1      -5.167  -5.462  20.413  0.00  0.00    +0.000 OA
BRANCH  36  38
ATOM     38  C   UNL     1      -7.259  -6.136  19.498  0.00  0.00    +0.000 A 
ATOM     39  C   UNL     1      -7.362  -6.088  18.103  0.00  0.00    +0.000 A 
ATOM     40  C   UNL     1      -8.180  -6.997  17.436  0.00  0.00    +0.000 A 
ATOM     41  C   UNL     1      -8.911  -7.967  18.146  0.00  0.00    +0.000 A 
ATOM     42  C   UNL     1      -8.799  -8.007  19.544  0.00  0.00    +0.000 A 
ATOM     43  C   UNL     1      -7.995  -7.087  20.218  0.00  0.00    +0.000 A 
ATOM     44  H   UNL     1      -6.803  -5.336  17.550  0.00  0.00    +0.000 HD
ATOM     45  H   UNL     1      -7.923  -7.142  21.302  0.00  0.00    +0.000 HD
BRANCH  40  46
ATOM     46  O   UNL     1      -8.263  -6.920  16.073  0.00  0.00    +0.000 OA
ATOM     47  H   UNL     1      -7.891  -7.720  15.668  0.00  0.00    +0.000 HD
ENDBRANCH  40  46
BRANCH  41  48
ATOM     48  C   UNL     1      -9.707  -8.960  17.394  0.00  0.00    +0.000 C 
ATOM     49  O   UNL     1     -10.847  -8.642  17.042  0.00  0.00    +0.000 OA
BRANCH  48  50
ATOM     50  C   UNL     1      -9.173 -10.241  16.846  0.00  0.00    +0.000 A 
ATOM     51  C   UNL     1      -8.814 -11.219  17.799  0.00  0.00    +0.000 A 
ATOM     52  C   UNL     1      -8.322 -12.467  17.424  0.00  0.00    +0.000 A 
ATOM     53  C   UNL     1      -8.177 -12.774  16.080  0.00  0.00    +0.000 A 
ATOM     54  C   UNL     1      -8.526 -11.830  15.114  0.00  0.00    +0.000 A 
ATOM     55  C   UNL     1      -9.033 -10.568  15.483  0.00  0.00    +0.000 A 
ATOM     56  H   UNL     1      -8.044 -13.188  18.190  0.00  0.00    +0.000 HD
ATOM     57  H   UNL     1      -7.770 -13.740  15.786  0.00  0.00    +0.000 HD
ATOM     58  H   UNL     1      -8.362 -12.084  14.067  0.00  0.00    +0.000 HD
BRANCH  51  59
ATOM     59  O   UNL     1      -8.942 -11.034  19.155  0.00  0.00    +0.000 OA
ATOM     60  H   UNL     1      -8.064 -11.213  19.569  0.00  0.00    +0.000 HD
ENDBRANCH  51  59
BRANCH  55  61
ATOM     61  C   UNL     1      -9.340  -9.614  14.393  0.00  0.00    +0.000 C 
ATOM     62  O   UNL     1      -8.760  -8.554  14.245  0.00  0.00    +0.000 OA
BRANCH  61  63
ATOM     63  O   UNL     1     -10.321 -10.034  13.559  0.00  0.00    +0.000 OA
ATOM     64  H   UNL     1     -10.513 -10.992  13.571  0.00  0.00    +0.000 HD
ENDBRANCH  61  63
ENDBRANCH  55  61
ENDBRANCH  48  50
ENDBRANCH  41  48
BRANCH  42  65
ATOM     65  O   UNL     1      -9.438  -8.926  20.334  0.00  0.00    +0.000 OA
ATOM     66  H   UNL     1      -9.626  -8.527  21.203  0.00  0.00    +0.000 HD
ENDBRANCH  42  65
ENDBRANCH  36  38
ENDBRANCH  35  36
ENDBRANCH   7  35
TORSDOF 13
ENDMDL
MODEL 3
REMARK VINA RESULT:    -9.686      2.696      9.013
REMARK INTER + INTRA:         -18.697
REMARK INTER:                 -16.381
REMARK INTRA:                  -2.316
REMARK UNBOUND:                -3.065
REMARK  Name = 
REMARK  13 active torsions:
REMARK  status: ('A' for Active; 'I' for Inactive)
REMARK    1  A    between atoms: C_2  and  C_34
REMARK    2  A    between atoms: N_3  and  C_4
REMARK    3  A    between atoms: C_10  and  O_11
REMARK    4  A    between atoms: O_11  and  C_12
REMARK    5  A    between atoms: C_12  and  C_14
REMARK    6  A    between atoms: C_16  and  O_17
REMARK    7  A    between atoms: C_18  and  C_19
REMARK    8  A    between atoms: C_19  and  C_21
REMARK    9  A    between atoms: C_22  and  O_23
REMARK   10  A    between atoms: C_27  and  C_28
REMARK   11  A    between atoms: C_28  and  O_30
REMARK   12  A    between atoms: C_31  and  O_32
REMARK   13  A    between atoms: C_37  and  O_38
REMARK                            x       y       z     vdW  Elec       q    Type
REMARK                         _______ _______ _______ _____ _____    ______ ____
ROOT
ATOM      1  C   UNL     1     -10.208  -6.127  15.498  0.00  0.00    +0.000 C 
ATOM      2  C   UNL     1      -9.230  -5.493  14.479  0.00  0.00    +0.000 C 
ATOM      3  N   UNL     1      -9.923  -4.787  13.394  0.00  0.00    +0.000 NA
ATOM      4  C   UNL     1     -10.377  -3.428  13.651  0.00  0.00    +0.000 C 
ATOM      5  C   UNL     1     -10.719  -2.991  15.074  0.00  0.00    +0.000 C 
ATOM      6  C   UNL     1     -11.575  -3.979  15.862  0.00  0.00    +0.000 C 
ATOM      7  C   UNL     1     -10.777  -5.114  16.511  0.00  0.00    +0.000 C 
ATOM      8  H   UNL     1     -11.065  -6.517  14.927  0.00  0.00    +0.000 HD
ATOM      9  H   UNL     1      -8.661  -6.297  13.997  0.00  0.00    +0.000 HD
ATOM     10  H   UNL     1      -8.487  -4.845  14.957  0.00  0.00    +0.000 HD
ATOM     11  H   UNL     1     -10.684  -5.357  13.027  0.00  0.00    +0.000 HD
ATOM     12  H   UNL     1     -11.261  -3.256  13.023  0.00  0.00    +0.000 HD
ATOM     13  H   UNL     1      -9.617  -2.738  13.265  0.00  0.00    +0.000 HD
ATOM     14  H   UNL     1     -11.277  -2.048  15.001  0.00  0.00    +0.000 HD
ATOM     15  H   UNL     1      -9.800  -2.745  15.617  0.00  0.00    +0.000 HD
ATOM     16  H   UNL     1     -12.382  -4.382  15.239  0.00  0.00    +0.000 HD
ATOM     17  H   UNL     1     -12.054  -3.415  16.674  0.00  0.00    +0.000 HD
ATOM     18  H   UNL     1     -11.471  -5.652  17.168  0.00  0.00    +0.000 HD
ENDROOT
BRANCH   1  21
ATOM     19  O   UNL     1     -11.728  -8.430  16.529  0.00  0.00    +0.000 OA
ATOM     20  C   UNL     1     -10.504  -8.410  16.574  0.00  0.00    +0.000 C 
ATOM     21  N   UNL     1      -9.730  -7.341  16.182  0.00  0.00    +0.000 N 
ATOM     22  H   UNL     1      -8.753  -7.549  16.023  0.00  0.00    +0.000 HD
BRANCH  20  23
ATOM     23  C   UNL     1      -9.738  -9.617  17.024  0.00  0.00    +0.000 A 
ATOM     24  C   UNL     1      -9.163  -9.608  18.303  0.00  0.00    +0.000 A 
ATOM     25  C   UNL     1      -8.487 -10.734  18.792  0.00  0.00    +0.000 A 
ATOM     26  C   UNL     1      -8.383 -11.867  17.987  0.00  0.00    +0.000 A 
ATOM     27  C   UNL     1      -8.922 -11.881  16.705  0.00  0.00    +0.000 A 
ATOM     28  C   UNL     1      -9.588 -10.755  16.217  0.00  0.00    +0.000 A 
ATOM     29  H   UNL     1      -9.246  -8.721  18.936  0.00  0.00    +0.000 HD
ATOM     30  H   UNL     1      -8.063 -10.712  19.791  0.00  0.00    +0.000 HD
ATOM     31  H   UNL     1      -8.821 -12.771  16.088  0.00  0.00    +0.000 HD
ATOM     32  H   UNL     1      -9.971 -10.782  15.199  0.00  0.00    +0.000 HD
BRANCH  26  33
ATOM     33  O   UNL     1      -7.757 -12.996  18.424  0.00  0.00    +0.000 OA
ATOM     34  H   UNL     1      -7.081 -12.747  19.075  0.00  0.00    +0.000 HD
ENDBRANCH  26  33
ENDBRANCH  20  23
ENDBRANCH   1  21
BRANCH   7  35
ATOM     35  O   UNL     1      -9.706  -4.521  17.272  0.00  0.00    +0.000 OA
BRANCH  35  36
ATOM     36  C   UNL     1      -9.608  -4.864  18.570  0.00  0.00    +0.000 C 
ATOM     37  O   UNL     1      -9.434  -5.989  19.009  0.00  0.00    +0.000 OA
BRANCH  36  38
ATOM     38  C   UNL     1      -9.757  -3.668  19.432  0.00  0.00    +0.000 A 
ATOM     39  C   UNL     1     -11.058  -3.228  19.701  0.00  0.00    +0.000 A 
ATOM     40  C   UNL     1     -11.261  -2.145  20.553  0.00  0.00    +0.000 A 
ATOM     41  C   UNL     1     -10.174  -1.480  21.147  0.00  0.00    +0.000 A 
ATOM     42  C   UNL     1      -8.874  -1.930  20.871  0.00  0.00    +0.000 A 
ATOM     43  C   UNL     1      -8.664  -3.003  20.005  0.00  0.00    +0.000 A 
ATOM     44  H   UNL     1     -11.901  -3.736  19.240  0.00  0.00    +0.000 HD
ATOM     45  H   UNL     1      -7.646  -3.335  19.810  0.00  0.00    +0.000 HD
BRANCH  40  46
ATOM     46  O   UNL     1     -12.545  -1.737  20.792  0.00  0.00    +0.000 OA
ATOM     47  H   UNL     1     -12.544  -0.877  21.243  0.00  0.00    +0.000 HD
ENDBRANCH  40  46
BRANCH  41  48
ATOM     48  C   UNL     1     -10.438  -0.384  22.104  0.00  0.00    +0.000 C 
ATOM     49  O   UNL     1     -11.346   0.409  21.840  0.00  0.00    +0.000 OA
BRANCH  48  50
ATOM     50  C   UNL     1      -9.833  -0.276  23.464  0.00  0.00    +0.000 A 
ATOM     51  C   UNL     1      -9.254   0.971  23.785  0.00  0.00    +0.000 A 
ATOM     52  C   UNL     1      -8.675   1.215  25.029  0.00  0.00    +0.000 A 
ATOM     53  C   UNL     1      -8.660   0.215  25.989  0.00  0.00    +0.000 A 
ATOM     54  C   UNL     1      -9.228  -1.027  25.703  0.00  0.00    +0.000 A 
ATOM     55  C   UNL     1      -9.825  -1.280  24.451  0.00  0.00    +0.000 A 
ATOM     56  H   UNL     1      -8.227   2.185  25.233  0.00  0.00    +0.000 HD
ATOM     57  H   UNL     1      -8.186   0.397  26.952  0.00  0.00    +0.000 HD
ATOM     58  H   UNL     1      -9.164  -1.806  26.462  0.00  0.00    +0.000 HD
BRANCH  51  59
ATOM     59  O   UNL     1      -9.237   2.040  22.922  0.00  0.00    +0.000 OA
ATOM     60  H   UNL     1     -10.143   2.138  22.542  0.00  0.00    +0.000 HD
ENDBRANCH  51  59
BRANCH  55  61
ATOM     61  C   UNL     1     -10.366  -2.639  24.220  0.00  0.00    +0.000 C 
ATOM     62  O   UNL     1     -11.552  -2.908  24.275  0.00  0.00    +0.000 OA
BRANCH  61  63
ATOM     63  O   UNL     1      -9.418  -3.562  23.925  0.00  0.00    +0.000 OA
ATOM     64  H   UNL     1      -8.753  -3.729  24.620  0.00  0.00    +0.000 HD
ENDBRANCH  61  63
ENDBRANCH  55  61
ENDBRANCH  48  50
ENDBRANCH  41  48
BRANCH  42  65
ATOM     65  O   UNL     1      -7.744  -1.380  21.418  0.00  0.00    +0.000 OA
ATOM     66  H   UNL     1      -7.875  -0.421  21.528  0.00  0.00    +0.000 HD
ENDBRANCH  42  65
ENDBRANCH  36  38
ENDBRANCH  35  36
ENDBRANCH   7  35
TORSDOF 13
ENDMDL
MODEL 4
REMARK VINA RESULT:    -9.632      2.774      8.942
REMARK INTER + INTRA:         -18.609
REMARK INTER:                 -16.541
REMARK INTRA:                  -2.068
REMARK UNBOUND:                -3.065
REMARK  Name = 
REMARK  13 active torsions:
REMARK  status: ('A' for Active; 'I' for Inactive)
REMARK    1  A    between atoms: C_2  and  C_34
REMARK    2  A    between atoms: N_3  and  C_4
REMARK    3  A    between atoms: C_10  and  O_11
REMARK    4  A    between atoms: O_11  and  C_12
REMARK    5  A    between atoms: C_12  and  C_14
REMARK    6  A    between atoms: C_16  and  O_17
REMARK    7  A    between atoms: C_18  and  C_19
REMARK    8  A    between atoms: C_19  and  C_21
REMARK    9  A    between atoms: C_22  and  O_23
REMARK   10  A    between atoms: C_27  and  C_28
REMARK   11  A    between atoms: C_28  and  O_30
REMARK   12  A    between atoms: C_31  and  O_32
REMARK   13  A    between atoms: C_37  and  O_38
REMARK                            x       y       z     vdW  Elec       q    Type
REMARK                         _______ _______ _______ _____ _____    ______ ____
ROOT
ATOM      1  C   UNL     1     -10.617  -5.291  15.026  0.00  0.00    +0.000 C 
ATOM      2  C   UNL     1      -9.477  -4.579  14.259  0.00  0.00    +0.000 C 
ATOM      3  N   UNL     1      -9.977  -3.613  13.271  0.00  0.00    +0.000 NA
ATOM      4  C   UNL     1     -10.349  -2.289  13.747  0.00  0.00    +0.000 C 
ATOM      5  C   UNL     1     -10.823  -2.096  15.186  0.00  0.00    +0.000 C 
ATOM      6  C   UNL     1     -11.842  -3.123  15.670  0.00  0.00    +0.000 C 
ATOM      7  C   UNL     1     -11.221  -4.435  16.157  0.00  0.00    +0.000 C 
ATOM      8  H   UNL     1     -11.428  -5.477  14.305  0.00  0.00    +0.000 HD
ATOM      9  H   UNL     1      -8.920  -5.330  13.687  0.00  0.00    +0.000 HD
ATOM     10  H   UNL     1      -8.747  -4.112  14.929  0.00  0.00    +0.000 HD
ATOM     11  H   UNL     1     -10.731  -4.024  12.723  0.00  0.00    +0.000 HD
ATOM     12  H   UNL     1     -11.134  -1.912  13.079  0.00  0.00    +0.000 HD
ATOM     13  H   UNL     1      -9.495  -1.619  13.585  0.00  0.00    +0.000 HD
ATOM     14  H   UNL     1     -11.292  -1.104  15.245  0.00  0.00    +0.000 HD
ATOM     15  H   UNL     1      -9.959  -2.052  15.858  0.00  0.00    +0.000 HD
ATOM     16  H   UNL     1     -12.599  -3.317  14.900  0.00  0.00    +0.000 HD
ATOM     17  H   UNL     1     -12.369  -2.677  16.524  0.00  0.00    +0.000 HD
ATOM     18  H   UNL     1     -12.030  -5.015  16.619  0.00  0.00    +0.000 HD
ENDROOT
BRANCH   1  21
ATOM     19  O   UNL     1      -8.144  -6.388  16.192  0.00  0.00    +0.000 OA
ATOM     20  C   UNL     1      -9.156  -7.071  16.100  0.00  0.00    +0.000 C 
ATOM     21  N   UNL     1     -10.323  -6.655  15.500  0.00  0.00    +0.000 N 
ATOM     22  H   UNL     1     -11.144  -7.202  15.724  0.00  0.00    +0.000 HD
BRANCH  20  23
ATOM     23  C   UNL     1      -9.208  -8.440  16.707  0.00  0.00    +0.000 A 
ATOM     24  C   UNL     1      -9.585  -9.520  15.896  0.00  0.00    +0.000 A 
ATOM     25  C   UNL     1      -9.593 -10.827  16.401  0.00  0.00    +0.000 A 
ATOM     26  C   UNL     1      -9.229 -11.044  17.728  0.00  0.00    +0.000 A 
ATOM     27  C   UNL     1      -8.882  -9.981  18.555  0.00  0.00    +0.000 A 
ATOM     28  C   UNL     1      -8.883  -8.679  18.051  0.00  0.00    +0.000 A 
ATOM     29  H   UNL     1      -9.868  -9.352  14.854  0.00  0.00    +0.000 HD
ATOM     30  H   UNL     1      -9.872 -11.652  15.751  0.00  0.00    +0.000 HD
ATOM     31  H   UNL     1      -8.612 -10.170  19.591  0.00  0.00    +0.000 HD
ATOM     32  H   UNL     1      -8.639  -7.863  18.728  0.00  0.00    +0.000 HD
BRANCH  26  33
ATOM     33  O   UNL     1      -9.197 -12.298  18.262  0.00  0.00    +0.000 OA
ATOM     34  H   UNL     1      -9.005 -12.936  17.555  0.00  0.00    +0.000 HD
ENDBRANCH  26  33
ENDBRANCH  20  23
ENDBRANCH   1  21
BRANCH   7  35
ATOM     35  O   UNL     1     -10.205  -4.109  17.126  0.00  0.00    +0.000 OA
BRANCH  35  36
ATOM     36  C   UNL     1     -10.410  -4.513  18.394  0.00  0.00    +0.000 C 
ATOM     37  O   UNL     1     -10.577  -5.662  18.769  0.00  0.00    +0.000 OA
BRANCH  36  38
ATOM     38  C   UNL     1     -10.420  -3.348  19.310  0.00  0.00    +0.000 A 
ATOM     39  C   UNL     1     -11.659  -2.941  19.818  0.00  0.00    +0.000 A 
ATOM     40  C   UNL     1     -11.724  -1.890  20.730  0.00  0.00    +0.000 A 
ATOM     41  C   UNL     1     -10.557  -1.226  21.149  0.00  0.00    +0.000 A 
ATOM     42  C   UNL     1      -9.320  -1.643  20.636  0.00  0.00    +0.000 A 
ATOM     43  C   UNL     1      -9.252  -2.684  19.708  0.00  0.00    +0.000 A 
ATOM     44  H   UNL     1     -12.564  -3.449  19.491  0.00  0.00    +0.000 HD
ATOM     45  H   UNL     1      -8.280  -2.991  19.328  0.00  0.00    +0.000 HD
BRANCH  40  46
ATOM     46  O   UNL     1     -12.951  -1.513  21.202  0.00  0.00    +0.000 OA
ATOM     47  H   UNL     1     -13.638  -2.111  20.866  0.00  0.00    +0.000 HD
ENDBRANCH  40  46
BRANCH  41  48
ATOM     48  C   UNL     1     -10.663  -0.167  22.175  0.00  0.00    +0.000 C 
ATOM     49  O   UNL     1     -11.527   0.702  22.023  0.00  0.00    +0.000 OA
BRANCH  48  50
ATOM     50  C   UNL     1      -9.950  -0.177  23.486  0.00  0.00    +0.000 A 
ATOM     51  C   UNL     1      -9.326   1.034  23.858  0.00  0.00    +0.000 A 
ATOM     52  C   UNL     1      -8.645   1.171  25.066  0.00  0.00    +0.000 A 
ATOM     53  C   UNL     1      -8.570   0.096  25.939  0.00  0.00    +0.000 A 
ATOM     54  C   UNL     1      -9.180  -1.113  25.601  0.00  0.00    +0.000 A 
ATOM     55  C   UNL     1      -9.879  -1.257  24.386  0.00  0.00    +0.000 A 
ATOM     56  H   UNL     1      -8.166   2.116  25.310  0.00  0.00    +0.000 HD
ATOM     57  H   UNL     1      -8.018   0.194  26.872  0.00  0.00    +0.000 HD
ATOM     58  H   UNL     1      -9.069  -1.952  26.287  0.00  0.00    +0.000 HD
BRANCH  51  59
ATOM     59  O   UNL     1      -9.360   2.170  23.085  0.00  0.00    +0.000 OA
ATOM     60  H   UNL     1      -8.483   2.259  22.640  0.00  0.00    +0.000 HD
ENDBRANCH  51  59
BRANCH  55  61
ATOM     61  C   UNL     1     -10.460  -2.587  24.091  0.00  0.00    +0.000 C 
ATOM     62  O   UNL     1     -11.644  -2.844  24.207  0.00  0.00    +0.000 OA
BRANCH  61  63
ATOM     63  O   UNL     1      -9.552  -3.498  23.663  0.00  0.00    +0.000 OA
ATOM     64  H   UNL     1      -9.342  -4.219  24.287  0.00  0.00    +0.000 HD
ENDBRANCH  61  63
ENDBRANCH  55  61
ENDBRANCH  48  50
ENDBRANCH  41  48
BRANCH  42  65
ATOM     65  O   UNL     1      -8.119  -1.092  20.997  0.00  0.00    +0.000 OA
ATOM     66  H   UNL     1      -8.102  -0.964  21.962  0.00  0.00    +0.000 HD
ENDBRANCH  42  65
ENDBRANCH  36  38
ENDBRANCH  35  36
ENDBRANCH   7  35
TORSDOF 13
ENDMDL
MODEL 5
REMARK VINA RESULT:    -9.461      2.623      8.790
REMARK INTER + INTRA:         -18.333
REMARK INTER:                 -16.071
REMARK INTRA:                  -2.263
REMARK UNBOUND:                -3.065
REMARK  Name = 
REMARK  13 active torsions:
REMARK  status: ('A' for Active; 'I' for Inactive)
REMARK    1  A    between atoms: C_2  and  C_34
REMARK    2  A    between atoms: N_3  and  C_4
REMARK    3  A    between atoms: C_10  and  O_11
REMARK    4  A    between atoms: O_11  and  C_12
REMARK    5  A    between atoms: C_12  and  C_14
REMARK    6  A    between atoms: C_16  and  O_17
REMARK    7  A    between atoms: C_18  and  C_19
REMARK    8  A    between atoms: C_19  and  C_21
REMARK    9  A    between atoms: C_22  and  O_23
REMARK   10  A    between atoms: C_27  and  C_28
REMARK   11  A    between atoms: C_28  and  O_30
REMARK   12  A    between atoms: C_31  and  O_32
REMARK   13  A    between atoms: C_37  and  O_38
REMARK                            x       y       z     vdW  Elec       q    Type
REMARK                         _______ _______ _______ _____ _____    ______ ____
ROOT
ATOM      1  C   UNL     1     -10.978  -5.705  15.716  0.00  0.00    +0.000 C 
ATOM      2  C   UNL     1     -10.509  -4.755  14.587  0.00  0.00    +0.000 C 
ATOM      3  N   UNL     1     -11.576  -3.862  14.118  0.00  0.00    +0.000 NA
ATOM      4  C   UNL     1     -11.837  -2.655  14.887  0.00  0.00    +0.000 C 
ATOM      5  C   UNL     1     -11.528  -2.617  16.383  0.00  0.00    +0.000 C 
ATOM      6  C   UNL     1     -11.996  -3.840  17.167  0.00  0.00    +0.000 C 
ATOM      7  C   UNL     1     -11.032  -5.028  17.100  0.00  0.00    +0.000 C 
ATOM      8  H   UNL     1     -12.008  -6.011  15.475  0.00  0.00    +0.000 HD
ATOM      9  H   UNL     1     -10.223  -5.361  13.719  0.00  0.00    +0.000 HD
ATOM     10  H   UNL     1      -9.614  -4.186  14.862  0.00  0.00    +0.000 HD
ATOM     11  H   UNL     1     -12.437  -4.386  13.967  0.00  0.00    +0.000 HD
ATOM     12  H   UNL     1     -12.898  -2.407  14.755  0.00  0.00    +0.000 HD
ATOM     13  H   UNL     1     -11.293  -1.828  14.415  0.00  0.00    +0.000 HD
ATOM     14  H   UNL     1     -12.036  -1.737  16.799  0.00  0.00    +0.000 HD
ATOM     15  H   UNL     1     -10.458  -2.437  16.536  0.00  0.00    +0.000 HD
ATOM     16  H   UNL     1     -13.003  -4.143  16.856  0.00  0.00    +0.000 HD
ATOM     17  H   UNL     1     -12.068  -3.539  18.221  0.00  0.00    +0.000 HD
ATOM     18  H   UNL     1     -11.397  -5.771  17.821  0.00  0.00    +0.000 HD
ENDROOT
BRANCH   1  21
ATOM     19  O   UNL     1     -11.650  -8.099  17.295  0.00  0.00    +0.000 OA
ATOM     20  C   UNL     1     -10.712  -8.104  16.508  0.00  0.00    +0.000 C 
ATOM     21  N   UNL     1     -10.291  -7.005  15.794  0.00  0.00    +0.000 N 
ATOM     22  H   UNL     1      -9.694  -7.206  15.003  0.00  0.00    +0.000 HD
BRANCH  20  23
ATOM     23  C   UNL     1      -9.966  -9.371  16.221  0.00  0.00    +0.000 A 
ATOM     24  C   UNL     1      -9.595 -10.191  17.296  0.00  0.00    +0.000 A 
ATOM     25  C   UNL     1      -8.948 -11.414  17.075  0.00  0.00    +0.000 A 
ATOM     26  C   UNL     1      -8.666 -11.806  15.768  0.00  0.00    +0.000 A 
ATOM     27  C   UNL     1      -8.999 -10.992  14.692  0.00  0.00    +0.000 A 
ATOM     28  C   UNL     1      -9.638  -9.770  14.916  0.00  0.00    +0.000 A 
ATOM     29  H   UNL     1      -9.818  -9.886  18.322  0.00  0.00    +0.000 HD
ATOM     30  H   UNL     1      -8.684 -12.042  17.921  0.00  0.00    +0.000 HD
ATOM     31  H   UNL     1      -8.761 -11.310  13.680  0.00  0.00    +0.000 HD
ATOM     32  H   UNL     1      -9.857  -9.137  14.059  0.00  0.00    +0.000 HD
BRANCH  26  33
ATOM     33  O   UNL     1      -8.059 -12.997  15.497  0.00  0.00    +0.000 OA
ATOM     34  H   UNL     1      -8.131 -13.570  16.278  0.00  0.00    +0.000 HD
ENDBRANCH  26  33
ENDBRANCH  20  23
ENDBRANCH   1  21
BRANCH   7  35
ATOM     35  O   UNL     1      -9.722  -4.555  17.470  0.00  0.00    +0.000 OA
BRANCH  35  36
ATOM     36  C   UNL     1      -9.046  -5.267  18.391  0.00  0.00    +0.000 C 
ATOM     37  O   UNL     1      -8.738  -6.445  18.310  0.00  0.00    +0.000 OA
BRANCH  36  38
ATOM     38  C   UNL     1      -8.722  -4.419  19.562  0.00  0.00    +0.000 A 
ATOM     39  C   UNL     1      -7.577  -4.748  20.296  0.00  0.00    +0.000 A 
ATOM     40  C   UNL     1      -7.189  -3.951  21.371  0.00  0.00    +0.000 A 
ATOM     41  C   UNL     1      -7.936  -2.815  21.734  0.00  0.00    +0.000 A 
ATOM     42  C   UNL     1      -9.081  -2.494  20.990  0.00  0.00    +0.000 A 
ATOM     43  C   UNL     1      -9.484  -3.300  19.924  0.00  0.00    +0.000 A 
ATOM     44  H   UNL     1      -6.999  -5.628  20.022  0.00  0.00    +0.000 HD
ATOM     45  H   UNL     1     -10.374  -3.026  19.361  0.00  0.00    +0.000 HD
BRANCH  40  46
ATOM     46  O   UNL     1      -6.068  -4.303  22.072  0.00  0.00    +0.000 OA
ATOM     47  H   UNL     1      -5.947  -5.266  22.047  0.00  0.00    +0.000 HD
ENDBRANCH  40  46
BRANCH  41  48
ATOM     48  C   UNL     1      -7.448  -1.955  22.832  0.00  0.00    +0.000 C 
ATOM     49  O   UNL     1      -6.529  -1.168  22.586  0.00  0.00    +0.000 OA
BRANCH  48  50
ATOM     50  C   UNL     1      -8.111  -1.811  24.161  0.00  0.00    +0.000 A 
ATOM     51  C   UNL     1      -8.110  -2.962  24.979  0.00  0.00    +0.000 A 
ATOM     52  C   UNL     1      -8.675  -2.961  26.253  0.00  0.00    +0.000 A 
ATOM     53  C   UNL     1      -9.258  -1.803  26.746  0.00  0.00    +0.000 A 
ATOM     54  C   UNL     1      -9.272  -0.649  25.962  0.00  0.00    +0.000 A 
ATOM     55  C   UNL     1      -8.694  -0.638  24.677  0.00  0.00    +0.000 A 
ATOM     56  H   UNL     1      -8.667  -3.872  26.847  0.00  0.00    +0.000 HD
ATOM     57  H   UNL     1      -9.722  -1.807  27.731  0.00  0.00    +0.000 HD
ATOM     58  H   UNL     1      -9.774   0.234  26.359  0.00  0.00    +0.000 HD
BRANCH  51  59
ATOM     59  O   UNL     1      -7.538  -4.154  24.605  0.00  0.00    +0.000 OA
ATOM     60  H   UNL     1      -8.243  -4.716  24.203  0.00  0.00    +0.000 HD
ENDBRANCH  51  59
BRANCH  55  61
ATOM     61  C   UNL     1      -8.790   0.620  23.900  0.00  0.00    +0.000 C 
ATOM     62  O   UNL     1      -9.725   0.888  23.168  0.00  0.00    +0.000 OA
BRANCH  61  63
ATOM     63  O   UNL     1      -7.743   1.460  24.088  0.00  0.00    +0.000 OA
ATOM     64  H   UNL     1      -7.743   1.962  24.926  0.00  0.00    +0.000 HD
ENDBRANCH  61  63
ENDBRANCH  55  61
ENDBRANCH  48  50
ENDBRANCH  41  48
BRANCH  42  65
ATOM     65  O   UNL     1      -9.866  -1.397  21.232  0.00  0.00    +0.000 OA
ATOM     66  H   UNL     1     -10.694  -1.683  21.658  0.00  0.00    +0.000 HD
ENDBRANCH  42  65
ENDBRANCH  36  38
ENDBRANCH  35  36
ENDBRANCH   7  35
TORSDOF 13
ENDMDL
MODEL 6
REMARK VINA RESULT:    -9.449      2.358      5.738
REMARK INTER + INTRA:         -18.315
REMARK INTER:                 -15.913
REMARK INTRA:                  -2.402
REMARK UNBOUND:                -3.065
REMARK  Name = 
REMARK  13 active torsions:
REMARK  status: ('A' for Active; 'I' for Inactive)
REMARK    1  A    between atoms: C_2  and  C_34
REMARK    2  A    between atoms: N_3  and  C_4
REMARK    3  A    between atoms: C_10  and  O_11
REMARK    4  A    between atoms: O_11  and  C_12
REMARK    5  A    between atoms: C_12  and  C_14
REMARK    6  A    between atoms: C_16  and  O_17
REMARK    7  A    between atoms: C_18  and  C_19
REMARK    8  A    between atoms: C_19  and  C_21
REMARK    9  A    between atoms: C_22  and  O_23
REMARK   10  A    between atoms: C_27  and  C_28
REMARK   11  A    between atoms: C_28  and  O_30
REMARK   12  A    between atoms: C_31  and  O_32
REMARK   13  A    between atoms: C_37  and  O_38
REMARK                            x       y       z     vdW  Elec       q    Type
REMARK                         _______ _______ _______ _____ _____    ______ ____
ROOT
ATOM      1  C   UNL     1      -9.611  -1.749  20.863  0.00  0.00    +0.000 C 
ATOM      2  C   UNL     1     -11.144  -1.799  20.658  0.00  0.00    +0.000 C 
ATOM      3  N   UNL     1     -11.608  -0.870  19.619  0.00  0.00    +0.000 NA
ATOM      4  C   UNL     1     -11.510  -1.300  18.233  0.00  0.00    +0.000 C 
ATOM      5  C   UNL     1     -10.439  -2.306  17.816  0.00  0.00    +0.000 C 
ATOM      6  C   UNL     1      -9.044  -2.025  18.369  0.00  0.00    +0.000 C 
ATOM      7  C   UNL     1      -8.826  -2.537  19.795  0.00  0.00    +0.000 C 
ATOM      8  H   UNL     1      -9.305  -0.696  20.764  0.00  0.00    +0.000 HD
ATOM      9  H   UNL     1     -11.630  -1.476  21.587  0.00  0.00    +0.000 HD
ATOM     10  H   UNL     1     -11.510  -2.814  20.467  0.00  0.00    +0.000 HD
ATOM     11  H   UNL     1     -11.178   0.045  19.744  0.00  0.00    +0.000 HD
ATOM     12  H   UNL     1     -11.384  -0.398  17.620  0.00  0.00    +0.000 HD
ATOM     13  H   UNL     1     -12.484  -1.709  17.936  0.00  0.00    +0.000 HD
ATOM     14  H   UNL     1     -10.376  -2.281  16.719  0.00  0.00    +0.000 HD
ATOM     15  H   UNL     1     -10.765  -3.321  18.067  0.00  0.00    +0.000 HD
ATOM     16  H   UNL     1      -8.803  -0.958  18.301  0.00  0.00    +0.000 HD
ATOM     17  H   UNL     1      -8.329  -2.552  17.722  0.00  0.00    +0.000 HD
ATOM     18  H   UNL     1      -7.757  -2.419  20.012  0.00  0.00    +0.000 HD
ENDROOT
BRANCH   1  21
ATOM     19  O   UNL     1      -9.898  -0.242  23.378  0.00  0.00    +0.000 OA
ATOM     20  C   UNL     1      -9.366  -1.345  23.359  0.00  0.00    +0.000 C 
ATOM     21  N   UNL     1      -9.128  -2.074  22.216  0.00  0.00    +0.000 N 
ATOM     22  H   UNL     1      -8.932  -3.056  22.361  0.00  0.00    +0.000 HD
BRANCH  20  23
ATOM     23  C   UNL     1      -8.973  -2.022  24.637  0.00  0.00    +0.000 A 
ATOM     24  C   UNL     1      -8.408  -3.304  24.571  0.00  0.00    +0.000 A 
ATOM     25  C   UNL     1      -7.971  -3.955  25.732  0.00  0.00    +0.000 A 
ATOM     26  C   UNL     1      -8.112  -3.316  26.963  0.00  0.00    +0.000 A 
ATOM     27  C   UNL     1      -8.697  -2.058  27.049  0.00  0.00    +0.000 A 
ATOM     28  C   UNL     1      -9.139  -1.415  25.891  0.00  0.00    +0.000 A 
ATOM     29  H   UNL     1      -8.295  -3.805  23.606  0.00  0.00    +0.000 HD
ATOM     30  H   UNL     1      -7.521  -4.940  25.657  0.00  0.00    +0.000 HD
ATOM     31  H   UNL     1      -8.808  -1.579  28.019  0.00  0.00    +0.000 HD
ATOM     32  H   UNL     1      -9.623  -0.445  25.991  0.00  0.00    +0.000 HD
BRANCH  26  33
ATOM     33  O   UNL     1      -7.681  -3.895  28.119  0.00  0.00    +0.000 OA
ATOM     34  H   UNL     1      -8.062  -3.413  28.872  0.00  0.00    +0.000 HD
ENDBRANCH  26  33
ENDBRANCH  20  23
ENDBRANCH   1  21
BRANCH   7  35
ATOM     35  O   UNL     1      -9.206  -3.927  19.828  0.00  0.00    +0.000 OA
BRANCH  35  36
ATOM     36  C   UNL     1      -8.231  -4.838  19.651  0.00  0.00    +0.000 C 
ATOM     37  O   UNL     1      -7.050  -4.695  19.923  0.00  0.00    +0.000 OA
BRANCH  36  38
ATOM     38  C   UNL     1      -8.784  -6.076  19.053  0.00  0.00    +0.000 A 
ATOM     39  C   UNL     1      -9.457  -5.953  17.832  0.00  0.00    +0.000 A 
ATOM     40  C   UNL     1      -9.946  -7.090  17.193  0.00  0.00    +0.000 A 
ATOM     41  C   UNL     1      -9.777  -8.366  17.760  0.00  0.00    +0.000 A 
ATOM     42  C   UNL     1      -9.099  -8.477  18.984  0.00  0.00    +0.000 A 
ATOM     43  C   UNL     1      -8.623  -7.340  19.636  0.00  0.00    +0.000 A 
ATOM     44  H   UNL     1      -9.595  -4.968  17.393  0.00  0.00    +0.000 HD
ATOM     45  H   UNL     1      -8.098  -7.454  20.582  0.00  0.00    +0.000 HD
BRANCH  40  46
ATOM     46  O   UNL     1     -10.605  -6.936  16.004  0.00  0.00    +0.000 OA
ATOM     47  H   UNL     1     -10.502  -7.733  15.459  0.00  0.00    +0.000 HD
ENDBRANCH  40  46
BRANCH  41  48
ATOM     48  C   UNL     1     -10.244  -9.553  17.012  0.00  0.00    +0.000 C 
ATOM     49  O   UNL     1     -11.450  -9.641  16.761  0.00  0.00    +0.000 OA
BRANCH  48  50
ATOM     50  C   UNL     1      -9.352 -10.552  16.356  0.00  0.00    +0.000 A 
ATOM     51  C   UNL     1      -9.078 -11.719  17.102  0.00  0.00    +0.000 A 
ATOM     52  C   UNL     1      -8.277 -12.743  16.600  0.00  0.00    +0.000 A 
ATOM     53  C   UNL     1      -7.728 -12.628  15.332  0.00  0.00    +0.000 A 
ATOM     54  C   UNL     1      -7.983 -11.488  14.569  0.00  0.00    +0.000 A 
ATOM     55  C   UNL     1      -8.799 -10.452  15.064  0.00  0.00    +0.000 A 
ATOM     56  H   UNL     1      -8.079 -13.621  17.211  0.00  0.00    +0.000 HD
ATOM     57  H   UNL     1      -7.083 -13.417  14.948  0.00  0.00    +0.000 HD
ATOM     58  H   UNL     1      -7.504 -11.407  13.594  0.00  0.00    +0.000 HD
BRANCH  51  59
ATOM     59  O   UNL     1      -9.590 -11.952  18.355  0.00  0.00    +0.000 OA
ATOM     60  H   UNL     1      -8.914 -11.669  19.017  0.00  0.00    +0.000 HD
ENDBRANCH  51  59
BRANCH  55  61
ATOM     61  C   UNL     1      -8.983  -9.261  14.203  0.00  0.00    +0.000 C 
ATOM     62  O   UNL     1      -8.554  -8.157  14.481  0.00  0.00    +0.000 OA
BRANCH  61  63
ATOM     63  O   UNL     1      -9.666  -9.515  13.059  0.00  0.00    +0.000 OA
ATOM     64  H   UNL     1     -10.450  -8.956  12.896  0.00  0.00    +0.000 HD
ENDBRANCH  61  63
ENDBRANCH  55  61
ENDBRANCH  48  50
ENDBRANCH  41  48
BRANCH  42  65
ATOM     65  O   UNL     1      -8.848  -9.669  19.611  0.00  0.00    +0.000 OA
ATOM     66  H   UNL     1      -8.168  -9.535  20.296  0.00  0.00    +0.000 HD
ENDBRANCH  42  65
ENDBRANCH  36  38
ENDBRANCH  35  36
ENDBRANCH   7  35
TORSDOF 13
ENDMDL
MODEL 7
REMARK VINA RESULT:    -9.303      2.440      5.695
REMARK INTER + INTRA:         -18.078
REMARK INTER:                 -15.864
REMARK INTRA:                  -2.215
REMARK UNBOUND:                -3.065
REMARK  Name = 
REMARK  13 active torsions:
REMARK  status: ('A' for Active; 'I' for Inactive)
REMARK    1  A    between atoms: C_2  and  C_34
REMARK    2  A    between atoms: N_3  and  C_4
REMARK    3  A    between atoms: C_10  and  O_11
REMARK    4  A    between atoms: O_11  and  C_12
REMARK    5  A    between atoms: C_12  and  C_14
REMARK    6  A    between atoms: C_16  and  O_17
REMARK    7  A    between atoms: C_18  and  C_19
REMARK    8  A    between atoms: C_19  and  C_21
REMARK    9  A    between atoms: C_22  and  O_23
REMARK   10  A    between atoms: C_27  and  C_28
REMARK   11  A    between atoms: C_28  and  O_30
REMARK   12  A    between atoms: C_31  and  O_32
REMARK   13  A    between atoms: C_37  and  O_38
REMARK                            x       y       z     vdW  Elec       q    Type
REMARK                         _______ _______ _______ _____ _____    ______ ____
ROOT
ATOM      1  C   UNL     1     -10.796   0.260  19.552  0.00  0.00    +0.000 C 
ATOM      2  C   UNL     1     -12.034   1.172  19.370  0.00  0.00    +0.000 C 
ATOM      3  N   UNL     1     -11.834   2.201  18.342  0.00  0.00    +0.000 NA
ATOM      4  C   UNL     1     -12.037   1.818  16.952  0.00  0.00    +0.000 C 
ATOM      5  C   UNL     1     -11.821   0.370  16.516  0.00  0.00    +0.000 C 
ATOM      6  C   UNL     1     -10.546  -0.278  17.049  0.00  0.00    +0.000 C 
ATOM      7  C   UNL     1     -10.677  -0.832  18.470  0.00  0.00    +0.000 C 
ATOM      8  H   UNL     1      -9.905   0.900  19.452  0.00  0.00    +0.000 HD
ATOM      9  H   UNL     1     -12.207   1.715  20.307  0.00  0.00    +0.000 HD
ATOM     10  H   UNL     1     -12.951   0.602  19.182  0.00  0.00    +0.000 HD
ATOM     11  H   UNL     1     -10.929   2.653  18.462  0.00  0.00    +0.000 HD
ATOM     12  H   UNL     1     -11.386   2.456  16.341  0.00  0.00    +0.000 HD
ATOM     13  H   UNL     1     -13.058   2.102  16.669  0.00  0.00    +0.000 HD
ATOM     14  H   UNL     1     -11.767   0.364  15.419  0.00  0.00    +0.000 HD
ATOM     15  H   UNL     1     -12.703  -0.228  16.769  0.00  0.00    +0.000 HD
ATOM     16  H   UNL     1      -9.698   0.413  16.981  0.00  0.00    +0.000 HD
ATOM     17  H   UNL     1     -10.317  -1.126  16.390  0.00  0.00    +0.000 HD
ATOM     18  H   UNL     1      -9.762  -1.403  18.671  0.00  0.00    +0.000 HD
ENDROOT
BRANCH   1  21
ATOM     19  O   UNL     1      -8.479  -1.166  20.681  0.00  0.00    +0.000 OA
ATOM     20  C   UNL     1      -9.456  -0.904  21.370  0.00  0.00    +0.000 C 
ATOM     21  N   UNL     1     -10.604  -0.309  20.896  0.00  0.00    +0.000 N 
ATOM     22  H   UNL     1     -11.212   0.084  21.603  0.00  0.00    +0.000 HD
BRANCH  20  23
ATOM     23  C   UNL     1      -9.444  -1.175  22.844  0.00  0.00    +0.000 A 
ATOM     24  C   UNL     1      -9.931  -2.407  23.304  0.00  0.00    +0.000 A 
ATOM     25  C   UNL     1      -9.887  -2.731  24.666  0.00  0.00    +0.000 A 
ATOM     26  C   UNL     1      -9.360  -1.807  25.567  0.00  0.00    +0.000 A 
ATOM     27  C   UNL     1      -8.901  -0.570  25.132  0.00  0.00    +0.000 A 
ATOM     28  C   UNL     1      -8.953  -0.246  23.774  0.00  0.00    +0.000 A 
ATOM     29  H   UNL     1     -10.343  -3.132  22.598  0.00  0.00    +0.000 HD
ATOM     30  H   UNL     1     -10.254  -3.697  25.000  0.00  0.00    +0.000 HD
ATOM     31  H   UNL     1      -8.503   0.142  25.851  0.00  0.00    +0.000 HD
ATOM     32  H   UNL     1      -8.617   0.741  23.465  0.00  0.00    +0.000 HD
BRANCH  26  33
ATOM     33  O   UNL     1      -9.273  -2.083  26.900  0.00  0.00    +0.000 OA
ATOM     34  H   UNL     1     -10.090  -1.788  27.335  0.00  0.00    +0.000 HD
ENDBRANCH  26  33
ENDBRANCH  20  23
ENDBRANCH   1  21
BRANCH   7  35
ATOM     35  O   UNL     1     -11.835  -1.689  18.505  0.00  0.00    +0.000 OA
BRANCH  35  36
ATOM     36  C   UNL     1     -11.765  -2.790  19.278  0.00  0.00    +0.000 C 
ATOM     37  O   UNL     1     -12.269  -2.932  20.379  0.00  0.00    +0.000 OA
BRANCH  36  38
ATOM     38  C   UNL     1     -10.962  -3.839  18.607  0.00  0.00    +0.000 A 
ATOM     39  C   UNL     1      -9.651  -4.029  19.055  0.00  0.00    +0.000 A 
ATOM     40  C   UNL     1      -8.869  -5.041  18.504  0.00  0.00    +0.000 A 
ATOM     41  C   UNL     1      -9.378  -5.878  17.495  0.00  0.00    +0.000 A 
ATOM     42  C   UNL     1     -10.695  -5.680  17.054  0.00  0.00    +0.000 A 
ATOM     43  C   UNL     1     -11.477  -4.656  17.591  0.00  0.00    +0.000 A 
ATOM     44  H   UNL     1      -9.251  -3.380  19.831  0.00  0.00    +0.000 HD
ATOM     45  H   UNL     1     -12.496  -4.527  17.235  0.00  0.00    +0.000 HD
BRANCH  40  46
ATOM     46  O   UNL     1      -7.588  -5.196  18.959  0.00  0.00    +0.000 OA
ATOM     47  H   UNL     1      -7.305  -6.119  18.853  0.00  0.00    +0.000 HD
ENDBRANCH  40  46
BRANCH  41  48
ATOM     48  C   UNL     1      -8.541  -6.987  16.991  0.00  0.00    +0.000 C 
ATOM     49  O   UNL     1      -7.370  -6.738  16.690  0.00  0.00    +0.000 OA
BRANCH  48  50
ATOM     50  C   UNL     1      -8.933  -8.427  17.010  0.00  0.00    +0.000 A 
ATOM     51  C   UNL     1      -9.273  -8.991  15.761  0.00  0.00    +0.000 A 
ATOM     52  C   UNL     1      -9.635 -10.330  15.632  0.00  0.00    +0.000 A 
ATOM     53  C   UNL     1      -9.667 -11.146  16.753  0.00  0.00    +0.000 A 
ATOM     54  C   UNL     1      -9.333 -10.618  18.001  0.00  0.00    +0.000 A 
ATOM     55  C   UNL     1      -8.955  -9.267  18.139  0.00  0.00    +0.000 A 
ATOM     56  H   UNL     1      -9.904 -10.723  14.654  0.00  0.00    +0.000 HD
ATOM     57  H   UNL     1      -9.974 -12.186  16.657  0.00  0.00    +0.000 HD
ATOM     58  H   UNL     1      -9.407 -11.272  18.869  0.00  0.00    +0.000 HD
BRANCH  51  59
ATOM     59  O   UNL     1      -9.249  -8.285  14.582  0.00  0.00    +0.000 OA
ATOM     60  H   UNL     1      -8.774  -7.435  14.747  0.00  0.00    +0.000 HD
ENDBRANCH  51  59
BRANCH  55  61
ATOM     61  C   UNL     1      -8.657  -8.783  19.507  0.00  0.00    +0.000 C 
ATOM     62  O   UNL     1      -7.823  -7.931  19.751  0.00  0.00    +0.000 OA
BRANCH  61  63
ATOM     63  O   UNL     1      -9.410  -9.368  20.470  0.00  0.00    +0.000 OA
ATOM     64  H   UNL     1     -10.204  -9.846  20.161  0.00  0.00    +0.000 HD
ENDBRANCH  61  63
ENDBRANCH  55  61
ENDBRANCH  48  50
ENDBRANCH  41  48
BRANCH  42  65
ATOM     65  O   UNL     1     -11.306  -6.454  16.102  0.00  0.00    +0.000 OA
ATOM     66  H   UNL     1     -11.172  -6.050  15.226  0.00  0.00    +0.000 HD
ENDBRANCH  42  65
ENDBRANCH  36  38
ENDBRANCH  35  36
ENDBRANCH   7  35
TORSDOF 13
ENDMDL
MODEL 8
REMARK VINA RESULT:    -9.288      1.868      5.596
REMARK INTER + INTRA:         -18.055
REMARK INTER:                 -16.934
REMARK INTRA:                  -1.120
REMARK UNBOUND:                -3.065
REMARK  Name = 
REMARK  13 active torsions:
REMARK  status: ('A' for Active; 'I' for Inactive)
REMARK    1  A    between atoms: C_2  and  C_34
REMARK    2  A    between atoms: N_3  and  C_4
REMARK    3  A    between atoms: C_10  and  O_11
REMARK    4  A    between atoms: O_11  and  C_12
REMARK    5  A    between atoms: C_12  and  C_14
REMARK    6  A    between atoms: C_16  and  O_17
REMARK    7  A    between atoms: C_18  and  C_19
REMARK    8  A    between atoms: C_19  and  C_21
REMARK    9  A    between atoms: C_22  and  O_23
REMARK   10  A    between atoms: C_27  and  C_28
REMARK   11  A    between atoms: C_28  and  O_30
REMARK   12  A    between atoms: C_31  and  O_32
REMARK   13  A    between atoms: C_37  and  O_38
REMARK                            x       y       z     vdW  Elec       q    Type
REMARK                         _______ _______ _______ _____ _____    ______ ____
ROOT
ATOM      1  C   UNL     1     -11.102  -0.978  16.058  0.00  0.00    +0.000 C 
ATOM      2  C   UNL     1     -12.608  -0.662  16.228  0.00  0.00    +0.000 C 
ATOM      3  N   UNL     1     -13.074   0.384  15.309  0.00  0.00    +0.000 NA
ATOM      4  C   UNL     1     -13.413  -0.009  13.950  0.00  0.00    +0.000 C 
ATOM      5  C   UNL     1     -12.738  -1.222  13.312  0.00  0.00    +0.000 C 
ATOM      6  C   UNL     1     -11.227  -1.294  13.508  0.00  0.00    +0.000 C 
ATOM      7  C   UNL     1     -10.801  -1.891  14.853  0.00  0.00    +0.000 C 
ATOM      8  H   UNL     1     -10.590  -0.022  15.865  0.00  0.00    +0.000 HD
ATOM      9  H   UNL     1     -12.769  -0.267  17.239  0.00  0.00    +0.000 HD
ATOM     10  H   UNL     1     -13.236  -1.557  16.154  0.00  0.00    +0.000 HD
ATOM     11  H   UNL     1     -12.425   1.169  15.306  0.00  0.00    +0.000 HD
ATOM     12  H   UNL     1     -13.228   0.859  13.304  0.00  0.00    +0.000 HD
ATOM     13  H   UNL     1     -14.498  -0.170  13.904  0.00  0.00    +0.000 HD
ATOM     14  H   UNL     1     -12.934  -1.175  12.232  0.00  0.00    +0.000 HD
ATOM     15  H   UNL     1     -13.224  -2.141  13.658  0.00  0.00    +0.000 HD
ATOM     16  H   UNL     1     -10.765  -0.310  13.360  0.00  0.00    +0.000 HD
ATOM     17  H   UNL     1     -10.830  -1.950  12.722  0.00  0.00    +0.000 HD
ATOM     18  H   UNL     1      -9.714  -2.033  14.805  0.00  0.00    +0.000 HD
ENDROOT
BRANCH   1  21
ATOM     19  O   UNL     1     -11.950  -2.949  18.077  0.00  0.00    +0.000 OA
ATOM     20  C   UNL     1     -10.840  -2.434  18.124  0.00  0.00    +0.000 C 
ATOM     21  N   UNL     1     -10.402  -1.453  17.264  0.00  0.00    +0.000 N 
ATOM     22  H   UNL     1      -9.400  -1.310  17.245  0.00  0.00    +0.000 HD
BRANCH  20  23
ATOM     23  C   UNL     1      -9.828  -2.896  19.128  0.00  0.00    +0.000 A 
ATOM     24  C   UNL     1      -9.220  -4.145  18.942  0.00  0.00    +0.000 A 
ATOM     25  C   UNL     1      -8.226  -4.596  19.820  0.00  0.00    +0.000 A 
ATOM     26  C   UNL     1      -7.851  -3.790  20.894  0.00  0.00    +0.000 A 
ATOM     27  C   UNL     1      -8.466  -2.562  21.110  0.00  0.00    +0.000 A 
ATOM     28  C   UNL     1      -9.462  -2.119  20.237  0.00  0.00    +0.000 A 
ATOM     29  H   UNL     1      -9.511  -4.778  18.100  0.00  0.00    +0.000 HD
ATOM     30  H   UNL     1      -7.755  -5.560  19.649  0.00  0.00    +0.000 HD
ATOM     31  H   UNL     1      -8.167  -1.951  21.959  0.00  0.00    +0.000 HD
ATOM     32  H   UNL     1      -9.949  -1.169  20.449  0.00  0.00    +0.000 HD
BRANCH  26  33
ATOM     33  O   UNL     1      -6.873  -4.171  21.764  0.00  0.00    +0.000 OA
ATOM     34  H   UNL     1      -7.198  -4.919  22.292  0.00  0.00    +0.000 HD
ENDBRANCH  26  33
ENDBRANCH  20  23
ENDBRANCH   1  21
BRANCH   7  35
ATOM     35  O   UNL     1     -11.478  -3.154  15.009  0.00  0.00    +0.000 OA
BRANCH  35  36
ATOM     36  C   UNL     1     -10.937  -4.223  14.395  0.00  0.00    +0.000 C 
ATOM     37  O   UNL     1     -10.831  -4.389  13.191  0.00  0.00    +0.000 OA
BRANCH  36  38
ATOM     38  C   UNL     1     -10.481  -5.216  15.396  0.00  0.00    +0.000 A 
ATOM     39  C   UNL     1     -11.466  -5.895  16.122  0.00  0.00    +0.000 A 
ATOM     40  C   UNL     1     -11.099  -6.882  17.034  0.00  0.00    +0.000 A 
ATOM     41  C   UNL     1      -9.746  -7.206  17.241  0.00  0.00    +0.000 A 
ATOM     42  C   UNL     1      -8.767  -6.520  16.507  0.00  0.00    +0.000 A 
ATOM     43  C   UNL     1      -9.129  -5.518  15.605  0.00  0.00    +0.000 A 
ATOM     44  H   UNL     1     -12.513  -5.644  15.968  0.00  0.00    +0.000 HD
ATOM     45  H   UNL     1      -8.350  -5.004  15.046  0.00  0.00    +0.000 HD
BRANCH  40  46
ATOM     46  O   UNL     1     -12.086  -7.523  17.732  0.00  0.00    +0.000 OA
ATOM     47  H   UNL     1     -12.870  -6.954  17.802  0.00  0.00    +0.000 HD
ENDBRANCH  40  46
BRANCH  41  48
ATOM     48  C   UNL     1      -9.405  -8.311  18.162  0.00  0.00    +0.000 C 
ATOM     49  O   UNL     1      -9.560  -8.125  19.373  0.00  0.00    +0.000 OA
BRANCH  48  50
ATOM     50  C   UNL     1      -9.084  -9.705  17.738  0.00  0.00    +0.000 A 
ATOM     51  C   UNL     1      -8.649 -10.577  18.760  0.00  0.00    +0.000 A 
ATOM     52  C   UNL     1      -8.338 -11.911  18.507  0.00  0.00    +0.000 A 
ATOM     53  C   UNL     1      -8.454 -12.412  17.219  0.00  0.00    +0.000 A 
ATOM     54  C   UNL     1      -8.884 -11.576  16.188  0.00  0.00    +0.000 A 
ATOM     55  C   UNL     1      -9.211 -10.228  16.436  0.00  0.00    +0.000 A 
ATOM     56  H   UNL     1      -7.993 -12.547  19.319  0.00  0.00    +0.000 HD
ATOM     57  H   UNL     1      -8.188 -13.448  17.015  0.00  0.00    +0.000 HD
ATOM     58  H   UNL     1      -8.926 -11.987  15.180  0.00  0.00    +0.000 HD
BRANCH  51  59
ATOM     59  O   UNL     1      -8.525 -10.196  20.074  0.00  0.00    +0.000 OA
ATOM     60  H   UNL     1      -9.400  -9.852  20.374  0.00  0.00    +0.000 HD
ENDBRANCH  51  59
BRANCH  55  61
ATOM     61  C   UNL     1      -9.620  -9.404  15.276  0.00  0.00    +0.000 C 
ATOM     62  O   UNL     1      -8.830  -8.897  14.500  0.00  0.00    +0.000 OA
BRANCH  61  63
ATOM     63  O   UNL     1     -10.962  -9.274  15.144  0.00  0.00    +0.000 OA
ATOM     64  H   UNL     1     -11.496 -10.043  15.422  0.00  0.00    +0.000 HD
ENDBRANCH  61  63
ENDBRANCH  55  61
ENDBRANCH  48  50
ENDBRANCH  41  48
BRANCH  42  65
ATOM     65  O   UNL     1      -7.424  -6.774  16.603  0.00  0.00    +0.000 OA
ATOM     66  H   UNL     1      -7.159  -7.378  15.887  0.00  0.00    +0.000 HD
ENDBRANCH  42  65
ENDBRANCH  36  38
ENDBRANCH  35  36
ENDBRANCH   7  35
TORSDOF 13
ENDMDL
MODEL 9
REMARK VINA RESULT:    -8.996      2.899      9.119
REMARK INTER + INTRA:         -17.583
REMARK INTER:                 -16.268
REMARK INTRA:                  -1.316
REMARK UNBOUND:                -3.065
REMARK  Name = 
REMARK  13 active torsions:
REMARK  status: ('A' for Active; 'I' for Inactive)
REMARK    1  A    between atoms: C_2  and  C_34
REMARK    2  A    between atoms: N_3  and  C_4
REMARK    3  A    between atoms: C_10  and  O_11
REMARK    4  A    between atoms: O_11  and  C_12
REMARK    5  A    between atoms: C_12  and  C_14
REMARK    6  A    between atoms: C_16  and  O_17
REMARK    7  A    between atoms: C_18  and  C_19
REMARK    8  A    between atoms: C_19  and  C_21
REMARK    9  A    between atoms: C_22  and  O_23
REMARK   10  A    between atoms: C_27  and  C_28
REMARK   11  A    between atoms: C_28  and  O_30
REMARK   12  A    between atoms: C_31  and  O_32
REMARK   13  A    between atoms: C_37  and  O_38
REMARK                            x       y       z     vdW  Elec       q    Type
REMARK                         _______ _______ _______ _____ _____    ______ ____
ROOT
ATOM      1  C   UNL     1     -11.013  -5.292  15.455  0.00  0.00    +0.000 C 
ATOM      2  C   UNL     1     -10.398  -4.513  14.267  0.00  0.00    +0.000 C 
ATOM      3  N   UNL     1     -11.391  -3.712  13.539  0.00  0.00    +0.000 NA
ATOM      4  C   UNL     1     -11.741  -2.408  14.083  0.00  0.00    +0.000 C 
ATOM      5  C   UNL     1     -11.624  -2.147  15.583  0.00  0.00    +0.000 C 
ATOM      6  C   UNL     1     -12.196  -3.247  16.473  0.00  0.00    +0.000 C 
ATOM      7  C   UNL     1     -11.239  -4.420  16.706  0.00  0.00    +0.000 C 
ATOM      8  H   UNL     1     -12.006  -5.643  15.133  0.00  0.00    +0.000 HD
ATOM      9  H   UNL     1     -10.007  -5.236  13.541  0.00  0.00    +0.000 HD
ATOM     10  H   UNL     1      -9.542  -3.898  14.566  0.00  0.00    +0.000 HD
ATOM     11  H   UNL     1     -12.229  -4.264  13.359  0.00  0.00    +0.000 HD
ATOM     12  H   UNL     1     -12.775  -2.197  13.782  0.00  0.00    +0.000 HD
ATOM     13  H   UNL     1     -11.135  -1.653  13.566  0.00  0.00    +0.000 HD
ATOM     14  H   UNL     1     -12.176  -1.222  15.797  0.00  0.00    +0.000 HD
ATOM     15  H   UNL     1     -10.582  -1.932  15.842  0.00  0.00    +0.000 HD
ATOM     16  H   UNL     1     -13.157  -3.605  16.085  0.00  0.00    +0.000 HD
ATOM     17  H   UNL     1     -12.400  -2.795  17.453  0.00  0.00    +0.000 HD
ATOM     18  H   UNL     1     -11.697  -5.053  17.476  0.00  0.00    +0.000 HD
ENDROOT
BRANCH   1  21
ATOM     19  O   UNL     1     -11.778  -7.326  17.444  0.00  0.00    +0.000 OA
ATOM     20  C   UNL     1     -10.813  -7.493  16.709  0.00  0.00    +0.000 C 
ATOM     21  N   UNL     1     -10.350  -6.558  15.810  0.00  0.00    +0.000 N 
ATOM     22  H   UNL     1      -9.728  -6.914  15.096  0.00  0.00    +0.000 HD
BRANCH  20  23
ATOM     23  C   UNL     1     -10.077  -8.798  16.702  0.00  0.00    +0.000 A 
ATOM     24  C   UNL     1      -9.405  -9.196  17.867  0.00  0.00    +0.000 A 
ATOM     25  C   UNL     1      -8.752 -10.434  17.929  0.00  0.00    +0.000 A 
ATOM     26  C   UNL     1      -8.768 -11.267  16.813  0.00  0.00    +0.000 A 
ATOM     27  C   UNL     1      -9.403 -10.875  15.640  0.00  0.00    +0.000 A 
ATOM     28  C   UNL     1     -10.047  -9.637  15.578  0.00  0.00    +0.000 A 
ATOM     29  H   UNL     1      -9.394  -8.544  18.744  0.00  0.00    +0.000 HD
ATOM     30  H   UNL     1      -8.252 -10.730  18.847  0.00  0.00    +0.000 HD
ATOM     31  H   UNL     1      -9.395 -11.534  14.775  0.00  0.00    +0.000 HD
ATOM     32  H   UNL     1     -10.507  -9.341  14.638  0.00  0.00    +0.000 HD
BRANCH  26  33
ATOM     33  O   UNL     1      -8.168 -12.492  16.829  0.00  0.00    +0.000 OA
ATOM     34  H   UNL     1      -8.062 -12.801  15.914  0.00  0.00    +0.000 HD
ENDBRANCH  26  33
ENDBRANCH  20  23
ENDBRANCH   1  21
BRANCH   7  35
ATOM     35  O   UNL     1      -9.984  -3.880  17.165  0.00  0.00    +0.000 OA
BRANCH  35  36
ATOM     36  C   UNL     1      -9.506  -4.341  18.337  0.00  0.00    +0.000 C 
ATOM     37  O   UNL     1      -8.998  -5.433  18.530  0.00  0.00    +0.000 OA
BRANCH  36  38
ATOM     38  C   UNL     1      -9.692  -3.328  19.402  0.00  0.00    +0.000 A 
ATOM     39  C   UNL     1     -11.004  -3.033  19.786  0.00  0.00    +0.000 A 
ATOM     40  C   UNL     1     -11.238  -2.134  20.823  0.00  0.00    +0.000 A 
ATOM     41  C   UNL     1     -10.169  -1.512  21.494  0.00  0.00    +0.000 A 
ATOM     42  C   UNL     1      -8.857  -1.817  21.102  0.00  0.00    +0.000 A 
ATOM     43  C   UNL     1      -8.619  -2.703  20.052  0.00  0.00    +0.000 A 
ATOM     44  H   UNL     1     -11.834  -3.507  19.266  0.00  0.00    +0.000 HD
ATOM     45  H   UNL     1      -7.591  -2.925  19.770  0.00  0.00    +0.000 HD
BRANCH  40  46
ATOM     46  O   UNL     1     -12.533  -1.861  21.170  0.00  0.00    +0.000 OA
ATOM     47  H   UNL     1     -13.137  -2.164  20.472  0.00  0.00    +0.000 HD
ENDBRANCH  40  46
BRANCH  41  48
ATOM     48  C   UNL     1     -10.460  -0.622  22.639  0.00  0.00    +0.000 C 
ATOM     49  O   UNL     1     -11.344   0.228  22.502  0.00  0.00    +0.000 OA
BRANCH  48  50
ATOM     50  C   UNL     1      -9.915  -0.802  24.016  0.00  0.00    +0.000 A 
ATOM     51  C   UNL     1     -10.114  -2.074  24.597  0.00  0.00    +0.000 A 
ATOM     52  C   UNL     1      -9.637  -2.384  25.869  0.00  0.00    +0.000 A 
ATOM     53  C   UNL     1      -8.945  -1.429  26.597  0.00  0.00    +0.000 A 
ATOM     54  C   UNL     1      -8.730  -0.164  26.049  0.00  0.00    +0.000 A 
ATOM     55  C   UNL     1      -9.199   0.157  24.759  0.00  0.00    +0.000 A 
ATOM     56  H   UNL     1      -9.822  -3.371  26.287  0.00  0.00    +0.000 HD
ATOM     57  H   UNL     1      -8.593  -1.662  27.601  0.00  0.00    +0.000 HD
ATOM     58  H   UNL     1      -8.219   0.579  26.660  0.00  0.00    +0.000 HD
BRANCH  51  59
ATOM     59  O   UNL     1     -10.760  -3.103  23.958  0.00  0.00    +0.000 OA
ATOM     60  H   UNL     1     -11.597  -3.288  24.448  0.00  0.00    +0.000 HD
ENDBRANCH  51  59
BRANCH  55  61
ATOM     61  C   UNL     1      -8.961   1.535  24.273  0.00  0.00    +0.000 C 
ATOM     62  O   UNL     1      -9.842   2.366  24.151  0.00  0.00    +0.000 OA
BRANCH  61  63
ATOM     63  O   UNL     1      -7.662   1.797  23.987  0.00  0.00    +0.000 OA
ATOM     64  H   UNL     1      -7.006   1.189  24.380  0.00  0.00    +0.000 HD
ENDBRANCH  61  63
ENDBRANCH  55  61
ENDBRANCH  48  50
ENDBRANCH  41  48
BRANCH  42  65
ATOM     65  O   UNL     1      -7.741  -1.296  21.704  0.00  0.00    +0.000 OA
ATOM     66  H   UNL     1      -7.267  -2.008  22.170  0.00  0.00    +0.000 HD
ENDBRANCH  42  65
ENDBRANCH  36  38
ENDBRANCH  35  36
ENDBRANCH   7  35
TORSDOF 13
ENDMDL
