REMARK  Name = 
REMARK  7 active torsions:
REMARK  status: ('A' for Active; 'I' for Inactive)
REMARK    1  A    between atoms: C_1  and  N_2
REMARK    2  A    between atoms: N_2  and  C_3
REMARK    3  A    between atoms: N_2  and  C_4
REMARK    4  A    between atoms: C_4  and  C_5
REMARK    5  A    between atoms: C_10  and  C_11
REMARK    6  A    between atoms: C_12  and  C_13
REMARK    7  A    between atoms: N_15  and  C_16
REMARK                            x       y       z     vdW  Elec       q    Type
REMARK                         _______ _______ _______ _____ _____    ______ ____
ROOT
ATOM      1  C   UNL     1      -0.964  -2.523   1.615  0.00  0.00    +0.000 C 
ATOM      2  C   UNL     1      -0.485  -3.352   0.412  0.00  0.00    +0.000 C 
ATOM      3  C   UNL     1      -1.052  -2.800  -0.892  0.00  0.00    +0.000 C 
ATOM      4  N   UNL     1      -0.941  -1.351  -0.972  0.00  0.00    +0.000 N 
ATOM      5  C   UNL     1      -0.688  -0.529   0.108  0.00  0.00    +0.000 A 
ATOM      6  C   UNL     1      -0.726   0.772  -0.359  0.00  0.00    +0.000 A 
ATOM      7  C   UNL     1      -1.026   0.737  -1.752  0.00  0.00    +0.000 A 
ATOM      8  C   UNL     1      -1.201   1.714  -2.753  0.00  0.00    +0.000 A 
ATOM      9  C   UNL     1      -1.586   1.330  -4.041  0.00  0.00    +0.000 A 
ATOM     10  C   UNL     1      -1.790  -0.011  -4.350  0.00  0.00    +0.000 A 
ATOM     11  C   UNL     1      -1.598  -1.003  -3.387  0.00  0.00    +0.000 A 
ATOM     12  C   UNL     1      -1.203  -0.606  -2.099  0.00  0.00    +0.000 A 
ATOM     13  C   UNL     1      -0.435  -1.086   1.473  0.00  0.00    +0.000 C 
ATOM     14  H   UNL     1      -0.498  -2.934   2.516  0.00  0.00    +0.000 HD
ATOM     15  H   UNL     1      -0.762  -4.405   0.524  0.00  0.00    +0.000 HD
ATOM     16  H   UNL     1       0.610  -3.318   0.372  0.00  0.00    +0.000 HD
ATOM     17  H   UNL     1      -2.117  -3.041  -0.991  0.00  0.00    +0.000 HD
ATOM     18  H   UNL     1      -0.519  -3.230  -1.745  0.00  0.00    +0.000 HD
ATOM     19  H   UNL     1      -1.057   2.767  -2.525  0.00  0.00    +0.000 HD
ATOM     20  H   UNL     1      -1.739   2.089  -4.804  0.00  0.00    +0.000 HD
ATOM     21  H   UNL     1      -2.103  -0.292  -5.353  0.00  0.00    +0.000 HD
ATOM     22  H   UNL     1      -1.762  -2.048  -3.634  0.00  0.00    +0.000 HD
ATOM     23  H   UNL     1      -0.880  -0.438   2.237  0.00  0.00    +0.000 HD
ATOM     24  H   UNL     1       0.648  -1.086   1.655  0.00  0.00    +0.000 HD
ENDROOT
BRANCH   6  25
ATOM     25  C   UNL     1      -0.545   1.926   0.451  0.00  0.00    +0.000 C 
ATOM     26  C   UNL     1       0.585   2.563   0.777  0.00  0.00    +0.000 C 
ATOM     27  C   UNL     1       0.222   3.691   1.665  0.00  0.00    +0.000 C 
ATOM     28  O   UNL     1       0.983   4.474   2.209  0.00  0.00    +0.000 OA
ATOM     29  N   UNL     1      -1.120   3.675   1.793  0.00  0.00    +0.000 N 
ATOM     30  C   UNL     1      -1.655   2.637   1.108  0.00  0.00    +0.000 C 
ATOM     31  O   UNL     1      -2.843   2.350   1.072  0.00  0.00    +0.000 OA
ATOM     32  H   UNL     1      -1.645   4.325   2.355  0.00  0.00    +0.000 HD
BRANCH  26  33
ATOM     33  C   UNL     1       1.919   2.281   0.392  0.00  0.00    +0.000 A 
ATOM     34  C   UNL     1       2.760   1.431   1.066  0.00  0.00    +0.000 A 
ATOM     35  N   UNL     1       3.982   1.478   0.444  0.00  0.00    +0.000 N 
ATOM     36  C   UNL     1       3.941   2.340  -0.634  0.00  0.00    +0.000 A 
ATOM     37  C   UNL     1       4.938   2.731  -1.541  0.00  0.00    +0.000 A 
ATOM     38  C   UNL     1       4.599   3.658  -2.532  0.00  0.00    +0.000 A 
ATOM     39  C   UNL     1       3.310   4.175  -2.618  0.00  0.00    +0.000 A 
ATOM     40  C   UNL     1       2.321   3.776  -1.713  0.00  0.00    +0.000 A 
ATOM     41  C   UNL     1       2.638   2.851  -0.696  0.00  0.00    +0.000 A 
ATOM     42  H   UNL     1       2.606   0.827   1.950  0.00  0.00    +0.000 HD
ATOM     43  H   UNL     1       5.949   2.342  -1.477  0.00  0.00    +0.000 HD
ATOM     44  H   UNL     1       5.356   3.983  -3.242  0.00  0.00    +0.000 HD
ATOM     45  H   UNL     1       3.068   4.901  -3.391  0.00  0.00    +0.000 HD
ATOM     46  H   UNL     1       1.323   4.194  -1.786  0.00  0.00    +0.000 HD
BRANCH  35  47
ATOM     47  C   UNL     1       5.158   0.770   0.899  0.00  0.00    +0.000 C 
ATOM     48  H   UNL     1       4.912   0.187   1.790  0.00  0.00    +0.000 HD
ATOM     49  H   UNL     1       5.932   1.503   1.143  0.00  0.00    +0.000 HD
ATOM     50  H   UNL     1       5.490   0.103   0.101  0.00  0.00    +0.000 HD
ENDBRANCH  35  47
ENDBRANCH  26  33
ENDBRANCH   6  25
BRANCH   1  51
ATOM     51  C   UNL     1      -2.511  -2.547   1.782  0.00  0.00    +0.000 C 
ATOM     52  H   UNL     1      -2.786  -1.927   2.646  0.00  0.00    +0.000 HD
ATOM     53  H   UNL     1      -2.981  -2.080   0.909  0.00  0.00    +0.000 HD
BRANCH  51  54
ATOM     54  N   UNL     1      -3.061  -3.908   1.959  0.00  0.00    +0.000 NA
BRANCH  54  55
ATOM     55  C   UNL     1      -2.530  -4.513   3.184  0.00  0.00    +0.000 C 
ATOM     56  H   UNL     1      -2.923  -5.526   3.321  0.00  0.00    +0.000 HD
ATOM     57  H   UNL     1      -2.766  -3.917   4.073  0.00  0.00    +0.000 HD
ATOM     58  H   UNL     1      -1.446  -4.629   3.125  0.00  0.00    +0.000 HD
ENDBRANCH  54  55
BRANCH  54  59
ATOM     59  C   UNL     1      -4.527  -3.868   2.033  0.00  0.00    +0.000 C 
ATOM     60  H   UNL     1      -4.929  -4.869   2.223  0.00  0.00    +0.000 HD
ATOM     61  H   UNL     1      -4.961  -3.540   1.081  0.00  0.00    +0.000 HD
ATOM     62  H   UNL     1      -4.889  -3.203   2.826  0.00  0.00    +0.000 HD
ENDBRANCH  54  59
ENDBRANCH  51  54
ENDBRANCH   1  51
TORSDOF 7
