REMARK  Name = 
REMARK  9 active torsions:
REMARK  status: ('A' for Active; 'I' for Inactive)
REMARK    1  A    between atoms: C_1  and  C_2
REMARK    2  A    between atoms: C_2  and  N_3
REMARK    3  A    between atoms: N_3  and  C_4
REMARK    4  A    between atoms: N_3  and  C_6
REMARK    5  A    between atoms: C_4  and  C_5
REMARK    6  A    between atoms: C_6  and  C_7
REMARK    7  A    between atoms: C_7  and  C_8
REMARK    8  A    between atoms: C_8  and  C_9
REMARK    9  A    between atoms: N_23  and  C_24
REMARK                            x       y       z     vdW  Elec       q    Type
REMARK                         _______ _______ _______ _____ _____    ______ ____
ROOT
ATOM      1  C   UNL     1       0.112  -2.766  -1.984  0.00  0.00    +0.000 A 
ATOM      2  C   UNL     1       0.059  -4.146  -1.732  0.00  0.00    +0.000 A 
ATOM      3  C   UNL     1       0.444  -4.675  -0.506  0.00  0.00    +0.000 A 
ATOM      4  C   UNL     1       0.934  -3.845   0.511  0.00  0.00    +0.000 A 
ATOM      5  C   UNL     1       1.044  -2.456   0.300  0.00  0.00    +0.000 A 
ATOM      6  C   UNL     1       0.609  -1.960  -0.940  0.00  0.00    +0.000 A 
ATOM      7  N   UNL     1       0.727  -0.583  -0.901  0.00  0.00    +0.000 N 
ATOM      8  C   UNL     1       1.270  -0.146   0.288  0.00  0.00    +0.000 A 
ATOM      9  C   UNL     1       1.562   1.133   0.786  0.00  0.00    +0.000 A 
ATOM     10  C   UNL     1       1.194   2.184  -0.053  0.00  0.00    +0.000 A 
ATOM     11  C   UNL     1       1.332   3.478   0.386  0.00  0.00    +0.000 A 
ATOM     12  C   UNL     1       2.022   3.727   1.578  0.00  0.00    +0.000 A 
ATOM     13  C   UNL     1       2.348   4.972   2.156  0.00  0.00    +0.000 A 
ATOM     14  C   UNL     1       3.454   4.697   2.899  0.00  0.00    +0.000 A 
ATOM     15  N   UNL     1       3.284   3.391   3.327  0.00  0.00    +0.000 N 
ATOM     16  C   UNL     1       2.523   2.674   2.400  0.00  0.00    +0.000 A 
ATOM     17  C   UNL     1       2.165   1.309   2.090  0.00  0.00    +0.000 A 
ATOM     18  C   UNL     1       2.293   0.091   2.815  0.00  0.00    +0.000 A 
ATOM     19  C   UNL     1       1.970  -1.230   2.295  0.00  0.00    +0.000 A 
ATOM     20  C   UNL     1       1.461  -1.301   0.985  0.00  0.00    +0.000 A 
ATOM     21  C   UNL     1       2.179  -2.241   3.305  0.00  0.00    +0.000 C 
ATOM     22  O   UNL     1       1.967  -3.446   3.395  0.00  0.00    +0.000 OA
ATOM     23  N   UNL     1       2.692  -1.503   4.332  0.00  0.00    +0.000 N 
ATOM     24  C   UNL     1       2.603  -0.128   4.207  0.00  0.00    +0.000 C 
ATOM     25  O   UNL     1       2.646   0.597   5.194  0.00  0.00    +0.000 OA
ATOM     26  H   UNL     1      -0.320  -4.820  -2.499  0.00  0.00    +0.000 HD
ATOM     27  H   UNL     1       0.353  -5.744  -0.331  0.00  0.00    +0.000 HD
ATOM     28  H   UNL     1       1.208  -4.306   1.453  0.00  0.00    +0.000 HD
ATOM     29  H   UNL     1       0.426   0.020  -1.652  0.00  0.00    +0.000 HD
ATOM     30  H   UNL     1       0.761   2.035  -1.035  0.00  0.00    +0.000 HD
ATOM     31  H   UNL     1       1.003   4.308  -0.232  0.00  0.00    +0.000 HD
ATOM     32  H   UNL     1       1.993   5.950   1.868  0.00  0.00    +0.000 HD
ATOM     33  H   UNL     1       4.202   5.352   3.328  0.00  0.00    +0.000 HD
ATOM     34  H   UNL     1       2.797  -1.909   5.243  0.00  0.00    +0.000 HD
ENDROOT
BRANCH  15  35
ATOM     35  C   UNL     1       3.744   3.120   4.665  0.00  0.00    +0.000 C 
ATOM     36  H   UNL     1       4.116   2.118   4.785  0.00  0.00    +0.000 HD
ATOM     37  H   UNL     1       2.919   3.386   5.339  0.00  0.00    +0.000 HD
ATOM     38  H   UNL     1       4.581   3.796   4.897  0.00  0.00    +0.000 HD
ENDBRANCH  15  35
BRANCH   1  39
ATOM     39  C   UNL     1      -0.422  -2.215  -3.286  0.00  0.00    +0.000 C 
ATOM     40  H   UNL     1      -0.206  -1.145  -3.379  0.00  0.00    +0.000 HD
ATOM     41  H   UNL     1       0.115  -2.696  -4.114  0.00  0.00    +0.000 HD
BRANCH  39  42
ATOM     42  C   UNL     1      -1.926  -2.457  -3.448  0.00  0.00    +0.000 C 
ATOM     43  H   UNL     1      -2.236  -2.128  -4.446  0.00  0.00    +0.000 HD
ATOM     44  H   UNL     1      -2.132  -3.534  -3.429  0.00  0.00    +0.000 HD
BRANCH  42  45
ATOM     45  C   UNL     1      -2.794  -1.788  -2.366  0.00  0.00    +0.000 C 
ATOM     46  H   UNL     1      -3.835  -2.089  -2.542  0.00  0.00    +0.000 HD
ATOM     47  H   UNL     1      -2.515  -2.212  -1.393  0.00  0.00    +0.000 HD
BRANCH  45  48
ATOM     48  N   UNL     1      -2.690  -0.314  -2.301  0.00  0.00    +0.000 NA
BRANCH  48  49
ATOM     49  C   UNL     1      -3.141   0.309  -3.556  0.00  0.00    +0.000 C 
ATOM     50  H   UNL     1      -2.492  -0.033  -4.369  0.00  0.00    +0.000 HD
ATOM     51  H   UNL     1      -4.160  -0.002  -3.814  0.00  0.00    +0.000 HD
BRANCH  49  52
ATOM     52  C   UNL     1      -3.052   1.830  -3.583  0.00  0.00    +0.000 C 
ATOM     53  H   UNL     1      -3.162   2.185  -4.613  0.00  0.00    +0.000 HD
ATOM     54  H   UNL     1      -2.082   2.179  -3.213  0.00  0.00    +0.000 HD
ATOM     55  H   UNL     1      -3.846   2.292  -2.989  0.00  0.00    +0.000 HD
ENDBRANCH  49  52
ENDBRANCH  48  49
BRANCH  48  56
ATOM     56  C   UNL     1      -3.375   0.202  -1.098  0.00  0.00    +0.000 C 
ATOM     57  H   UNL     1      -3.222   1.285  -1.023  0.00  0.00    +0.000 HD
ATOM     58  H   UNL     1      -2.874  -0.202  -0.207  0.00  0.00    +0.000 HD
BRANCH  56  59
ATOM     59  C   UNL     1      -4.869  -0.096  -0.981  0.00  0.00    +0.000 C 
ATOM     60  H   UNL     1      -5.412   0.124  -1.904  0.00  0.00    +0.000 HD
ATOM     61  H   UNL     1      -5.311   0.517  -0.188  0.00  0.00    +0.000 HD
ATOM     62  H   UNL     1      -5.044  -1.145  -0.718  0.00  0.00    +0.000 HD
ENDBRANCH  56  59
ENDBRANCH  48  56
ENDBRANCH  45  48
ENDBRANCH  42  45
ENDBRANCH  39  42
ENDBRANCH   1  39
TORSDOF 9
