REMARK  Name = 
REMARK  7 active torsions:
REMARK  status: ('A' for Active; 'I' for Inactive)
REMARK    1  A    between atoms: C_1  and  O_2
REMARK    2  A    between atoms: O_2  and  C_3
REMARK    3  A    between atoms: C_4  and  N_5
REMARK    4  A    between atoms: N_5  and  C_6
REMARK    5  A    between atoms: C_7  and  C_9
REMARK    6  A    between atoms: C_18  and  C_19
REMARK    7  A    between atoms: C_43  and  O_44
REMARK                            x       y       z     vdW  Elec       q    Type
REMARK                         _______ _______ _______ _____ _____    ______ ____
ROOT
ATOM      1  C   UNL     1       1.248   0.846   0.170  0.00  0.00    +0.000 C 
ATOM      2  C   UNL     1       2.230  -0.215   0.766  0.00  0.00    +0.000 C 
ATOM      3  C   UNL     1       1.455  -1.326   1.496  0.00  0.00    +0.000 C 
ATOM      4  C   UNL     1       0.162  -1.653   0.746  0.00  0.00    +0.000 C 
ATOM      5  O   UNL     1       0.403  -1.379  -0.666  0.00  0.00    +0.000 OA
ATOM      6  C   UNL     1       0.512   0.040  -0.999  0.00  0.00    +0.000 C 
ATOM      7  N   UNL     1      -0.825   0.449  -1.353  0.00  0.00    +0.000 N 
ATOM      8  C   UNL     1      -1.378   1.270  -2.356  0.00  0.00    +0.000 A 
ATOM      9  C   UNL     1      -0.844   1.806  -3.534  0.00  0.00    +0.000 A 
ATOM     10  C   UNL     1      -1.461   2.922  -4.104  0.00  0.00    +0.000 A 
ATOM     11  C   UNL     1      -2.619   3.457  -3.560  0.00  0.00    +0.000 A 
ATOM     12  C   UNL     1      -3.331   2.737  -2.605  0.00  0.00    +0.000 A 
ATOM     13  C   UNL     1      -2.764   1.562  -2.068  0.00  0.00    +0.000 A 
ATOM     14  C   UNL     1      -3.180   0.552  -1.210  0.00  0.00    +0.000 A 
ATOM     15  C   UNL     1      -4.467   0.034  -0.996  0.00  0.00    +0.000 A 
ATOM     16  C   UNL     1      -4.652  -0.399   0.359  0.00  0.00    +0.000 A 
ATOM     17  C   UNL     1      -3.388  -0.582   0.975  0.00  0.00    +0.000 A 
ATOM     18  C   UNL     1      -2.968  -0.204   2.252  0.00  0.00    +0.000 A 
ATOM     19  C   UNL     1      -3.279   0.724   3.264  0.00  0.00    +0.000 A 
ATOM     20  C   UNL     1      -2.634   0.598   4.498  0.00  0.00    +0.000 A 
ATOM     21  C   UNL     1      -1.951  -0.582   4.769  0.00  0.00    +0.000 A 
ATOM     22  C   UNL     1      -1.568  -1.446   3.731  0.00  0.00    +0.000 A 
ATOM     23  C   UNL     1      -1.756  -0.963   2.422  0.00  0.00    +0.000 A 
ATOM     24  N   UNL     1      -1.088  -1.078   1.198  0.00  0.00    +0.000 N 
ATOM     25  C   UNL     1      -2.113  -0.673   0.412  0.00  0.00    +0.000 A 
ATOM     26  C   UNL     1      -1.979   0.029  -0.770  0.00  0.00    +0.000 A 
ATOM     27  C   UNL     1      -5.633  -1.487   0.353  0.00  0.00    +0.000 C 
ATOM     28  O   UNL     1      -6.103  -2.193   1.235  0.00  0.00    +0.000 OA
ATOM     29  N   UNL     1      -5.853  -1.752  -0.995  0.00  0.00    +0.000 N 
ATOM     30  C   UNL     1      -5.032  -1.016  -1.907  0.00  0.00    +0.000 C 
ATOM     31  H   UNL     1       1.813   1.693  -0.237  0.00  0.00    +0.000 HD
ATOM     32  H   UNL     1       2.673  -0.705  -0.100  0.00  0.00    +0.000 HD
ATOM     33  H   UNL     1       1.299  -1.134   2.559  0.00  0.00    +0.000 HD
ATOM     34  H   UNL     1       2.088  -2.222   1.440  0.00  0.00    +0.000 HD
ATOM     35  H   UNL     1      -0.013  -2.732   0.816  0.00  0.00    +0.000 HD
ATOM     36  H   UNL     1       0.033   1.391  -4.013  0.00  0.00    +0.000 HD
ATOM     37  H   UNL     1      -0.997   3.395  -4.966  0.00  0.00    +0.000 HD
ATOM     38  H   UNL     1      -2.992   4.413  -3.914  0.00  0.00    +0.000 HD
ATOM     39  H   UNL     1      -4.266   3.128  -2.207  0.00  0.00    +0.000 HD
ATOM     40  H   UNL     1      -3.934   1.569   3.066  0.00  0.00    +0.000 HD
ATOM     41  H   UNL     1      -2.794   1.336   5.280  0.00  0.00    +0.000 HD
ATOM     42  H   UNL     1      -1.787  -0.871   5.805  0.00  0.00    +0.000 HD
ATOM     43  H   UNL     1      -1.582  -2.521   3.934  0.00  0.00    +0.000 HD
ATOM     44  H   UNL     1      -6.252  -2.640  -1.264  0.00  0.00    +0.000 HD
ATOM     45  H   UNL     1      -5.600  -0.632  -2.752  0.00  0.00    +0.000 HD
ENDROOT
BRANCH   6  46
ATOM     46  C   UNL     1       1.444   0.157  -2.233  0.00  0.00    +0.000 C 
ATOM     47  H   UNL     1       1.501   1.212  -2.561  0.00  0.00    +0.000 HD
ATOM     48  H   UNL     1       1.097  -0.486  -3.063  0.00  0.00    +0.000 HD
ATOM     49  H   UNL     1       2.473  -0.117  -2.012  0.00  0.00    +0.000 HD
ENDBRANCH   6  46
BRANCH   2  50
ATOM     50  N   UNL     1       3.397   0.296   1.504  0.00  0.00    +0.000 N 
ATOM     51  C   UNL     1       4.670   0.386   0.917  0.00  0.00    +0.000 C 
ATOM     52  O   UNL     1       5.476   1.268   1.215  0.00  0.00    +0.000 OA
BRANCH  51  53
ATOM     53  C   UNL     1       5.127  -0.655  -0.054  0.00  0.00    +0.000 A 
ATOM     54  C   UNL     1       5.904  -0.276  -1.157  0.00  0.00    +0.000 A 
ATOM     55  C   UNL     1       6.457  -1.252  -1.995  0.00  0.00    +0.000 A 
ATOM     56  C   UNL     1       6.235  -2.604  -1.736  0.00  0.00    +0.000 A 
ATOM     57  C   UNL     1       5.454  -2.987  -0.647  0.00  0.00    +0.000 A 
ATOM     58  C   UNL     1       4.911  -2.017   0.200  0.00  0.00    +0.000 A 
ATOM     59  H   UNL     1       6.104   0.775  -1.349  0.00  0.00    +0.000 HD
ATOM     60  H   UNL     1       7.088  -0.956  -2.831  0.00  0.00    +0.000 HD
ATOM     61  H   UNL     1       6.699  -3.360  -2.366  0.00  0.00    +0.000 HD
ATOM     62  H   UNL     1       5.296  -4.042  -0.439  0.00  0.00    +0.000 HD
ATOM     63  H   UNL     1       4.351  -2.332   1.074  0.00  0.00    +0.000 HD
ENDBRANCH  51  53
BRANCH  50  64
ATOM     64  C   UNL     1       3.165   1.157   2.652  0.00  0.00    +0.000 C 
ATOM     65  H   UNL     1       3.097   2.197   2.321  0.00  0.00    +0.000 HD
ATOM     66  H   UNL     1       4.011   1.059   3.340  0.00  0.00    +0.000 HD
ATOM     67  H   UNL     1       2.256   0.863   3.181  0.00  0.00    +0.000 HD
ENDBRANCH  50  64
ENDBRANCH   2  50
BRANCH  30  68
ATOM     68  O   UNL     1      -4.040  -1.938  -2.330  0.00  0.00    +0.000 OA
ATOM     69  H   UNL     1      -3.490  -2.165  -1.514  0.00  0.00    +0.000 HD
ENDBRANCH  30  68
BRANCH   1  70
ATOM     70  O   UNL     1       0.415   1.317   1.239  0.00  0.00    +0.000 OA
BRANCH  70  71
ATOM     71  C   UNL     1      -0.328   2.499   0.956  0.00  0.00    +0.000 C 
ATOM     72  H   UNL     1      -0.186   2.866  -0.065  0.00  0.00    +0.000 HD
ATOM     73  H   UNL     1      -0.027   3.286   1.655  0.00  0.00    +0.000 HD
ATOM     74  H   UNL     1      -1.393   2.308   1.125  0.00  0.00    +0.000 HD
ENDBRANCH  70  71
ENDBRANCH   1  70
TORSDOF 7
