REMARK  Name = 
REMARK  8 active torsions:
REMARK  status: ('A' for Active; 'I' for Inactive)
REMARK    1  A    between atoms: C_1  and  C_2
REMARK    2  A    between atoms: C_2  and  N_3
REMARK    3  A    between atoms: N_3  and  C_4
REMARK    4  A    between atoms: N_3  and  C_5
REMARK    5  A    between atoms: N_3  and  C_6
REMARK    6  A    between atoms: C_10  and  C_11
REMARK    7  A    between atoms: C_12  and  O_13
REMARK    8  A    between atoms: O_13  and  C_14
REMARK                            x       y       z     vdW  Elec       q    Type
REMARK                         _______ _______ _______ _____ _____    ______ ____
ROOT
ATOM      1  C   UNL     1       2.442  -0.486   0.376  0.00  0.00    +0.000 C 
ATOM      2  C   UNL     1       1.717   0.573   1.156  0.00  0.00    +0.000 C 
ATOM      3  C   UNL     1       0.618  -0.082   1.981  0.00  0.00    +0.000 C 
ATOM      4  O   UNL     1       0.359  -1.444   1.673  0.00  0.00    +0.000 OA
ATOM      5  C   UNL     1       0.237  -1.810   0.287  0.00  0.00    +0.000 C 
ATOM      6  C   UNL     1       1.457  -1.254  -0.560  0.00  0.00    +0.000 C 
ATOM      7  N   UNL     1      -1.086  -1.457  -0.180  0.00  0.00    +0.000 N 
ATOM      8  C   UNL     1      -1.803  -1.939  -1.311  0.00  0.00    +0.000 A 
ATOM      9  C   UNL     1      -1.529  -3.009  -2.184  0.00  0.00    +0.000 A 
ATOM     10  C   UNL     1      -2.201  -3.098  -3.407  0.00  0.00    +0.000 A 
ATOM     11  C   UNL     1      -3.142  -2.148  -3.774  0.00  0.00    +0.000 A 
ATOM     12  C   UNL     1      -3.556  -1.178  -2.858  0.00  0.00    +0.000 A 
ATOM     13  C   UNL     1      -2.948  -1.098  -1.583  0.00  0.00    +0.000 A 
ATOM     14  C   UNL     1      -3.120  -0.280  -0.458  0.00  0.00    +0.000 A 
ATOM     15  C   UNL     1      -4.233   0.526  -0.151  0.00  0.00    +0.000 A 
ATOM     16  C   UNL     1      -3.912   1.603   0.721  0.00  0.00    +0.000 A 
ATOM     17  C   UNL     1      -2.563   1.608   1.091  0.00  0.00    +0.000 A 
ATOM     18  C   UNL     1      -1.759   2.675   1.560  0.00  0.00    +0.000 A 
ATOM     19  C   UNL     1      -1.700   4.074   1.385  0.00  0.00    +0.000 A 
ATOM     20  C   UNL     1      -0.655   4.803   1.974  0.00  0.00    +0.000 A 
ATOM     21  C   UNL     1       0.227   4.198   2.863  0.00  0.00    +0.000 A 
ATOM     22  C   UNL     1       0.211   2.820   3.049  0.00  0.00    +0.000 A 
ATOM     23  C   UNL     1      -0.662   2.060   2.252  0.00  0.00    +0.000 A 
ATOM     24  N   UNL     1      -0.575   0.700   1.904  0.00  0.00    +0.000 N 
ATOM     25  C   UNL     1      -1.657   0.557   1.123  0.00  0.00    +0.000 A 
ATOM     26  C   UNL     1      -1.914  -0.456   0.222  0.00  0.00    +0.000 A 
ATOM     27  C   UNL     1      -4.998   1.785   1.660  0.00  0.00    +0.000 C 
ATOM     28  O   UNL     1      -5.100   2.444   2.686  0.00  0.00    +0.000 OA
ATOM     29  N   UNL     1      -5.922   0.803   1.301  0.00  0.00    +0.000 N 
ATOM     30  C   UNL     1      -5.567  -0.029   0.159  0.00  0.00    +0.000 C 
ATOM     31  H   UNL     1       2.812  -1.209   1.114  0.00  0.00    +0.000 HD
ATOM     32  H   UNL     1       1.307   1.331   0.480  0.00  0.00    +0.000 HD
ATOM     33  H   UNL     1       2.371   1.124   1.838  0.00  0.00    +0.000 HD
ATOM     34  H   UNL     1       0.917  -0.083   3.035  0.00  0.00    +0.000 HD
ATOM     35  H   UNL     1       2.009  -2.152  -0.842  0.00  0.00    +0.000 HD
ATOM     36  H   UNL     1      -0.791  -3.768  -1.963  0.00  0.00    +0.000 HD
ATOM     37  H   UNL     1      -1.955  -3.906  -4.094  0.00  0.00    +0.000 HD
ATOM     38  H   UNL     1      -3.570  -2.172  -4.775  0.00  0.00    +0.000 HD
ATOM     39  H   UNL     1      -4.292  -0.437  -3.166  0.00  0.00    +0.000 HD
ATOM     40  H   UNL     1      -2.369   4.568   0.685  0.00  0.00    +0.000 HD
ATOM     41  H   UNL     1      -0.536   5.860   1.745  0.00  0.00    +0.000 HD
ATOM     42  H   UNL     1       0.960   4.799   3.395  0.00  0.00    +0.000 HD
ATOM     43  H   UNL     1       0.912   2.350   3.733  0.00  0.00    +0.000 HD
ATOM     44  H   UNL     1      -6.536   0.476   2.037  0.00  0.00    +0.000 HD
ATOM     45  H   UNL     1      -5.495  -1.072   0.490  0.00  0.00    +0.000 HD
ATOM     46  H   UNL     1      -6.302   0.100  -0.633  0.00  0.00    +0.000 HD
ENDROOT
BRANCH   5  47
ATOM     47  C   UNL     1       0.384  -3.349   0.417  0.00  0.00    +0.000 C 
ATOM     48  H   UNL     1      -0.530  -3.803   0.820  0.00  0.00    +0.000 HD
ATOM     49  H   UNL     1       1.193  -3.606   1.115  0.00  0.00    +0.000 HD
ATOM     50  H   UNL     1       0.625  -3.839  -0.529  0.00  0.00    +0.000 HD
ENDBRANCH   5  47
BRANCH   1  51
ATOM     51  N   UNL     1       3.754   0.071  -0.289  0.00  0.00    +0.000 N 
BRANCH  51  52
ATOM     52  C   UNL     1       3.519   1.294  -1.191  0.00  0.00    +0.000 C 
ATOM     53  H   UNL     1       4.492   1.639  -1.553  0.00  0.00    +0.000 HD
ATOM     54  H   UNL     1       2.912   1.010  -2.044  0.00  0.00    +0.000 HD
ATOM     55  H   UNL     1       3.046   2.090  -0.609  0.00  0.00    +0.000 HD
ENDBRANCH  51  52
BRANCH  51  56
ATOM     56  C   UNL     1       4.739   0.537   0.803  0.00  0.00    +0.000 C 
ATOM     57  H   UNL     1       5.725   0.665   0.348  0.00  0.00    +0.000 HD
ATOM     58  H   UNL     1       4.768  -0.213   1.597  0.00  0.00    +0.000 HD
ATOM     59  H   UNL     1       4.397   1.495   1.204  0.00  0.00    +0.000 HD
ENDBRANCH  51  56
BRANCH  51  60
ATOM     60  C   UNL     1       4.432  -1.020  -1.153  0.00  0.00    +0.000 C 
ATOM     61  H   UNL     1       3.768  -1.242  -1.993  0.00  0.00    +0.000 HD
ATOM     62  H   UNL     1       5.351  -0.582  -1.558  0.00  0.00    +0.000 HD
BRANCH  60  63
ATOM     63  C   UNL     1       4.758  -2.281  -0.362  0.00  0.00    +0.000 C 
ATOM     64  H   UNL     1       5.440  -2.078   0.467  0.00  0.00    +0.000 HD
ATOM     65  H   UNL     1       5.242  -3.008  -1.021  0.00  0.00    +0.000 HD
ATOM     66  H   UNL     1       3.872  -2.774   0.048  0.00  0.00    +0.000 HD
ENDBRANCH  60  63
ENDBRANCH  51  60
ENDBRANCH   1  51
BRANCH   6  67
ATOM     67  O   UNL     1       1.274  -0.673  -1.857  0.00  0.00    +0.000 OA
BRANCH  67  68
ATOM     68  C   UNL     1       0.356   0.381  -2.093  0.00  0.00    +0.000 C 
ATOM     69  H   UNL     1       0.038   0.899  -1.193  0.00  0.00    +0.000 HD
ATOM     70  H   UNL     1      -0.498   0.005  -2.660  0.00  0.00    +0.000 HD
ATOM     71  H   UNL     1       0.836   1.114  -2.749  0.00  0.00    +0.000 HD
ENDBRANCH  67  68
ENDBRANCH   6  67
TORSDOF 8
