REMARK  Name = 
REMARK  13 active torsions:
REMARK  status: ('A' for Active; 'I' for Inactive)
REMARK    1  A    between atoms: C_2  and  C_36
REMARK    2  A    between atoms: N_3  and  C_4
REMARK    3  A    between atoms: C_12  and  O_13
REMARK    4  A    between atoms: O_13  and  C_14
REMARK    5  A    between atoms: C_14  and  C_16
REMARK    6  A    between atoms: C_18  and  O_19
REMARK    7  A    between atoms: C_20  and  C_21
REMARK    8  A    between atoms: C_21  and  C_23
REMARK    9  A    between atoms: C_24  and  O_25
REMARK   10  A    between atoms: C_29  and  C_30
REMARK   11  A    between atoms: C_30  and  O_32
REMARK   12  A    between atoms: C_33  and  O_34
REMARK   13  A    between atoms: C_39  and  O_40
REMARK                            x       y       z     vdW  Elec       q    Type
REMARK                         _______ _______ _______ _____ _____    ______ ____
ROOT
ATOM      1  C   UNL     1       1.226   0.249   3.119  0.00  0.00    +0.000 C 
ATOM      2  C   UNL     1       2.281   0.464   4.237  0.00  0.00    +0.000 C 
ATOM      3  N   UNL     1       3.506  -0.365   4.233  0.00  0.00    +0.000 NA
ATOM      4  C   UNL     1       3.382  -1.580   5.041  0.00  0.00    +0.000 C 
ATOM      5  C   UNL     1       2.408  -2.610   4.464  0.00  0.00    +0.000 C 
ATOM      6  C   UNL     1       1.955  -2.277   3.029  0.00  0.00    +0.000 C 
ATOM      7  C   UNL     1       3.198  -1.843   2.223  0.00  0.00    +0.000 C 
ATOM      8  C   UNL     1       3.996  -0.709   2.897  0.00  0.00    +0.000 C 
ATOM      9  C   UNL     1       0.798  -1.240   3.067  0.00  0.00    +0.000 C 
ATOM     10  H   UNL     1       0.342   0.853   3.360  0.00  0.00    +0.000 HD
ATOM     11  H   UNL     1       1.771   0.340   5.203  0.00  0.00    +0.000 HD
ATOM     12  H   UNL     1       2.602   1.510   4.233  0.00  0.00    +0.000 HD
ATOM     13  H   UNL     1       3.108  -1.334   6.074  0.00  0.00    +0.000 HD
ATOM     14  H   UNL     1       4.376  -2.042   5.122  0.00  0.00    +0.000 HD
ATOM     15  H   UNL     1       1.541  -2.715   5.126  0.00  0.00    +0.000 HD
ATOM     16  H   UNL     1       2.905  -3.589   4.458  0.00  0.00    +0.000 HD
ATOM     17  H   UNL     1       1.563  -3.196   2.573  0.00  0.00    +0.000 HD
ATOM     18  H   UNL     1       2.930  -1.574   1.197  0.00  0.00    +0.000 HD
ATOM     19  H   UNL     1       3.863  -2.711   2.130  0.00  0.00    +0.000 HD
ATOM     20  H   UNL     1       4.062   0.178   2.259  0.00  0.00    +0.000 HD
ATOM     21  H   UNL     1       5.041  -1.034   2.989  0.00  0.00    +0.000 HD
ATOM     22  H   UNL     1       0.194  -1.430   3.963  0.00  0.00    +0.000 HD
ENDROOT
BRANCH   1  25
ATOM     23  O   UNL     1       1.991   2.938   2.276  0.00  0.00    +0.000 OA
ATOM     24  C   UNL     1       2.038   2.005   1.487  0.00  0.00    +0.000 C 
ATOM     25  N   UNL     1       1.633   0.724   1.783  0.00  0.00    +0.000 N 
ATOM     26  H   UNL     1       1.684   0.019   1.064  0.00  0.00    +0.000 HD
BRANCH  24  27
ATOM     27  C   UNL     1       2.641   2.183   0.130  0.00  0.00    +0.000 A 
ATOM     28  C   UNL     1       3.692   3.099  -0.017  0.00  0.00    +0.000 A 
ATOM     29  C   UNL     1       4.349   3.230  -1.246  0.00  0.00    +0.000 A 
ATOM     30  C   UNL     1       3.945   2.449  -2.324  0.00  0.00    +0.000 A 
ATOM     31  C   UNL     1       2.888   1.556  -2.200  0.00  0.00    +0.000 A 
ATOM     32  C   UNL     1       2.230   1.425  -0.975  0.00  0.00    +0.000 A 
ATOM     33  H   UNL     1       4.017   3.695   0.834  0.00  0.00    +0.000 HD
ATOM     34  H   UNL     1       5.171   3.934  -1.336  0.00  0.00    +0.000 HD
ATOM     35  H   UNL     1       2.580   0.959  -3.054  0.00  0.00    +0.000 HD
ATOM     36  H   UNL     1       1.395   0.736  -0.909  0.00  0.00    +0.000 HD
BRANCH  30  37
ATOM     37  O   UNL     1       4.566   2.526  -3.535  0.00  0.00    +0.000 OA
ATOM     38  H   UNL     1       5.297   3.163  -3.472  0.00  0.00    +0.000 HD
ENDBRANCH  30  37
ENDBRANCH  24  27
ENDBRANCH   1  25
BRANCH   9  39
ATOM     39  O   UNL     1      -0.031  -1.396   1.886  0.00  0.00    +0.000 OA
BRANCH  39  40
ATOM     40  C   UNL     1      -1.318  -1.781   2.089  0.00  0.00    +0.000 C 
ATOM     41  O   UNL     1      -1.761  -2.325   3.086  0.00  0.00    +0.000 OA
BRANCH  40  42
ATOM     42  C   UNL     1      -2.167  -1.321   0.956  0.00  0.00    +0.000 A 
ATOM     43  C   UNL     1      -3.546  -1.562   0.994  0.00  0.00    +0.000 A 
ATOM     44  C   UNL     1      -4.369  -1.061  -0.021  0.00  0.00    +0.000 A 
ATOM     45  C   UNL     1      -3.835  -0.308  -1.085  0.00  0.00    +0.000 A 
ATOM     46  C   UNL     1      -2.459  -0.046  -1.085  0.00  0.00    +0.000 A 
ATOM     47  C   UNL     1      -1.631  -0.567  -0.095  0.00  0.00    +0.000 A 
ATOM     48  H   UNL     1      -3.967  -2.138   1.815  0.00  0.00    +0.000 HD
ATOM     49  H   UNL     1      -0.571  -0.351  -0.135  0.00  0.00    +0.000 HD
BRANCH  44  50
ATOM     50  O   UNL     1      -5.711  -1.323   0.036  0.00  0.00    +0.000 OA
ATOM     51  H   UNL     1      -5.943  -1.731   0.885  0.00  0.00    +0.000 HD
ENDBRANCH  44  50
BRANCH  45  52
ATOM     52  C   UNL     1      -4.733   0.224  -2.144  0.00  0.00    +0.000 C 
ATOM     53  O   UNL     1      -5.816   0.718  -1.811  0.00  0.00    +0.000 OA
BRANCH  52  54
ATOM     54  C   UNL     1      -4.327   0.397  -3.572  0.00  0.00    +0.000 A 
ATOM     55  C   UNL     1      -4.816   1.548  -4.232  0.00  0.00    +0.000 A 
ATOM     56  C   UNL     1      -4.429   1.875  -5.527  0.00  0.00    +0.000 A 
ATOM     57  C   UNL     1      -3.541   1.058  -6.210  0.00  0.00    +0.000 A 
ATOM     58  C   UNL     1      -3.059  -0.099  -5.600  0.00  0.00    +0.000 A 
ATOM     59  C   UNL     1      -3.441  -0.435  -4.283  0.00  0.00    +0.000 A 
ATOM     60  H   UNL     1      -4.828   2.770  -5.999  0.00  0.00    +0.000 HD
ATOM     61  H   UNL     1      -3.242   1.311  -7.226  0.00  0.00    +0.000 HD
ATOM     62  H   UNL     1      -2.401  -0.746  -6.179  0.00  0.00    +0.000 HD
BRANCH  55  63
ATOM     63  O   UNL     1      -5.684   2.437  -3.643  0.00  0.00    +0.000 OA
ATOM     64  H   UNL     1      -6.062   2.011  -2.839  0.00  0.00    +0.000 HD
ENDBRANCH  55  63
BRANCH  59  65
ATOM     65  C   UNL     1      -2.918  -1.709  -3.728  0.00  0.00    +0.000 C 
ATOM     66  O   UNL     1      -3.589  -2.462  -3.046  0.00  0.00    +0.000 OA
BRANCH  65  67
ATOM     67  O   UNL     1      -1.624  -1.952  -4.032  0.00  0.00    +0.000 OA
ATOM     68  H   UNL     1      -1.135  -1.226  -4.461  0.00  0.00    +0.000 HD
ENDBRANCH  65  67
ENDBRANCH  59  65
ENDBRANCH  52  54
ENDBRANCH  45  52
BRANCH  46  69
ATOM     69  O   UNL     1      -1.814   0.740  -2.008  0.00  0.00    +0.000 OA
ATOM     70  H   UNL     1      -2.401   1.460  -2.287  0.00  0.00    +0.000 HD
ENDBRANCH  46  69
ENDBRANCH  40  42
ENDBRANCH  39  40
ENDBRANCH   9  39
TORSDOF 13
