MODEL 1
REMARK VINA RESULT:   -11.870      0.000      0.000
REMARK INTER + INTRA:         -15.694
REMARK INTER:                 -15.339
REMARK INTRA:                  -0.354
REMARK UNBOUND:                -0.354
REMARK  Name = 
REMARK  6 active torsions:
REMARK  status: ('A' for Active; 'I' for Inactive)
REMARK    1  A    between atoms: C_1  and  N_2
REMARK    2  A    between atoms: N_5  and  C_6
REMARK    3  A    between atoms: C_6  and  C_7
REMARK    4  A    between atoms: C_7  and  C_8
REMARK    5  A    between atoms: C_8  and  C_9
REMARK    6  A    between atoms: N_23  and  C_24
REMARK                            x       y       z     vdW  Elec       q    Type
REMARK                         _______ _______ _______ _____ _____    ______ ____
ROOT
ATOM      1  C   UNL     1     -10.866  -4.645  15.825  0.00  0.00    +0.000 A 
ATOM      2  C   UNL     1     -10.738  -3.647  16.806  0.00  0.00    +0.000 A 
ATOM      3  C   UNL     1     -10.317  -3.878  18.108  0.00  0.00    +0.000 A 
ATOM      4  C   UNL     1      -9.959  -5.151  18.503  0.00  0.00    +0.000 A 
ATOM      5  C   UNL     1      -9.999  -6.198  17.574  0.00  0.00    +0.000 A 
ATOM      6  C   UNL     1     -10.438  -5.914  16.262  0.00  0.00    +0.000 A 
ATOM      7  N   UNL     1     -10.359  -7.101  15.551  0.00  0.00    +0.000 N 
ATOM      8  C   UNL     1      -9.860  -8.132  16.318  0.00  0.00    +0.000 A 
ATOM      9  C   UNL     1      -9.506  -9.464  16.038  0.00  0.00    +0.000 A 
ATOM     10  C   UNL     1      -9.620  -9.828  14.698  0.00  0.00    +0.000 A 
ATOM     11  C   UNL     1      -9.156 -11.058  14.300  0.00  0.00    +0.000 A 
ATOM     12  C   UNL     1      -8.790 -11.994  15.270  0.00  0.00    +0.000 A 
ATOM     13  C   UNL     1      -8.332 -13.316  15.112  0.00  0.00    +0.000 A 
ATOM     14  C   UNL     1      -8.846 -13.926  16.217  0.00  0.00    +0.000 A 
ATOM     15  N   UNL     1      -8.676 -12.974  17.211  0.00  0.00    +0.000 N 
ATOM     16  C   UNL     1      -8.838 -11.701  16.664  0.00  0.00    +0.000 A 
ATOM     17  C   UNL     1      -9.028 -10.337  17.084  0.00  0.00    +0.000 A 
ATOM     18  C   UNL     1      -8.853  -9.698  18.338  0.00  0.00    +0.000 A 
ATOM     19  C   UNL     1      -9.187  -8.323  18.618  0.00  0.00    +0.000 A 
ATOM     20  C   UNL     1      -9.700  -7.561  17.540  0.00  0.00    +0.000 A 
ATOM     21  C   UNL     1      -8.861  -7.992  19.974  0.00  0.00    +0.000 C 
ATOM     22  O   UNL     1      -8.834  -6.975  20.644  0.00  0.00    +0.000 OA
ATOM     23  N   UNL     1      -8.441  -9.188  20.468  0.00  0.00    +0.000 N 
ATOM     24  C   UNL     1      -8.210 -10.170  19.541  0.00  0.00    +0.000 C 
ATOM     25  O   UNL     1      -7.485 -11.116  19.818  0.00  0.00    +0.000 OA
ATOM     26  H   UNL     1     -10.961  -2.616  16.606  0.00  0.00    +0.000 HD
ATOM     27  H   UNL     1     -10.283  -3.056  18.815  0.00  0.00    +0.000 HD
ATOM     28  H   UNL     1      -9.639  -5.274  19.540  0.00  0.00    +0.000 HD
ATOM     29  H   UNL     1     -10.612  -7.194  14.575  0.00  0.00    +0.000 HD
ATOM     30  H   UNL     1     -10.017  -9.169  13.935  0.00  0.00    +0.000 HD
ATOM     31  H   UNL     1      -9.181 -11.343  13.252  0.00  0.00    +0.000 HD
ATOM     32  H   UNL     1      -7.969 -13.804  14.221  0.00  0.00    +0.000 HD
ATOM     33  H   UNL     1      -9.022 -14.969  16.446  0.00  0.00    +0.000 HD
ATOM     34  H   UNL     1      -8.011  -9.217  21.378  0.00  0.00    +0.000 HD
ENDROOT
BRANCH  15  35
ATOM     35  C   UNL     1      -8.135 -13.483  18.445  0.00  0.00    +0.000 C 
ATOM     36  H   UNL     1      -8.605 -14.397  18.759  0.00  0.00    +0.000 HD
ATOM     37  H   UNL     1      -8.196 -12.661  19.168  0.00  0.00    +0.000 HD
ATOM     38  H   UNL     1      -7.073 -13.712  18.291  0.00  0.00    +0.000 HD
ENDBRANCH  15  35
BRANCH   1  39
ATOM     39  C   UNL     1     -11.461  -4.384  14.450  0.00  0.00    +0.000 C 
ATOM     40  H   UNL     1     -11.969  -5.304  14.126  0.00  0.00    +0.000 HD
ATOM     41  H   UNL     1     -12.243  -3.620  14.543  0.00  0.00    +0.000 HD
BRANCH  39  42
ATOM     42  C   UNL     1     -10.492  -4.003  13.314  0.00  0.00    +0.000 C 
ATOM     43  H   UNL     1      -9.539  -3.746  13.784  0.00  0.00    +0.000 HD
ATOM     44  H   UNL     1     -10.312  -4.896  12.700  0.00  0.00    +0.000 HD
BRANCH  42  45
ATOM     45  C   UNL     1     -11.011  -2.899  12.372  0.00  0.00    +0.000 C 
ATOM     46  H   UNL     1     -11.276  -2.036  12.996  0.00  0.00    +0.000 HD
ATOM     47  H   UNL     1     -10.222  -2.501  11.744  0.00  0.00    +0.000 HD
BRANCH  45  51
ATOM     48  N   UNL     1     -12.291  -1.694   8.948  0.00  0.00    +0.000 NA
ATOM     49  C   UNL     1     -11.374  -2.831   9.128  0.00  0.00    +0.000 C 
ATOM     50  C   UNL     1     -11.903  -3.807  10.205  0.00  0.00    +0.000 C 
ATOM     51  N   UNL     1     -12.179  -3.223  11.536  0.00  0.00    +0.000 NA
ATOM     52  C   UNL     1     -13.012  -2.005  11.338  0.00  0.00    +0.000 C 
ATOM     53  C   UNL     1     -12.511  -1.021  10.239  0.00  0.00    +0.000 C 
ATOM     54  H   UNL     1     -10.369  -2.487   9.388  0.00  0.00    +0.000 HD
ATOM     55  H   UNL     1     -11.281  -3.379   8.183  0.00  0.00    +0.000 HD
ATOM     56  H   UNL     1     -11.246  -4.679  10.271  0.00  0.00    +0.000 HD
ATOM     57  H   UNL     1     -12.849  -4.223   9.834  0.00  0.00    +0.000 HD
ATOM     58  H   UNL     1     -13.116  -1.462  12.285  0.00  0.00    +0.000 HD
ATOM     59  H   UNL     1     -14.025  -2.333  11.070  0.00  0.00    +0.000 HD
ATOM     60  H   UNL     1     -11.590  -0.526  10.573  0.00  0.00    +0.000 HD
ATOM     61  H   UNL     1     -13.267  -0.236  10.116  0.00  0.00    +0.000 HD
BRANCH  48  62
ATOM     62  C   UNL     1     -11.815  -0.772   7.923  0.00  0.00    +0.000 C 
ATOM     63  H   UNL     1     -10.902  -1.159   7.455  0.00  0.00    +0.000 HD
ATOM     64  H   UNL     1     -11.601   0.226   8.319  0.00  0.00    +0.000 HD
ATOM     65  H   UNL     1     -12.556  -0.675   7.122  0.00  0.00    +0.000 HD
ENDBRANCH  48  62
ENDBRANCH  45  51
ENDBRANCH  42  45
ENDBRANCH  39  42
ENDBRANCH   1  39
TORSDOF 6
ENDMDL
MODEL 2
REMARK VINA RESULT:   -11.734      0.977      1.377
REMARK INTER + INTRA:         -15.518
REMARK INTER:                 -15.064
REMARK INTRA:                  -0.454
REMARK UNBOUND:                -0.354
REMARK  Name = 
REMARK  6 active torsions:
REMARK  status: ('A' for Active; 'I' for Inactive)
REMARK    1  A    between atoms: C_1  and  N_2
REMARK    2  A    between atoms: N_5  and  C_6
REMARK    3  A    between atoms: C_6  and  C_7
REMARK    4  A    between atoms: C_7  and  C_8
REMARK    5  A    between atoms: C_8  and  C_9
REMARK    6  A    between atoms: N_23  and  C_24
REMARK                            x       y       z     vdW  Elec       q    Type
REMARK                         _______ _______ _______ _____ _____    ______ ____
ROOT
ATOM      1  C   UNL     1     -10.883  -4.631  15.762  0.00  0.00    +0.000 A 
ATOM      2  C   UNL     1     -10.758  -3.615  16.724  0.00  0.00    +0.000 A 
ATOM      3  C   UNL     1     -10.336  -3.822  18.030  0.00  0.00    +0.000 A 
ATOM      4  C   UNL     1      -9.973  -5.086  18.448  0.00  0.00    +0.000 A 
ATOM      5  C   UNL     1     -10.010  -6.150  17.537  0.00  0.00    +0.000 A 
ATOM      6  C   UNL     1     -10.450  -5.891  16.221  0.00  0.00    +0.000 A 
ATOM      7  N   UNL     1     -10.367  -7.090  15.531  0.00  0.00    +0.000 N 
ATOM      8  C   UNL     1      -9.864  -8.105  16.316  0.00  0.00    +0.000 A 
ATOM      9  C   UNL     1      -9.505  -9.440  16.060  0.00  0.00    +0.000 A 
ATOM     10  C   UNL     1      -9.619  -9.829  14.727  0.00  0.00    +0.000 A 
ATOM     11  C   UNL     1      -9.150 -11.065  14.350  0.00  0.00    +0.000 A 
ATOM     12  C   UNL     1      -8.780 -11.982  15.337  0.00  0.00    +0.000 A 
ATOM     13  C   UNL     1      -8.318 -13.305  15.203  0.00  0.00    +0.000 A 
ATOM     14  C   UNL     1      -8.830 -13.896  16.318  0.00  0.00    +0.000 A 
ATOM     15  N   UNL     1      -8.662 -12.926  17.295  0.00  0.00    +0.000 N 
ATOM     16  C   UNL     1      -8.829 -11.664  16.726  0.00  0.00    +0.000 A 
ATOM     17  C   UNL     1      -9.024 -10.293  17.121  0.00  0.00    +0.000 A 
ATOM     18  C   UNL     1      -8.851  -9.631  18.363  0.00  0.00    +0.000 A 
ATOM     19  C   UNL     1      -9.190  -8.253  18.619  0.00  0.00    +0.000 A 
ATOM     20  C   UNL     1      -9.705  -7.512  17.528  0.00  0.00    +0.000 A 
ATOM     21  C   UNL     1      -8.865  -7.896  19.969  0.00  0.00    +0.000 C 
ATOM     22  O   UNL     1      -8.841  -6.868  20.621  0.00  0.00    +0.000 OA
ATOM     23  N   UNL     1      -8.440  -9.082  20.484  0.00  0.00    +0.000 N 
ATOM     24  C   UNL     1      -8.207 -10.080  19.575  0.00  0.00    +0.000 C 
ATOM     25  O   UNL     1      -7.478 -11.018  19.868  0.00  0.00    +0.000 OA
ATOM     26  H   UNL     1     -10.984  -2.589  16.506  0.00  0.00    +0.000 HD
ATOM     27  H   UNL     1     -10.305  -2.987  18.722  0.00  0.00    +0.000 HD
ATOM     28  H   UNL     1      -9.653  -5.190  19.486  0.00  0.00    +0.000 HD
ATOM     29  H   UNL     1     -10.620  -7.201  14.557  0.00  0.00    +0.000 HD
ATOM     30  H   UNL     1     -10.017  -9.185  13.952  0.00  0.00    +0.000 HD
ATOM     31  H   UNL     1      -9.174 -11.368  13.308  0.00  0.00    +0.000 HD
ATOM     32  H   UNL     1      -7.953 -13.807  14.320  0.00  0.00    +0.000 HD
ATOM     33  H   UNL     1      -9.002 -14.936  16.566  0.00  0.00    +0.000 HD
ATOM     34  H   UNL     1      -8.011  -9.094  21.394  0.00  0.00    +0.000 HD
ENDROOT
BRANCH  15  35
ATOM     35  C   UNL     1      -8.120 -13.412  18.538  0.00  0.00    +0.000 C 
ATOM     36  H   UNL     1      -8.784 -13.261  19.368  0.00  0.00    +0.000 HD
ATOM     37  H   UNL     1      -7.134 -12.943  18.646  0.00  0.00    +0.000 HD
ATOM     38  H   UNL     1      -7.966 -14.495  18.450  0.00  0.00    +0.000 HD
ENDBRANCH  15  35
BRANCH   1  39
ATOM     39  C   UNL     1     -11.479  -4.397  14.382  0.00  0.00    +0.000 C 
ATOM     40  H   UNL     1     -12.013  -5.312  14.089  0.00  0.00    +0.000 HD
ATOM     41  H   UNL     1     -12.240  -3.610  14.455  0.00  0.00    +0.000 HD
BRANCH  39  42
ATOM     42  C   UNL     1     -10.507  -4.077  13.230  0.00  0.00    +0.000 C 
ATOM     43  H   UNL     1      -9.546  -4.526  13.492  0.00  0.00    +0.000 HD
ATOM     44  H   UNL     1     -10.861  -4.592  12.326  0.00  0.00    +0.000 HD
BRANCH  42  45
ATOM     45  C   UNL     1     -10.391  -2.579  12.885  0.00  0.00    +0.000 C 
ATOM     46  H   UNL     1     -11.047  -2.035  13.577  0.00  0.00    +0.000 HD
ATOM     47  H   UNL     1      -9.413  -2.183  13.129  0.00  0.00    +0.000 HD
BRANCH  45  51
ATOM     48  N   UNL     1     -13.325  -0.628  11.337  0.00  0.00    +0.000 NA
ATOM     49  C   UNL     1     -12.085  -0.000  11.819  0.00  0.00    +0.000 C 
ATOM     50  C   UNL     1     -10.840  -0.721  11.254  0.00  0.00    +0.000 C 
ATOM     51  N   UNL     1     -10.752  -2.175  11.516  0.00  0.00    +0.000 NA
ATOM     52  C   UNL     1     -12.053  -2.788  11.134  0.00  0.00    +0.000 C 
ATOM     53  C   UNL     1     -13.321  -2.061  11.672  0.00  0.00    +0.000 C 
ATOM     54  H   UNL     1     -12.052   0.014  12.913  0.00  0.00    +0.000 HD
ATOM     55  H   UNL     1     -12.054   1.047  11.493  0.00  0.00    +0.000 HD
ATOM     56  H   UNL     1      -9.932  -0.196  11.565  0.00  0.00    +0.000 HD
ATOM     57  H   UNL     1     -10.853  -0.592  10.163  0.00  0.00    +0.000 HD
ATOM     58  H   UNL     1     -12.082  -3.839  11.449  0.00  0.00    +0.000 HD
ATOM     59  H   UNL     1     -12.106  -2.806  10.038  0.00  0.00    +0.000 HD
ATOM     60  H   UNL     1     -13.399  -2.200  12.758  0.00  0.00    +0.000 HD
ATOM     61  H   UNL     1     -14.202  -2.541  11.227  0.00  0.00    +0.000 HD
BRANCH  48  62
ATOM     62  C   UNL     1     -14.510   0.052  11.849  0.00  0.00    +0.000 C 
ATOM     63  H   UNL     1     -14.592   1.056  11.417  0.00  0.00    +0.000 HD
ATOM     64  H   UNL     1     -14.504   0.147  12.940  0.00  0.00    +0.000 HD
ATOM     65  H   UNL     1     -15.417  -0.487  11.553  0.00  0.00    +0.000 HD
ENDBRANCH  48  62
ENDBRANCH  45  51
ENDBRANCH  42  45
ENDBRANCH  39  42
ENDBRANCH   1  39
TORSDOF 6
ENDMDL
MODEL 3
REMARK VINA RESULT:   -11.545      1.944      2.707
REMARK INTER + INTRA:         -15.274
REMARK INTER:                 -14.747
REMARK INTRA:                  -0.527
REMARK UNBOUND:                -0.354
REMARK  Name = 
REMARK  6 active torsions:
REMARK  status: ('A' for Active; 'I' for Inactive)
REMARK    1  A    between atoms: C_1  and  N_2
REMARK    2  A    between atoms: N_5  and  C_6
REMARK    3  A    between atoms: C_6  and  C_7
REMARK    4  A    between atoms: C_7  and  C_8
REMARK    5  A    between atoms: C_8  and  C_9
REMARK    6  A    between atoms: N_23  and  C_24
REMARK                            x       y       z     vdW  Elec       q    Type
REMARK                         _______ _______ _______ _____ _____    ______ ____
ROOT
ATOM      1  C   UNL     1     -10.835  -4.631  15.740  0.00  0.00    +0.000 A 
ATOM      2  C   UNL     1     -10.694  -3.615  16.700  0.00  0.00    +0.000 A 
ATOM      3  C   UNL     1     -10.269  -3.825  18.005  0.00  0.00    +0.000 A 
ATOM      4  C   UNL     1      -9.920  -5.093  18.423  0.00  0.00    +0.000 A 
ATOM      5  C   UNL     1      -9.973  -6.158  17.515  0.00  0.00    +0.000 A 
ATOM      6  C   UNL     1     -10.415  -5.896  16.200  0.00  0.00    +0.000 A 
ATOM      7  N   UNL     1     -10.350  -7.097  15.511  0.00  0.00    +0.000 N 
ATOM      8  C   UNL     1      -9.856  -8.117  16.296  0.00  0.00    +0.000 A 
ATOM      9  C   UNL     1      -9.515  -9.457  16.040  0.00  0.00    +0.000 A 
ATOM     10  C   UNL     1      -9.638  -9.846  14.708  0.00  0.00    +0.000 A 
ATOM     11  C   UNL     1      -9.186 -11.088  14.332  0.00  0.00    +0.000 A 
ATOM     12  C   UNL     1      -8.824 -12.007  15.319  0.00  0.00    +0.000 A 
ATOM     13  C   UNL     1      -8.378 -13.337  15.184  0.00  0.00    +0.000 A 
ATOM     14  C   UNL     1      -8.892 -13.920  16.303  0.00  0.00    +0.000 A 
ATOM     15  N   UNL     1      -8.709 -12.951  17.277  0.00  0.00    +0.000 N 
ATOM     16  C   UNL     1      -8.863 -11.687  16.707  0.00  0.00    +0.000 A 
ATOM     17  C   UNL     1      -9.039 -10.314  17.100  0.00  0.00    +0.000 A 
ATOM     18  C   UNL     1      -8.853  -9.652  18.341  0.00  0.00    +0.000 A 
ATOM     19  C   UNL     1      -9.174  -8.269  18.596  0.00  0.00    +0.000 A 
ATOM     20  C   UNL     1      -9.685  -7.524  17.506  0.00  0.00    +0.000 A 
ATOM     21  C   UNL     1      -8.840  -7.914  19.944  0.00  0.00    +0.000 C 
ATOM     22  O   UNL     1      -8.801  -6.885  20.594  0.00  0.00    +0.000 OA
ATOM     23  N   UNL     1      -8.427  -9.105  20.460  0.00  0.00    +0.000 N 
ATOM     24  C   UNL     1      -8.210 -10.106  19.551  0.00  0.00    +0.000 C 
ATOM     25  O   UNL     1      -7.491 -11.053  19.843  0.00  0.00    +0.000 OA
ATOM     26  H   UNL     1     -10.908  -2.587  16.481  0.00  0.00    +0.000 HD
ATOM     27  H   UNL     1     -10.225  -2.990  18.696  0.00  0.00    +0.000 HD
ATOM     28  H   UNL     1      -9.597  -5.199  19.460  0.00  0.00    +0.000 HD
ATOM     29  H   UNL     1     -10.608  -7.206  14.538  0.00  0.00    +0.000 HD
ATOM     30  H   UNL     1     -10.032  -9.198  13.934  0.00  0.00    +0.000 HD
ATOM     31  H   UNL     1      -9.218 -11.392  13.290  0.00  0.00    +0.000 HD
ATOM     32  H   UNL     1      -8.023 -13.844  14.301  0.00  0.00    +0.000 HD
ATOM     33  H   UNL     1      -9.077 -14.957  16.553  0.00  0.00    +0.000 HD
ATOM     34  H   UNL     1      -7.994  -9.120  21.367  0.00  0.00    +0.000 HD
ENDROOT
BRANCH  15  35
ATOM     35  C   UNL     1      -8.168 -13.440  18.519  0.00  0.00    +0.000 C 
ATOM     36  H   UNL     1      -7.113 -13.261  18.612  0.00  0.00    +0.000 HD
ATOM     37  H   UNL     1      -8.464 -14.494  18.587  0.00  0.00    +0.000 HD
ATOM     38  H   UNL     1      -8.653 -12.904  19.345  0.00  0.00    +0.000 HD
ENDBRANCH  15  35
BRANCH   1  39
ATOM     39  C   UNL     1     -11.434  -4.392  14.362  0.00  0.00    +0.000 C 
ATOM     40  H   UNL     1     -10.707  -4.745  13.616  0.00  0.00    +0.000 HD
ATOM     41  H   UNL     1     -12.321  -5.027  14.248  0.00  0.00    +0.000 HD
BRANCH  39  42
ATOM     42  C   UNL     1     -11.779  -2.941  13.976  0.00  0.00    +0.000 C 
ATOM     43  H   UNL     1     -12.757  -2.965  13.490  0.00  0.00    +0.000 HD
ATOM     44  H   UNL     1     -11.899  -2.357  14.900  0.00  0.00    +0.000 HD
BRANCH  42  45
ATOM     45  C   UNL     1     -10.707  -2.231  13.126  0.00  0.00    +0.000 C 
ATOM     46  H   UNL     1      -9.729  -2.603  13.459  0.00  0.00    +0.000 HD
ATOM     47  H   UNL     1     -10.738  -2.548  12.090  0.00  0.00    +0.000 HD
BRANCH  45  51
ATOM     48  N   UNL     1      -8.312   0.344  14.689  0.00  0.00    +0.000 NA
ATOM     49  C   UNL     1      -8.169  -0.187  13.325  0.00  0.00    +0.000 C 
ATOM     50  C   UNL     1      -9.505  -0.100  12.551  0.00  0.00    +0.000 C 
ATOM     51  N   UNL     1     -10.669  -0.760  13.183  0.00  0.00    +0.000 NA
ATOM     52  C   UNL     1     -10.739  -0.307  14.599  0.00  0.00    +0.000 C 
ATOM     53  C   UNL     1      -9.397  -0.362  15.388  0.00  0.00    +0.000 C 
ATOM     54  H   UNL     1      -7.806  -1.220  13.341  0.00  0.00    +0.000 HD
ATOM     55  H   UNL     1      -7.418   0.398  12.781  0.00  0.00    +0.000 HD
ATOM     56  H   UNL     1      -9.360  -0.432  11.519  0.00  0.00    +0.000 HD
ATOM     57  H   UNL     1      -9.755   0.964  12.449  0.00  0.00    +0.000 HD
ATOM     58  H   UNL     1     -11.499  -0.884  15.142  0.00  0.00    +0.000 HD
ATOM     59  H   UNL     1     -11.097   0.730  14.601  0.00  0.00    +0.000 HD
ATOM     60  H   UNL     1      -9.116  -1.406  15.575  0.00  0.00    +0.000 HD
ATOM     61  H   UNL     1      -9.561   0.102  16.369  0.00  0.00    +0.000 HD
BRANCH  48  62
ATOM     62  C   UNL     1      -7.054   0.284  15.427  0.00  0.00    +0.000 C 
ATOM     63  H   UNL     1      -6.884  -0.728  15.811  0.00  0.00    +0.000 HD
ATOM     64  H   UNL     1      -7.026   0.981  16.271  0.00  0.00    +0.000 HD
ATOM     65  H   UNL     1      -6.212   0.510  14.764  0.00  0.00    +0.000 HD
ENDBRANCH  48  62
ENDBRANCH  45  51
ENDBRANCH  42  45
ENDBRANCH  39  42
ENDBRANCH   1  39
TORSDOF 6
ENDMDL
MODEL 4
REMARK VINA RESULT:   -11.538      4.062      7.763
REMARK INTER + INTRA:         -15.264
REMARK INTER:                 -14.984
REMARK INTRA:                  -0.280
REMARK UNBOUND:                -0.354
REMARK  Name = 
REMARK  6 active torsions:
REMARK  status: ('A' for Active; 'I' for Inactive)
REMARK    1  A    between atoms: C_1  and  N_2
REMARK    2  A    between atoms: N_5  and  C_6
REMARK    3  A    between atoms: C_6  and  C_7
REMARK    4  A    between atoms: C_7  and  C_8
REMARK    5  A    between atoms: C_8  and  C_9
REMARK    6  A    between atoms: N_23  and  C_24
REMARK                            x       y       z     vdW  Elec       q    Type
REMARK                         _______ _______ _______ _____ _____    ______ ____
ROOT
ATOM      1  C   UNL     1      -8.104  -3.315  21.051  0.00  0.00    +0.000 A 
ATOM      2  C   UNL     1      -8.739  -2.137  20.624  0.00  0.00    +0.000 A 
ATOM      3  C   UNL     1      -9.517  -2.038  19.479  0.00  0.00    +0.000 A 
ATOM      4  C   UNL     1      -9.736  -3.151  18.693  0.00  0.00    +0.000 A 
ATOM      5  C   UNL     1      -9.190  -4.383  19.075  0.00  0.00    +0.000 A 
ATOM      6  C   UNL     1      -8.403  -4.433  20.246  0.00  0.00    +0.000 A 
ATOM      7  N   UNL     1      -8.013  -5.753  20.408  0.00  0.00    +0.000 N 
ATOM      8  C   UNL     1      -8.532  -6.569  19.425  0.00  0.00    +0.000 A 
ATOM      9  C   UNL     1      -8.511  -7.959  19.210  0.00  0.00    +0.000 A 
ATOM     10  C   UNL     1      -7.891  -8.696  20.217  0.00  0.00    +0.000 A 
ATOM     11  C   UNL     1      -7.952 -10.067  20.173  0.00  0.00    +0.000 A 
ATOM     12  C   UNL     1      -8.434 -10.691  19.020  0.00  0.00    +0.000 A 
ATOM     13  C   UNL     1      -8.552 -12.063  18.725  0.00  0.00    +0.000 A 
ATOM     14  C   UNL     1      -8.328 -12.082  17.382  0.00  0.00    +0.000 A 
ATOM     15  N   UNL     1      -8.998 -10.953  16.934  0.00  0.00    +0.000 N 
ATOM     16  C   UNL     1      -8.909  -9.950  17.898  0.00  0.00    +0.000 A 
ATOM     17  C   UNL     1      -9.134  -8.535  18.042  0.00  0.00    +0.000 A 
ATOM     18  C   UNL     1      -9.834  -7.600  17.237  0.00  0.00    +0.000 A 
ATOM     19  C   UNL     1      -9.882  -6.178  17.474  0.00  0.00    +0.000 A 
ATOM     20  C   UNL     1      -9.195  -5.702  18.618  0.00  0.00    +0.000 A 
ATOM     21  C   UNL     1     -10.696  -5.530  16.490  0.00  0.00    +0.000 C 
ATOM     22  O   UNL     1     -11.138  -4.408  16.320  0.00  0.00    +0.000 OA
ATOM     23  N   UNL     1     -11.021  -6.561  15.662  0.00  0.00    +0.000 N 
ATOM     24  C   UNL     1     -10.737  -7.817  16.132  0.00  0.00    +0.000 C 
ATOM     25  O   UNL     1     -11.319  -8.789  15.670  0.00  0.00    +0.000 OA
ATOM     26  H   UNL     1      -8.664  -1.216  21.170  0.00  0.00    +0.000 HD
ATOM     27  H   UNL     1      -9.940  -1.079  19.199  0.00  0.00    +0.000 HD
ATOM     28  H   UNL     1     -10.352  -3.013  17.803  0.00  0.00    +0.000 HD
ATOM     29  H   UNL     1      -7.436  -6.084  21.171  0.00  0.00    +0.000 HD
ATOM     30  H   UNL     1      -7.397  -8.241  21.067  0.00  0.00    +0.000 HD
ATOM     31  H   UNL     1      -7.526 -10.663  20.976  0.00  0.00    +0.000 HD
ATOM     32  H   UNL     1      -8.498 -12.905  19.397  0.00  0.00    +0.000 HD
ATOM     33  H   UNL     1      -8.042 -12.882  16.712  0.00  0.00    +0.000 HD
ATOM     34  H   UNL     1     -11.714  -6.415  14.948  0.00  0.00    +0.000 HD
ENDROOT
BRANCH  15  35
ATOM     35  C   UNL     1      -9.810 -11.161  15.762  0.00  0.00    +0.000 C 
ATOM     36  H   UNL     1      -9.532 -10.522  14.945  0.00  0.00    +0.000 HD
ATOM     37  H   UNL     1     -10.851 -11.063  16.090  0.00  0.00    +0.000 HD
ATOM     38  H   UNL     1      -9.665 -12.193  15.418  0.00  0.00    +0.000 HD
ENDBRANCH  15  35
BRANCH   1  39
ATOM     39  C   UNL     1      -7.147  -3.360  22.233  0.00  0.00    +0.000 C 
ATOM     40  H   UNL     1      -6.953  -4.416  22.465  0.00  0.00    +0.000 HD
ATOM     41  H   UNL     1      -6.185  -2.933  21.924  0.00  0.00    +0.000 HD
BRANCH  39  42
ATOM     42  C   UNL     1      -7.609  -2.706  23.550  0.00  0.00    +0.000 C 
ATOM     43  H   UNL     1      -6.733  -2.647  24.199  0.00  0.00    +0.000 HD
ATOM     44  H   UNL     1      -7.914  -1.672  23.334  0.00  0.00    +0.000 HD
BRANCH  42  45
ATOM     45  C   UNL     1      -8.807  -3.402  24.225  0.00  0.00    +0.000 C 
ATOM     46  H   UNL     1      -9.340  -3.962  23.446  0.00  0.00    +0.000 HD
ATOM     47  H   UNL     1      -8.490  -4.186  24.902  0.00  0.00    +0.000 HD
BRANCH  45  51
ATOM     48  N   UNL     1     -10.936  -0.378  23.157  0.00  0.00    +0.000 NA
ATOM     49  C   UNL     1     -11.377  -1.776  23.037  0.00  0.00    +0.000 C 
ATOM     50  C   UNL     1     -11.165  -2.543  24.363  0.00  0.00    +0.000 C 
ATOM     51  N   UNL     1      -9.788  -2.540  24.906  0.00  0.00    +0.000 NA
ATOM     52  C   UNL     1      -9.303  -1.133  24.916  0.00  0.00    +0.000 C 
ATOM     53  C   UNL     1      -9.531  -0.335  23.597  0.00  0.00    +0.000 C 
ATOM     54  H   UNL     1     -10.858  -2.283  22.218  0.00  0.00    +0.000 HD
ATOM     55  H   UNL     1     -12.446  -1.803  22.792  0.00  0.00    +0.000 HD
ATOM     56  H   UNL     1     -11.566  -3.557  24.276  0.00  0.00    +0.000 HD
ATOM     57  H   UNL     1     -11.809  -2.074  25.119  0.00  0.00    +0.000 HD
ATOM     58  H   UNL     1      -8.237  -1.103  25.173  0.00  0.00    +0.000 HD
ATOM     59  H   UNL     1      -9.819  -0.607  25.730  0.00  0.00    +0.000 HD
ATOM     60  H   UNL     1      -8.872  -0.719  22.809  0.00  0.00    +0.000 HD
ATOM     61  H   UNL     1      -9.239   0.707  23.776  0.00  0.00    +0.000 HD
BRANCH  48  62
ATOM     62  C   UNL     1     -11.145   0.364  21.918  0.00  0.00    +0.000 C 
ATOM     63  H   UNL     1     -10.870   1.416  22.051  0.00  0.00    +0.000 HD
ATOM     64  H   UNL     1     -12.182   0.320  21.570  0.00  0.00    +0.000 HD
ATOM     65  H   UNL     1     -10.497  -0.027  21.126  0.00  0.00    +0.000 HD
ENDBRANCH  48  62
ENDBRANCH  45  51
ENDBRANCH  42  45
ENDBRANCH  39  42
ENDBRANCH   1  39
TORSDOF 6
ENDMDL
MODEL 5
REMARK VINA RESULT:   -10.077      3.825      9.795
REMARK INTER + INTRA:         -13.377
REMARK INTER:                 -12.849
REMARK INTRA:                  -0.527
REMARK UNBOUND:                -0.354
REMARK  Name = 
REMARK  6 active torsions:
REMARK  status: ('A' for Active; 'I' for Inactive)
REMARK    1  A    between atoms: C_1  and  N_2
REMARK    2  A    between atoms: N_5  and  C_6
REMARK    3  A    between atoms: C_6  and  C_7
REMARK    4  A    between atoms: C_7  and  C_8
REMARK    5  A    between atoms: C_8  and  C_9
REMARK    6  A    between atoms: N_23  and  C_24
REMARK                            x       y       z     vdW  Elec       q    Type
REMARK                         _______ _______ _______ _____ _____    ______ ____
ROOT
ATOM      1  C   UNL     1      -9.070  -7.001  17.729  0.00  0.00    +0.000 A 
ATOM      2  C   UNL     1      -8.342  -7.615  18.762  0.00  0.00    +0.000 A 
ATOM      3  C   UNL     1      -7.854  -6.950  19.878  0.00  0.00    +0.000 A 
ATOM      4  C   UNL     1      -8.102  -5.602  20.043  0.00  0.00    +0.000 A 
ATOM      5  C   UNL     1      -8.871  -4.920  19.091  0.00  0.00    +0.000 A 
ATOM      6  C   UNL     1      -9.342  -5.639  17.971  0.00  0.00    +0.000 A 
ATOM      7  N   UNL     1     -10.084  -4.749  17.210  0.00  0.00    +0.000 N 
ATOM      8  C   UNL     1     -10.149  -3.501  17.792  0.00  0.00    +0.000 A 
ATOM      9  C   UNL     1     -10.842  -2.320  17.474  0.00  0.00    +0.000 A 
ATOM     10  C   UNL     1     -11.693  -2.421  16.375  0.00  0.00    +0.000 A 
ATOM     11  C   UNL     1     -12.525  -1.369  16.077  0.00  0.00    +0.000 A 
ATOM     12  C   UNL     1     -12.343  -0.150  16.736  0.00  0.00    +0.000 A 
ATOM     13  C   UNL     1     -13.032   1.067  16.574  0.00  0.00    +0.000 A 
ATOM     14  C   UNL     1     -12.052   1.980  16.821  0.00  0.00    +0.000 A 
ATOM     15  N   UNL     1     -11.356   1.416  17.880  0.00  0.00    +0.000 N 
ATOM     16  C   UNL     1     -11.351   0.029  17.743  0.00  0.00    +0.000 A 
ATOM     17  C   UNL     1     -10.683  -1.130  18.276  0.00  0.00    +0.000 A 
ATOM     18  C   UNL     1      -9.880  -1.313  19.431  0.00  0.00    +0.000 A 
ATOM     19  C   UNL     1      -9.194  -2.535  19.775  0.00  0.00    +0.000 A 
ATOM     20  C   UNL     1      -9.370  -3.632  18.896  0.00  0.00    +0.000 A 
ATOM     21  C   UNL     1      -8.495  -2.387  21.017  0.00  0.00    +0.000 C 
ATOM     22  O   UNL     1      -7.890  -3.125  21.774  0.00  0.00    +0.000 OA
ATOM     23  N   UNL     1      -8.710  -1.076  21.314  0.00  0.00    +0.000 N 
ATOM     24  C   UNL     1      -9.665  -0.443  20.562  0.00  0.00    +0.000 C 
ATOM     25  O   UNL     1     -10.199   0.575  20.982  0.00  0.00    +0.000 OA
ATOM     26  H   UNL     1      -8.114  -8.664  18.756  0.00  0.00    +0.000 HD
ATOM     27  H   UNL     1      -7.267  -7.491  20.612  0.00  0.00    +0.000 HD
ATOM     28  H   UNL     1      -7.691  -5.130  20.938  0.00  0.00    +0.000 HD
ATOM     29  H   UNL     1     -10.545  -4.994  16.343  0.00  0.00    +0.000 HD
ATOM     30  H   UNL     1     -11.770  -3.312  15.764  0.00  0.00    +0.000 HD
ATOM     31  H   UNL     1     -13.238  -1.445  15.261  0.00  0.00    +0.000 HD
ATOM     32  H   UNL     1     -13.969   1.252  16.071  0.00  0.00    +0.000 HD
ATOM     33  H   UNL     1     -11.969   3.031  16.576  0.00  0.00    +0.000 HD
ATOM     34  H   UNL     1      -8.444  -0.730  22.220  0.00  0.00    +0.000 HD
ENDROOT
BRANCH  15  35
ATOM     35  C   UNL     1     -11.052   2.327  18.954  0.00  0.00    +0.000 C 
ATOM     36  H   UNL     1     -10.715   3.285  18.603  0.00  0.00    +0.000 HD
ATOM     37  H   UNL     1     -10.347   1.803  19.610  0.00  0.00    +0.000 HD
ATOM     38  H   UNL     1     -11.970   2.506  19.528  0.00  0.00    +0.000 HD
ENDBRANCH  15  35
BRANCH   1  39
ATOM     39  C   UNL     1      -9.472  -7.726  16.453  0.00  0.00    +0.000 C 
ATOM     40  H   UNL     1      -9.725  -6.965  15.702  0.00  0.00    +0.000 HD
ATOM     41  H   UNL     1      -8.598  -8.263  16.063  0.00  0.00    +0.000 HD
BRANCH  39  42
ATOM     42  C   UNL     1     -10.680  -8.680  16.526  0.00  0.00    +0.000 C 
ATOM     43  H   UNL     1     -11.294  -8.350  17.367  0.00  0.00    +0.000 HD
ATOM     44  H   UNL     1     -11.284  -8.542  15.618  0.00  0.00    +0.000 HD
BRANCH  42  45
ATOM     45  C   UNL     1     -10.313 -10.175  16.605  0.00  0.00    +0.000 C 
ATOM     46  H   UNL     1     -10.694 -10.553  17.562  0.00  0.00    +0.000 HD
ATOM     47  H   UNL     1     -10.865 -10.765  15.883  0.00  0.00    +0.000 HD
BRANCH  45  51
ATOM     48  N   UNL     1      -8.355 -13.472  16.279  0.00  0.00    +0.000 NA
ATOM     49  C   UNL     1      -8.825 -12.680  15.132  0.00  0.00    +0.000 C 
ATOM     50  C   UNL     1      -8.432 -11.192  15.285  0.00  0.00    +0.000 C 
ATOM     51  N   UNL     1      -8.884 -10.521  16.524  0.00  0.00    +0.000 NA
ATOM     52  C   UNL     1      -8.508 -11.386  17.676  0.00  0.00    +0.000 C 
ATOM     53  C   UNL     1      -8.872 -12.894  17.530  0.00  0.00    +0.000 C 
ATOM     54  H   UNL     1      -9.908 -12.775  15.006  0.00  0.00    +0.000 HD
ATOM     55  H   UNL     1      -8.369 -13.063  14.211  0.00  0.00    +0.000 HD
ATOM     56  H   UNL     1      -8.726 -10.635  14.391  0.00  0.00    +0.000 HD
ATOM     57  H   UNL     1      -7.335 -11.141  15.274  0.00  0.00    +0.000 HD
ATOM     58  H   UNL     1      -8.953 -10.997  18.600  0.00  0.00    +0.000 HD
ATOM     59  H   UNL     1      -7.422 -11.306  17.813  0.00  0.00    +0.000 HD
ATOM     60  H   UNL     1      -9.960 -13.023  17.590  0.00  0.00    +0.000 HD
ATOM     61  H   UNL     1      -8.441 -13.431  18.384  0.00  0.00    +0.000 HD
BRANCH  48  62
ATOM     62  C   UNL     1      -8.704 -14.882  16.142  0.00  0.00    +0.000 C 
ATOM     63  H   UNL     1      -9.415 -15.178  16.922  0.00  0.00    +0.000 HD
ATOM     64  H   UNL     1      -7.832 -15.541  16.203  0.00  0.00    +0.000 HD
ATOM     65  H   UNL     1      -9.204 -15.060  15.183  0.00  0.00    +0.000 HD
ENDBRANCH  48  62
ENDBRANCH  45  51
ENDBRANCH  42  45
ENDBRANCH  39  42
ENDBRANCH   1  39
TORSDOF 6
ENDMDL
MODEL 6
REMARK VINA RESULT:    -9.977      1.538      2.395
REMARK INTER + INTRA:         -13.247
REMARK INTER:                 -12.865
REMARK INTRA:                  -0.382
REMARK UNBOUND:                -0.354
REMARK  Name = 
REMARK  6 active torsions:
REMARK  status: ('A' for Active; 'I' for Inactive)
REMARK    1  A    between atoms: C_1  and  N_2
REMARK    2  A    between atoms: N_5  and  C_6
REMARK    3  A    between atoms: C_6  and  C_7
REMARK    4  A    between atoms: C_7  and  C_8
REMARK    5  A    between atoms: C_8  and  C_9
REMARK    6  A    between atoms: N_23  and  C_24
REMARK                            x       y       z     vdW  Elec       q    Type
REMARK                         _______ _______ _______ _____ _____    ______ ____
ROOT
ATOM      1  C   UNL     1     -11.471  -3.448  14.502  0.00  0.00    +0.000 A 
ATOM      2  C   UNL     1     -11.310  -2.166  15.055  0.00  0.00    +0.000 A 
ATOM      3  C   UNL     1     -10.769  -1.917  16.308  0.00  0.00    +0.000 A 
ATOM      4  C   UNL     1     -10.316  -2.963  17.087  0.00  0.00    +0.000 A 
ATOM      5  C   UNL     1     -10.382  -4.271  16.590  0.00  0.00    +0.000 A 
ATOM      6  C   UNL     1     -10.944  -4.475  15.311  0.00  0.00    +0.000 A 
ATOM      7  N   UNL     1     -10.867  -5.835  15.054  0.00  0.00    +0.000 N 
ATOM      8  C   UNL     1     -10.255  -6.521  16.081  0.00  0.00    +0.000 A 
ATOM      9  C   UNL     1      -9.860  -7.859  16.251  0.00  0.00    +0.000 A 
ATOM     10  C   UNL     1     -10.069  -8.675  15.141  0.00  0.00    +0.000 A 
ATOM     11  C   UNL     1      -9.580  -9.958  15.154  0.00  0.00    +0.000 A 
ATOM     12  C   UNL     1      -9.087 -10.486  16.350  0.00  0.00    +0.000 A 
ATOM     13  C   UNL     1      -8.579 -11.771  16.620  0.00  0.00    +0.000 A 
ATOM     14  C   UNL     1      -8.967 -11.961  17.912  0.00  0.00    +0.000 A 
ATOM     15  N   UNL     1      -8.760 -10.717  18.489  0.00  0.00    +0.000 N 
ATOM     16  C   UNL     1      -9.031  -9.722  17.552  0.00  0.00    +0.000 A 
ATOM     17  C   UNL     1      -9.252  -8.300  17.484  0.00  0.00    +0.000 A 
ATOM     18  C   UNL     1      -9.003  -7.258  18.413  0.00  0.00    +0.000 A 
ATOM     19  C   UNL     1      -9.380  -5.878  18.227  0.00  0.00    +0.000 A 
ATOM     20  C   UNL     1     -10.020  -5.553  17.005  0.00  0.00    +0.000 A 
ATOM     21  C   UNL     1      -8.957  -5.085  19.343  0.00  0.00    +0.000 C 
ATOM     22  O   UNL     1      -8.924  -3.897  19.610  0.00  0.00    +0.000 OA
ATOM     23  N   UNL     1      -8.437  -6.023  20.181  0.00  0.00    +0.000 N 
ATOM     24  C   UNL     1      -8.238  -7.265  19.637  0.00  0.00    +0.000 C 
ATOM     25  O   UNL     1      -7.446  -8.040  20.156  0.00  0.00    +0.000 OA
ATOM     26  H   UNL     1     -11.599  -1.276  14.530  0.00  0.00    +0.000 HD
ATOM     27  H   UNL     1     -10.716  -0.898  16.677  0.00  0.00    +0.000 HD
ATOM     28  H   UNL     1      -9.904  -2.708  18.064  0.00  0.00    +0.000 HD
ATOM     29  H   UNL     1     -11.198  -6.270  14.202  0.00  0.00    +0.000 HD
ATOM     30  H   UNL     1     -10.561  -8.333  14.238  0.00  0.00    +0.000 HD
ATOM     31  H   UNL     1      -9.680 -10.594  14.279  0.00  0.00    +0.000 HD
ATOM     32  H   UNL     1      -8.269 -12.535  15.925  0.00  0.00    +0.000 HD
ATOM     33  H   UNL     1      -9.071 -12.859  18.507  0.00  0.00    +0.000 HD
ATOM     34  H   UNL     1      -7.932  -5.723  20.997  0.00  0.00    +0.000 HD
ENDROOT
BRANCH  15  35
ATOM     35  C   UNL     1      -8.092 -10.750  19.766  0.00  0.00    +0.000 C 
ATOM     36  H   UNL     1      -8.777 -10.762  20.593  0.00  0.00    +0.000 HD
ATOM     37  H   UNL     1      -7.387  -9.910  19.764  0.00  0.00    +0.000 HD
ATOM     38  H   UNL     1      -7.506 -11.676  19.827  0.00  0.00    +0.000 HD
ENDBRANCH  15  35
BRANCH   1  39
ATOM     39  C   UNL     1     -12.193  -3.699  13.186  0.00  0.00    +0.000 C 
ATOM     40  H   UNL     1     -12.777  -4.623  13.297  0.00  0.00    +0.000 HD
ATOM     41  H   UNL     1     -12.920  -2.894  13.024  0.00  0.00    +0.000 HD
BRANCH  39  42
ATOM     42  C   UNL     1     -11.329  -3.883  11.923  0.00  0.00    +0.000 C 
ATOM     43  H   UNL     1     -10.331  -3.508  12.164  0.00  0.00    +0.000 HD
ATOM     44  H   UNL     1     -11.225  -4.960  11.730  0.00  0.00    +0.000 HD
BRANCH  42  45
ATOM     45  C   UNL     1     -11.915  -3.246  10.648  0.00  0.00    +0.000 C 
ATOM     46  H   UNL     1     -11.582  -3.855   9.797  0.00  0.00    +0.000 HD
ATOM     47  H   UNL     1     -12.992  -3.349  10.603  0.00  0.00    +0.000 HD
BRANCH  45  51
ATOM     48  N   UNL     1     -10.314  -1.430   7.655  0.00  0.00    +0.000 NA
ATOM     49  C   UNL     1     -11.763  -1.630   7.815  0.00  0.00    +0.000 C 
ATOM     50  C   UNL     1     -12.232  -1.199   9.224  0.00  0.00    +0.000 C 
ATOM     51  N   UNL     1     -11.549  -1.847  10.366  0.00  0.00    +0.000 NA
ATOM     52  C   UNL     1     -10.082  -1.744  10.140  0.00  0.00    +0.000 C 
ATOM     53  C   UNL     1      -9.592  -2.149   8.717  0.00  0.00    +0.000 C 
ATOM     54  H   UNL     1     -12.040  -2.671   7.625  0.00  0.00    +0.000 HD
ATOM     55  H   UNL     1     -12.300  -1.024   7.075  0.00  0.00    +0.000 HD
ATOM     56  H   UNL     1     -13.320  -1.286   9.298  0.00  0.00    +0.000 HD
ATOM     57  H   UNL     1     -12.052  -0.119   9.314  0.00  0.00    +0.000 HD
ATOM     58  H   UNL     1      -9.542  -2.340  10.888  0.00  0.00    +0.000 HD
ATOM     59  H   UNL     1      -9.787  -0.703  10.322  0.00  0.00    +0.000 HD
ATOM     60  H   UNL     1      -9.693  -3.233   8.582  0.00  0.00    +0.000 HD
ATOM     61  H   UNL     1      -8.521  -1.919   8.649  0.00  0.00    +0.000 HD
BRANCH  48  62
ATOM     62  C   UNL     1      -9.859  -1.816   6.324  0.00  0.00    +0.000 C 
ATOM     63  H   UNL     1      -9.019  -2.517   6.395  0.00  0.00    +0.000 HD
ATOM     64  H   UNL     1      -9.541  -0.959   5.721  0.00  0.00    +0.000 HD
ATOM     65  H   UNL     1     -10.656  -2.342   5.786  0.00  0.00    +0.000 HD
ENDBRANCH  48  62
ENDBRANCH  45  51
ENDBRANCH  42  45
ENDBRANCH  39  42
ENDBRANCH   1  39
TORSDOF 6
ENDMDL
MODEL 7
REMARK VINA RESULT:    -9.909      1.572      2.488
REMARK INTER + INTRA:         -13.160
REMARK INTER:                 -12.653
REMARK INTRA:                  -0.507
REMARK UNBOUND:                -0.354
REMARK  Name = 
REMARK  6 active torsions:
REMARK  status: ('A' for Active; 'I' for Inactive)
REMARK    1  A    between atoms: C_1  and  N_2
REMARK    2  A    between atoms: N_5  and  C_6
REMARK    3  A    between atoms: C_6  and  C_7
REMARK    4  A    between atoms: C_7  and  C_8
REMARK    5  A    between atoms: C_8  and  C_9
REMARK    6  A    between atoms: N_23  and  C_24
REMARK                            x       y       z     vdW  Elec       q    Type
REMARK                         _______ _______ _______ _____ _____    ______ ____
ROOT
ATOM      1  C   UNL     1     -11.507  -3.341  14.508  0.00  0.00    +0.000 A 
ATOM      2  C   UNL     1     -11.340  -2.056  15.049  0.00  0.00    +0.000 A 
ATOM      3  C   UNL     1     -10.790  -1.797  16.297  0.00  0.00    +0.000 A 
ATOM      4  C   UNL     1     -10.334  -2.838  17.081  0.00  0.00    +0.000 A 
ATOM      5  C   UNL     1     -10.407  -4.150  16.596  0.00  0.00    +0.000 A 
ATOM      6  C   UNL     1     -10.977  -4.363  15.322  0.00  0.00    +0.000 A 
ATOM      7  N   UNL     1     -10.905  -5.725  15.076  0.00  0.00    +0.000 N 
ATOM      8  C   UNL     1     -10.287  -6.404  16.105  0.00  0.00    +0.000 A 
ATOM      9  C   UNL     1      -9.894  -7.742  16.283  0.00  0.00    +0.000 A 
ATOM     10  C   UNL     1     -10.113  -8.566  15.181  0.00  0.00    +0.000 A 
ATOM     11  C   UNL     1      -9.626  -9.851  15.202  0.00  0.00    +0.000 A 
ATOM     12  C   UNL     1      -9.126 -10.369  16.398  0.00  0.00    +0.000 A 
ATOM     13  C   UNL     1      -8.619 -11.654  16.676  0.00  0.00    +0.000 A 
ATOM     14  C   UNL     1      -9.000 -11.832  17.972  0.00  0.00    +0.000 A 
ATOM     15  N   UNL     1      -8.786 -10.584  18.538  0.00  0.00    +0.000 N 
ATOM     16  C   UNL     1      -9.061  -9.595  17.593  0.00  0.00    +0.000 A 
ATOM     17  C   UNL     1      -9.279  -8.174  17.516  0.00  0.00    +0.000 A 
ATOM     18  C   UNL     1      -9.022  -7.125  18.434  0.00  0.00    +0.000 A 
ATOM     19  C   UNL     1      -9.397  -5.745  18.239  0.00  0.00    +0.000 A 
ATOM     20  C   UNL     1     -10.044  -5.430  17.019  0.00  0.00    +0.000 A 
ATOM     21  C   UNL     1      -8.965  -4.944  19.346  0.00  0.00    +0.000 C 
ATOM     22  O   UNL     1      -8.928  -3.754  19.603  0.00  0.00    +0.000 OA
ATOM     23  N   UNL     1      -8.442  -5.877  20.188  0.00  0.00    +0.000 N 
ATOM     24  C   UNL     1      -8.249  -7.123  19.654  0.00  0.00    +0.000 C 
ATOM     25  O   UNL     1      -7.455  -7.896  20.173  0.00  0.00    +0.000 OA
ATOM     26  H   UNL     1     -11.631  -1.169  14.519  0.00  0.00    +0.000 HD
ATOM     27  H   UNL     1     -10.732  -0.776  16.657  0.00  0.00    +0.000 HD
ATOM     28  H   UNL     1      -9.915  -2.576  18.054  0.00  0.00    +0.000 HD
ATOM     29  H   UNL     1     -11.242  -6.166  14.230  0.00  0.00    +0.000 HD
ATOM     30  H   UNL     1     -10.610  -8.231  14.279  0.00  0.00    +0.000 HD
ATOM     31  H   UNL     1      -9.733 -10.494  14.333  0.00  0.00    +0.000 HD
ATOM     32  H   UNL     1      -8.316 -12.424  15.985  0.00  0.00    +0.000 HD
ATOM     33  H   UNL     1      -9.102 -12.725  18.575  0.00  0.00    +0.000 HD
ATOM     34  H   UNL     1      -7.930  -5.571  20.998  0.00  0.00    +0.000 HD
ENDROOT
BRANCH  15  35
ATOM     35  C   UNL     1      -8.110 -10.607  19.810  0.00  0.00    +0.000 C 
ATOM     36  H   UNL     1      -8.066  -9.641  20.275  0.00  0.00    +0.000 HD
ATOM     37  H   UNL     1      -7.135 -11.077  19.630  0.00  0.00    +0.000 HD
ATOM     38  H   UNL     1      -8.673 -11.260  20.490  0.00  0.00    +0.000 HD
ENDBRANCH  15  35
BRANCH   1  39
ATOM     39  C   UNL     1     -12.238  -3.602  13.199  0.00  0.00    +0.000 C 
ATOM     40  H   UNL     1     -12.934  -4.436  13.366  0.00  0.00    +0.000 HD
ATOM     41  H   UNL     1     -12.859  -2.729  12.963  0.00  0.00    +0.000 HD
BRANCH  39  42
ATOM     42  C   UNL     1     -11.389  -3.986  11.973  0.00  0.00    +0.000 C 
ATOM     43  H   UNL     1     -10.370  -3.645  12.173  0.00  0.00    +0.000 HD
ATOM     44  H   UNL     1     -11.349  -5.082  11.909  0.00  0.00    +0.000 HD
BRANCH  42  45
ATOM     45  C   UNL     1     -11.937  -3.472  10.627  0.00  0.00    +0.000 C 
ATOM     46  H   UNL     1     -12.125  -4.350   9.995  0.00  0.00    +0.000 HD
ATOM     47  H   UNL     1     -12.925  -3.041  10.731  0.00  0.00    +0.000 HD
BRANCH  45  51
ATOM     48  N   UNL     1     -11.797   0.353  10.223  0.00  0.00    +0.000 NA
ATOM     49  C   UNL     1     -11.065  -0.390  11.259  0.00  0.00    +0.000 C 
ATOM     50  C   UNL     1     -10.285  -1.577  10.647  0.00  0.00    +0.000 C 
ATOM     51  N   UNL     1     -11.083  -2.546   9.863  0.00  0.00    +0.000 NA
ATOM     52  C   UNL     1     -11.911  -1.779   8.893  0.00  0.00    +0.000 C 
ATOM     53  C   UNL     1     -12.684  -0.562   9.486  0.00  0.00    +0.000 C 
ATOM     54  H   UNL     1     -11.742  -0.744  12.042  0.00  0.00    +0.000 HD
ATOM     55  H   UNL     1     -10.344   0.278  11.748  0.00  0.00    +0.000 HD
ATOM     56  H   UNL     1      -9.691  -2.072  11.420  0.00  0.00    +0.000 HD
ATOM     57  H   UNL     1      -9.531  -1.158   9.968  0.00  0.00    +0.000 HD
ATOM     58  H   UNL     1     -12.624  -2.447   8.394  0.00  0.00    +0.000 HD
ATOM     59  H   UNL     1     -11.245  -1.411   8.102  0.00  0.00    +0.000 HD
ATOM     60  H   UNL     1     -13.495  -0.915  10.135  0.00  0.00    +0.000 HD
ATOM     61  H   UNL     1     -13.154  -0.022   8.655  0.00  0.00    +0.000 HD
BRANCH  48  62
ATOM     62  C   UNL     1     -12.525   1.487  10.783  0.00  0.00    +0.000 C 
ATOM     63  H   UNL     1     -11.956   1.938  11.605  0.00  0.00    +0.000 HD
ATOM     64  H   UNL     1     -13.514   1.209  11.161  0.00  0.00    +0.000 HD
ATOM     65  H   UNL     1     -12.651   2.271  10.028  0.00  0.00    +0.000 HD
ENDBRANCH  48  62
ENDBRANCH  45  51
ENDBRANCH  42  45
ENDBRANCH  39  42
ENDBRANCH   1  39
TORSDOF 6
ENDMDL
MODEL 8
REMARK VINA RESULT:    -9.888      2.134      2.928
REMARK INTER + INTRA:         -13.133
REMARK INTER:                 -12.501
REMARK INTRA:                  -0.632
REMARK UNBOUND:                -0.354
REMARK  Name = 
REMARK  6 active torsions:
REMARK  status: ('A' for Active; 'I' for Inactive)
REMARK    1  A    between atoms: C_1  and  N_2
REMARK    2  A    between atoms: N_5  and  C_6
REMARK    3  A    between atoms: C_6  and  C_7
REMARK    4  A    between atoms: C_7  and  C_8
REMARK    5  A    between atoms: C_8  and  C_9
REMARK    6  A    between atoms: N_23  and  C_24
REMARK                            x       y       z     vdW  Elec       q    Type
REMARK                         _______ _______ _______ _____ _____    ______ ____
ROOT
ATOM      1  C   UNL     1     -11.515  -3.397  14.527  0.00  0.00    +0.000 A 
ATOM      2  C   UNL     1     -11.349  -2.113  15.073  0.00  0.00    +0.000 A 
ATOM      3  C   UNL     1     -10.800  -1.858  16.322  0.00  0.00    +0.000 A 
ATOM      4  C   UNL     1     -10.343  -2.901  17.102  0.00  0.00    +0.000 A 
ATOM      5  C   UNL     1     -10.413  -4.211  16.613  0.00  0.00    +0.000 A 
ATOM      6  C   UNL     1     -10.984  -4.420  15.338  0.00  0.00    +0.000 A 
ATOM      7  N   UNL     1     -10.910  -5.782  15.088  0.00  0.00    +0.000 N 
ATOM      8  C   UNL     1     -10.291  -6.463  16.114  0.00  0.00    +0.000 A 
ATOM      9  C   UNL     1      -9.896  -7.801  16.288  0.00  0.00    +0.000 A 
ATOM     10  C   UNL     1     -10.113  -8.622  15.182  0.00  0.00    +0.000 A 
ATOM     11  C   UNL     1      -9.625  -9.906  15.199  0.00  0.00    +0.000 A 
ATOM     12  C   UNL     1      -9.125 -10.428  16.394  0.00  0.00    +0.000 A 
ATOM     13  C   UNL     1      -8.616 -11.713  16.667  0.00  0.00    +0.000 A 
ATOM     14  C   UNL     1      -8.996 -11.895  17.963  0.00  0.00    +0.000 A 
ATOM     15  N   UNL     1      -8.784 -10.649  18.533  0.00  0.00    +0.000 N 
ATOM     16  C   UNL     1      -9.060  -9.658  17.592  0.00  0.00    +0.000 A 
ATOM     17  C   UNL     1      -9.280  -8.237  17.519  0.00  0.00    +0.000 A 
ATOM     18  C   UNL     1      -9.025  -7.190  18.441  0.00  0.00    +0.000 A 
ATOM     19  C   UNL     1      -9.402  -5.811  18.250  0.00  0.00    +0.000 A 
ATOM     20  C   UNL     1     -10.049  -5.492  17.031  0.00  0.00    +0.000 A 
ATOM     21  C   UNL     1      -8.971  -5.012  19.360  0.00  0.00    +0.000 C 
ATOM     22  O   UNL     1      -8.935  -3.823  19.621  0.00  0.00    +0.000 OA
ATOM     23  N   UNL     1      -8.447  -5.947  20.199  0.00  0.00    +0.000 N 
ATOM     24  C   UNL     1      -8.252  -7.192  19.660  0.00  0.00    +0.000 C 
ATOM     25  O   UNL     1      -7.457  -7.966  20.177  0.00  0.00    +0.000 OA
ATOM     26  H   UNL     1     -11.641  -1.225  14.546  0.00  0.00    +0.000 HD
ATOM     27  H   UNL     1     -10.744  -0.838  16.685  0.00  0.00    +0.000 HD
ATOM     28  H   UNL     1      -9.924  -2.641  18.076  0.00  0.00    +0.000 HD
ATOM     29  H   UNL     1     -11.246  -6.221  14.240  0.00  0.00    +0.000 HD
ATOM     30  H   UNL     1     -10.611  -8.284  14.282  0.00  0.00    +0.000 HD
ATOM     31  H   UNL     1      -9.731 -10.546  14.328  0.00  0.00    +0.000 HD
ATOM     32  H   UNL     1      -8.311 -12.480  15.973  0.00  0.00    +0.000 HD
ATOM     33  H   UNL     1      -9.097 -12.790  18.563  0.00  0.00    +0.000 HD
ATOM     34  H   UNL     1      -7.935  -5.643  21.010  0.00  0.00    +0.000 HD
ENDROOT
BRANCH  15  35
ATOM     35  C   UNL     1      -8.108 -10.676  19.804  0.00  0.00    +0.000 C 
ATOM     36  H   UNL     1      -8.367 -11.535  20.395  0.00  0.00    +0.000 HD
ATOM     37  H   UNL     1      -8.314  -9.710  20.281  0.00  0.00    +0.000 HD
ATOM     38  H   UNL     1      -7.027 -10.733  19.622  0.00  0.00    +0.000 HD
ENDBRANCH  15  35
BRANCH   1  39
ATOM     39  C   UNL     1     -12.246  -3.654  13.218  0.00  0.00    +0.000 C 
ATOM     40  H   UNL     1     -12.688  -4.658  13.274  0.00  0.00    +0.000 HD
ATOM     41  H   UNL     1     -13.086  -2.953  13.140  0.00  0.00    +0.000 HD
BRANCH  39  42
ATOM     42  C   UNL     1     -11.416  -3.618  11.920  0.00  0.00    +0.000 C 
ATOM     43  H   UNL     1     -10.545  -4.258  12.083  0.00  0.00    +0.000 HD
ATOM     44  H   UNL     1     -12.007  -4.085  11.120  0.00  0.00    +0.000 HD
BRANCH  42  45
ATOM     45  C   UNL     1     -11.036  -2.204  11.440  0.00  0.00    +0.000 C 
ATOM     46  H   UNL     1     -11.567  -2.028  10.495  0.00  0.00    +0.000 HD
ATOM     47  H   UNL     1     -11.445  -1.435  12.085  0.00  0.00    +0.000 HD
BRANCH  45  51
ATOM     48  N   UNL     1      -8.768   0.871  11.897  0.00  0.00    +0.000 NA
ATOM     49  C   UNL     1      -9.005  -0.137  12.942  0.00  0.00    +0.000 C 
ATOM     50  C   UNL     1      -8.800  -1.567  12.393  0.00  0.00    +0.000 C 
ATOM     51  N   UNL     1      -9.607  -1.934  11.208  0.00  0.00    +0.000 NA
ATOM     52  C   UNL     1      -9.456  -0.851  10.198  0.00  0.00    +0.000 C 
ATOM     53  C   UNL     1      -9.633   0.600  10.738  0.00  0.00    +0.000 C 
ATOM     54  H   UNL     1     -10.008  -0.034  13.367  0.00  0.00    +0.000 HD
ATOM     55  H   UNL     1      -8.300   0.019  13.768  0.00  0.00    +0.000 HD
ATOM     56  H   UNL     1      -8.909  -2.296  13.201  0.00  0.00    +0.000 HD
ATOM     57  H   UNL     1      -7.744  -1.658  12.102  0.00  0.00    +0.000 HD
ATOM     58  H   UNL     1     -10.153  -1.011   9.366  0.00  0.00    +0.000 HD
ATOM     59  H   UNL     1      -8.451  -0.936   9.765  0.00  0.00    +0.000 HD
ATOM     60  H   UNL     1     -10.684   0.777  10.996  0.00  0.00    +0.000 HD
ATOM     61  H   UNL     1      -9.383   1.297   9.927  0.00  0.00    +0.000 HD
BRANCH  48  62
ATOM     62  C   UNL     1      -8.942   2.228  12.406  0.00  0.00    +0.000 C 
ATOM     63  H   UNL     1      -9.588   2.807  11.737  0.00  0.00    +0.000 HD
ATOM     64  H   UNL     1      -7.992   2.763  12.515  0.00  0.00    +0.000 HD
ATOM     65  H   UNL     1      -9.442   2.209  13.380  0.00  0.00    +0.000 HD
ENDBRANCH  48  62
ENDBRANCH  45  51
ENDBRANCH  42  45
ENDBRANCH  39  42
ENDBRANCH   1  39
TORSDOF 6
ENDMDL
MODEL 9
REMARK VINA RESULT:    -9.753      2.751      9.823
REMARK INTER + INTRA:         -12.958
REMARK INTER:                 -12.585
REMARK INTRA:                  -0.373
REMARK UNBOUND:                -0.354
REMARK  Name = 
REMARK  6 active torsions:
REMARK  status: ('A' for Active; 'I' for Inactive)
REMARK    1  A    between atoms: C_1  and  N_2
REMARK    2  A    between atoms: N_5  and  C_6
REMARK    3  A    between atoms: C_6  and  C_7
REMARK    4  A    between atoms: C_7  and  C_8
REMARK    5  A    between atoms: C_8  and  C_9
REMARK    6  A    between atoms: N_23  and  C_24
REMARK                            x       y       z     vdW  Elec       q    Type
REMARK                         _______ _______ _______ _____ _____    ______ ____
ROOT
ATOM      1  C   UNL     1      -9.694  -7.075  16.566  0.00  0.00    +0.000 A 
ATOM      2  C   UNL     1      -9.412  -7.179  17.939  0.00  0.00    +0.000 A 
ATOM      3  C   UNL     1      -9.527  -6.132  18.843  0.00  0.00    +0.000 A 
ATOM      4  C   UNL     1      -9.974  -4.897  18.418  0.00  0.00    +0.000 A 
ATOM      5  C   UNL     1     -10.336  -4.719  17.077  0.00  0.00    +0.000 A 
ATOM      6  C   UNL     1     -10.198  -5.812  16.194  0.00  0.00    +0.000 A 
ATOM      7  N   UNL     1     -10.641  -5.381  14.954  0.00  0.00    +0.000 N 
ATOM      8  C   UNL     1     -11.091  -4.078  14.990  0.00  0.00    +0.000 A 
ATOM      9  C   UNL     1     -11.713  -3.242  14.046  0.00  0.00    +0.000 A 
ATOM     10  C   UNL     1     -11.996  -3.851  12.825  0.00  0.00    +0.000 A 
ATOM     11  C   UNL     1     -12.736  -3.164  11.893  0.00  0.00    +0.000 A 
ATOM     12  C   UNL     1     -12.994  -1.806  12.096  0.00  0.00    +0.000 A 
ATOM     13  C   UNL     1     -13.683  -0.892  11.275  0.00  0.00    +0.000 A 
ATOM     14  C   UNL     1     -13.014   0.268  11.523  0.00  0.00    +0.000 A 
ATOM     15  N   UNL     1     -12.776   0.210  12.888  0.00  0.00    +0.000 N 
ATOM     16  C   UNL     1     -12.554  -1.115  13.262  0.00  0.00    +0.000 A 
ATOM     17  C   UNL     1     -12.049  -1.877  14.375  0.00  0.00    +0.000 A 
ATOM     18  C   UNL     1     -11.801  -1.529  15.727  0.00  0.00    +0.000 A 
ATOM     19  C   UNL     1     -11.192  -2.396  16.705  0.00  0.00    +0.000 A 
ATOM     20  C   UNL     1     -10.849  -3.700  16.272  0.00  0.00    +0.000 A 
ATOM     21  C   UNL     1     -11.112  -1.743  17.978  0.00  0.00    +0.000 C 
ATOM     22  O   UNL     1     -10.808  -2.069  19.112  0.00  0.00    +0.000 OA
ATOM     23  N   UNL     1     -11.582  -0.498  17.691  0.00  0.00    +0.000 N 
ATOM     24  C   UNL     1     -12.191  -0.355  16.472  0.00  0.00    +0.000 C 
ATOM     25  O   UNL     1     -12.966   0.572  16.279  0.00  0.00    +0.000 OA
ATOM     26  H   UNL     1      -9.084  -8.097  18.388  0.00  0.00    +0.000 HD
ATOM     27  H   UNL     1      -9.251  -6.286  19.880  0.00  0.00    +0.000 HD
ATOM     28  H   UNL     1     -10.041  -4.111  19.172  0.00  0.00    +0.000 HD
ATOM     29  H   UNL     1     -10.657  -5.961  14.125  0.00  0.00    +0.000 HD
ATOM     30  H   UNL     1     -11.702  -4.865  12.585  0.00  0.00    +0.000 HD
ATOM     31  H   UNL     1     -13.019  -3.638  10.957  0.00  0.00    +0.000 HD
ATOM     32  H   UNL     1     -14.330  -1.093  10.435  0.00  0.00    +0.000 HD
ATOM     33  H   UNL     1     -12.955   1.197  10.970  0.00  0.00    +0.000 HD
ATOM     34  H   UNL     1     -11.770   0.139  18.447  0.00  0.00    +0.000 HD
ENDROOT
BRANCH  15  35
ATOM     35  C   UNL     1     -13.067   1.427  13.602  0.00  0.00    +0.000 C 
ATOM     36  H   UNL     1     -12.212   2.072  13.688  0.00  0.00    +0.000 HD
ATOM     37  H   UNL     1     -13.513   1.123  14.556  0.00  0.00    +0.000 HD
ATOM     38  H   UNL     1     -13.828   1.985  13.041  0.00  0.00    +0.000 HD
ENDBRANCH  15  35
BRANCH   1  39
ATOM     39  C   UNL     1      -9.427  -8.199  15.577  0.00  0.00    +0.000 C 
ATOM     40  H   UNL     1      -9.501  -7.778  14.564  0.00  0.00    +0.000 HD
ATOM     41  H   UNL     1      -8.388  -8.533  15.695  0.00  0.00    +0.000 HD
BRANCH  39  42
ATOM     42  C   UNL     1     -10.371  -9.416  15.609  0.00  0.00    +0.000 C 
ATOM     43  H   UNL     1     -11.385  -9.027  15.731  0.00  0.00    +0.000 HD
ATOM     44  H   UNL     1     -10.336  -9.907  14.627  0.00  0.00    +0.000 HD
BRANCH  42  45
ATOM     45  C   UNL     1     -10.010 -10.481  16.663  0.00  0.00    +0.000 C 
ATOM     46  H   UNL     1     -10.205 -10.042  17.650  0.00  0.00    +0.000 HD
ATOM     47  H   UNL     1     -10.695 -11.320  16.640  0.00  0.00    +0.000 HD
BRANCH  45  51
ATOM     48  N   UNL     1      -8.401 -13.937  16.137  0.00  0.00    +0.000 NA
ATOM     49  C   UNL     1      -8.671 -12.984  15.050  0.00  0.00    +0.000 C 
ATOM     50  C   UNL     1      -8.134 -11.576  15.399  0.00  0.00    +0.000 C 
ATOM     51  N   UNL     1      -8.626 -10.984  16.663  0.00  0.00    +0.000 NA
ATOM     52  C   UNL     1      -8.458 -11.999  17.739  0.00  0.00    +0.000 C 
ATOM     53  C   UNL     1      -8.968 -13.431  17.397  0.00  0.00    +0.000 C 
ATOM     54  H   UNL     1      -9.740 -12.937  14.825  0.00  0.00    +0.000 HD
ATOM     55  H   UNL     1      -8.174 -13.323  14.133  0.00  0.00    +0.000 HD
ATOM     56  H   UNL     1      -8.279 -10.901  14.551  0.00  0.00    +0.000 HD
ATOM     57  H   UNL     1      -7.042 -11.654  15.485  0.00  0.00    +0.000 HD
ATOM     58  H   UNL     1      -8.944 -11.656  18.661  0.00  0.00    +0.000 HD
ATOM     59  H   UNL     1      -7.387 -12.063  17.974  0.00  0.00    +0.000 HD
ATOM     60  H   UNL     1     -10.064 -13.436  17.352  0.00  0.00    +0.000 HD
ATOM     61  H   UNL     1      -8.682 -14.099  18.219  0.00  0.00    +0.000 HD
BRANCH  48  62
ATOM     62  C   UNL     1      -8.887 -15.275  15.816  0.00  0.00    +0.000 C 
ATOM     63  H   UNL     1      -8.984 -15.876  16.727  0.00  0.00    +0.000 HD
ATOM     64  H   UNL     1      -8.228 -15.808  15.121  0.00  0.00    +0.000 HD
ATOM     65  H   UNL     1      -9.887 -15.221  15.372  0.00  0.00    +0.000 HD
ENDBRANCH  48  62
ENDBRANCH  45  51
ENDBRANCH  42  45
ENDBRANCH  39  42
ENDBRANCH   1  39
TORSDOF 6
ENDMDL
