
 OpenBabel01112422383D

 48 52  0  0  0  0  0  0  0  0999 V2000
    2.3491    0.3766   -0.8617 O   0  0  0  0  0  0  0  0  0  0  0  0
    2.6177    0.0006    0.2839 C   0  0  0  0  0  0  0  0  0  0  0  0
    1.7037    0.3984    1.3683 C   0  0  0  0  0  0  0  0  0  0  0  0
    1.1937   -0.5270    2.2744 C   0  0  0  0  0  0  0  0  0  0  0  0
    0.9896   -0.1209    3.6088 C   0  0  0  0  0  0  0  0  0  0  0  0
    1.2954    1.1924    4.0332 C   0  0  0  0  0  0  0  0  0  0  0  0
    1.5892    1.5396    5.4662 C   0  0  0  0  0  0  0  0  0  0  0  0
    1.6034    0.5801    6.4993 C   0  0  0  0  0  0  0  0  0  0  0  0
    2.0012    0.8959    7.8095 C   0  0  0  0  0  0  0  0  0  0  0  0
    2.3850    2.1903    8.1353 C   0  0  0  0  0  0  0  0  0  0  0  0
    2.3878    3.1624    7.1486 C   0  0  0  0  0  0  0  0  0  0  0  0
    2.0057    2.8365    5.8418 C   0  0  0  0  0  0  0  0  0  0  0  0
    1.5183    2.1368    3.0048 C   0  0  0  0  0  0  0  0  0  0  0  0
    1.7265    1.7498    1.6819 C   0  0  0  0  0  0  0  0  0  0  0  0
    3.8447   -0.6765    0.5349 N   0  0  0  0  0  0  0  0  0  0  0  0
    4.2908   -1.1118    1.7933 C   0  0  0  0  0  0  0  0  0  0  0  0
    4.0087   -0.8503    3.1298 C   0  0  0  0  0  0  0  0  0  0  0  0
    3.8519   -1.9978    3.9080 C   0  0  0  0  0  0  0  0  0  0  0  0
    3.3410   -1.9284    5.1692 O   0  0  0  0  0  0  0  0  0  0  0  0
    4.1118   -3.2620    3.3762 C   0  0  0  0  0  0  0  0  0  0  0  0
    3.6241   -4.3699    4.0085 O   0  0  0  0  0  0  0  0  0  0  0  0
    4.8644   -3.3989    2.2105 C   0  0  0  0  0  0  0  0  0  0  0  0
    5.0402   -2.2290    1.4618 C   0  0  0  0  0  0  0  0  0  0  0  0
    5.8228   -1.6645    0.4448 C   0  0  0  0  0  0  0  0  0  0  0  0
    7.1836   -1.5813    0.0892 C   0  0  0  0  0  0  0  0  0  0  0  0
    7.5092   -1.0487   -1.1592 C   0  0  0  0  0  0  0  0  0  0  0  0
    6.4926   -0.8250   -2.0795 C   0  0  0  0  0  0  0  0  0  0  0  0
    6.7743   -0.5647   -3.3947 O   0  0  0  0  0  0  0  0  0  0  0  0
    5.1466   -0.8304   -1.7018 C   0  0  0  0  0  0  0  0  0  0  0  0
    4.1683   -0.6982   -2.6431 O   0  0  0  0  0  0  0  0  0  0  0  0
    4.8744   -1.0155   -0.3484 C   0  0  0  0  0  0  0  0  0  0  0  0
    1.1583   -1.5859    2.0293 H   0  0  0  0  0  0  0  0  0  0  0  0
    0.7697   -0.9118    4.3240 H   0  0  0  0  0  0  0  0  0  0  0  0
    1.3304   -0.4563    6.3156 H   0  0  0  0  0  0  0  0  0  0  0  0
    2.0139    0.1237    8.5755 H   0  0  0  0  0  0  0  0  0  0  0  0
    2.6820    2.4416    9.1502 H   0  0  0  0  0  0  0  0  0  0  0  0
    2.6955    4.1792    7.3812 H   0  0  0  0  0  0  0  0  0  0  0  0
    2.0698    3.6454    5.1207 H   0  0  0  0  0  0  0  0  0  0  0  0
    1.6749    3.1902    3.2149 H   0  0  0  0  0  0  0  0  0  0  0  0
    2.0639    2.4787    0.9502 H   0  0  0  0  0  0  0  0  0  0  0  0
    3.7182    0.1337    3.4830 H   0  0  0  0  0  0  0  0  0  0  0  0
    3.5439   -1.0333    5.5009 H   0  0  0  0  0  0  0  0  0  0  0  0
    3.0404   -4.0123    4.7096 H   0  0  0  0  0  0  0  0  0  0  0  0
    5.1564   -4.3652    1.8337 H   0  0  0  0  0  0  0  0  0  0  0  0
    7.9564   -1.8177    0.8178 H   0  0  0  0  0  0  0  0  0  0  0  0
    8.5475   -0.8707   -1.4072 H   0  0  0  0  0  0  0  0  0  0  0  0
    7.7402   -0.6017   -3.5053 H   0  0  0  0  0  0  0  0  0  0  0  0
    4.6355   -0.7496   -3.4995 H   0  0  0  0  0  0  0  0  0  0  0  0
  1  2  2  0  0  0  0
  2  3  1  0  0  0  0
  2 15  1  0  0  0  0
  3  4  1  0  0  0  0
  3 14  2  0  0  0  0
  4  5  2  0  0  0  0
  4 32  1  0  0  0  0
  5  6  1  0  0  0  0
  5 33  1  0  0  0  0
  6  7  1  0  0  0  0
  6 13  2  0  0  0  0
  7  8  1  0  0  0  0
  7 12  2  0  0  0  0
  8  9  2  0  0  0  0
  8 34  1  0  0  0  0
  9 10  1  0  0  0  0
  9 35  1  0  0  0  0
 10 11  2  0  0  0  0
 10 36  1  0  0  0  0
 11 12  1  0  0  0  0
 11 37  1  0  0  0  0
 12 38  1  0  0  0  0
 13 14  1  0  0  0  0
 13 39  1  0  0  0  0
 14 40  1  0  0  0  0
 15 16  1  0  0  0  0
 15 31  1  0  0  0  0
 16 17  1  0  0  0  0
 16 23  2  0  0  0  0
 17 18  2  0  0  0  0
 17 41  1  0  0  0  0
 18 19  1  0  0  0  0
 18 20  1  0  0  0  0
 19 42  1  0  0  0  0
 20 21  1  0  0  0  0
 20 22  2  0  0  0  0
 21 43  1  0  0  0  0
 22 23  1  0  0  0  0
 22 44  1  0  0  0  0
 23 24  1  0  0  0  0
 24 25  1  0  0  0  0
 24 31  2  0  0  0  0
 25 26  2  0  0  0  0
 25 45  1  0  0  0  0
 26 27  1  0  0  0  0
 26 46  1  0  0  0  0
 27 28  1  0  0  0  0
 27 29  2  0  0  0  0
 28 47  1  0  0  0  0
 29 30  1  0  0  0  0
 29 31  1  0  0  0  0
 30 48  1  0  0  0  0
M  END
$$$$
