REMARK  Name = 
REMARK  13 active torsions:
REMARK  status: ('A' for Active; 'I' for Inactive)
REMARK    1  A    between atoms: C_2  and  C_32
REMARK    2  A    between atoms: N_3  and  C_4
REMARK    3  A    between atoms: C_8  and  O_9
REMARK    4  A    between atoms: O_9  and  C_10
REMARK    5  A    between atoms: C_10  and  C_12
REMARK    6  A    between atoms: C_14  and  O_15
REMARK    7  A    between atoms: C_16  and  C_17
REMARK    8  A    between atoms: C_17  and  C_19
REMARK    9  A    between atoms: C_20  and  O_21
REMARK   10  A    between atoms: C_25  and  C_26
REMARK   11  A    between atoms: C_26  and  O_28
REMARK   12  A    between atoms: C_29  and  O_30
REMARK   13  A    between atoms: C_35  and  O_36
REMARK                            x       y       z     vdW  Elec       q    Type
REMARK                         _______ _______ _______ _____ _____    ______ ____
ROOT
ATOM      1  C   UNL     1       0.692   1.184   0.171  0.00  0.00    +0.000 C 
ATOM      2  O   UNL     1       1.436   2.129   0.361  0.00  0.00    +0.000 OA
ENDROOT
BRANCH   1   3
ATOM      3  C   UNL     1       0.075   0.840  -1.136  0.00  0.00    +0.000 A 
ATOM      4  C   UNL     1       0.330   1.668  -2.233  0.00  0.00    +0.000 A 
ATOM      5  C   UNL     1      -0.252   1.376  -3.467  0.00  0.00    +0.000 A 
ATOM      6  C   UNL     1      -1.065   0.238  -3.632  0.00  0.00    +0.000 A 
ATOM      7  C   UNL     1      -1.310  -0.580  -2.521  0.00  0.00    +0.000 A 
ATOM      8  C   UNL     1      -0.782  -0.259  -1.276  0.00  0.00    +0.000 A 
ATOM      9  H   UNL     1       0.971   2.538  -2.112  0.00  0.00    +0.000 HD
ATOM     10  H   UNL     1      -1.037  -0.887  -0.426  0.00  0.00    +0.000 HD
BRANCH   5  11
ATOM     11  O   UNL     1      -0.033   2.231  -4.513  0.00  0.00    +0.000 OA
ATOM     12  H   UNL     1       0.416   3.035  -4.204  0.00  0.00    +0.000 HD
ENDBRANCH   5  11
BRANCH   6  13
ATOM     13  C   UNL     1      -1.597  -0.109  -4.971  0.00  0.00    +0.000 C 
ATOM     14  O   UNL     1      -0.842  -0.000  -5.948  0.00  0.00    +0.000 OA
BRANCH  13  15
ATOM     15  C   UNL     1      -2.895  -0.796  -5.206  0.00  0.00    +0.000 A 
ATOM     16  C   UNL     1      -2.892  -1.800  -6.199  0.00  0.00    +0.000 A 
ATOM     17  C   UNL     1      -4.025  -2.564  -6.464  0.00  0.00    +0.000 A 
ATOM     18  C   UNL     1      -5.197  -2.335  -5.756  0.00  0.00    +0.000 A 
ATOM     19  C   UNL     1      -5.230  -1.346  -4.775  0.00  0.00    +0.000 A 
ATOM     20  C   UNL     1      -4.084  -0.577  -4.485  0.00  0.00    +0.000 A 
ATOM     21  H   UNL     1      -3.992  -3.325  -7.242  0.00  0.00    +0.000 HD
ATOM     22  H   UNL     1      -6.090  -2.916  -5.982  0.00  0.00    +0.000 HD
ATOM     23  H   UNL     1      -6.172  -1.168  -4.258  0.00  0.00    +0.000 HD
BRANCH  16  24
ATOM     24  O   UNL     1      -1.778  -2.132  -6.930  0.00  0.00    +0.000 OA
ATOM     25  H   UNL     1      -1.129  -1.395  -6.843  0.00  0.00    +0.000 HD
ENDBRANCH  16  24
BRANCH  20  26
ATOM     26  C   UNL     1      -4.206   0.479  -3.450  0.00  0.00    +0.000 C 
ATOM     27  O   UNL     1      -3.680   1.572  -3.547  0.00  0.00    +0.000 OA
BRANCH  26  28
ATOM     28  O   UNL     1      -4.950   0.116  -2.380  0.00  0.00    +0.000 OA
ATOM     29  H   UNL     1      -5.185  -0.829  -2.320  0.00  0.00    +0.000 HD
ENDBRANCH  26  28
ENDBRANCH  20  26
ENDBRANCH  13  15
ENDBRANCH   6  13
BRANCH   7  30
ATOM     30  O   UNL     1      -2.054  -1.729  -2.557  0.00  0.00    +0.000 OA
ATOM     31  H   UNL     1      -1.821  -2.226  -3.363  0.00  0.00    +0.000 HD
ENDBRANCH   7  30
ENDBRANCH   1   3
BRANCH   1  32
ATOM     32  O   UNL     1       0.218   0.351   1.122  0.00  0.00    +0.000 OA
BRANCH  32  37
ATOM     33  C   UNL     1       0.468   0.413   3.568  0.00  0.00    +0.000 C 
ATOM     34  C   UNL     1      -0.236  -0.934   3.724  0.00  0.00    +0.000 C 
ATOM     35  C   UNL     1      -1.672  -0.682   3.264  0.00  0.00    +0.000 C 
ATOM     36  C   UNL     1      -1.668   0.652   2.511  0.00  0.00    +0.000 C 
ATOM     37  C   UNL     1      -0.195   1.013   2.327  0.00  0.00    +0.000 C 
ATOM     38  H   UNL     1       0.220   1.041   4.435  0.00  0.00    +0.000 HD
ATOM     39  H   UNL     1      -0.211  -1.296   4.756  0.00  0.00    +0.000 HD
ATOM     40  H   UNL     1       0.234  -1.700   3.096  0.00  0.00    +0.000 HD
ATOM     41  H   UNL     1      -2.355  -0.622   4.119  0.00  0.00    +0.000 HD
ATOM     42  H   UNL     1      -2.019  -1.502   2.626  0.00  0.00    +0.000 HD
ATOM     43  H   UNL     1      -2.174   1.416   3.109  0.00  0.00    +0.000 HD
ATOM     44  H   UNL     1      -2.201   0.558   1.558  0.00  0.00    +0.000 HD
ATOM     45  H   UNL     1      -0.056   2.098   2.266  0.00  0.00    +0.000 HD
BRANCH  33  48
ATOM     46  O   UNL     1       2.148  -0.511   5.623  0.00  0.00    +0.000 OA
ATOM     47  C   UNL     1       2.645  -0.022   4.611  0.00  0.00    +0.000 C 
ATOM     48  N   UNL     1       1.914   0.334   3.500  0.00  0.00    +0.000 N 
ATOM     49  H   UNL     1       2.382   0.661   2.662  0.00  0.00    +0.000 HD
BRANCH  47  50
ATOM     50  C   UNL     1       4.102   0.261   4.593  0.00  0.00    +0.000 A 
ATOM     51  C   UNL     1       4.959  -0.583   5.314  0.00  0.00    +0.000 A 
ATOM     52  C   UNL     1       6.300  -0.234   5.496  0.00  0.00    +0.000 A 
ATOM     53  C   UNL     1       6.769   0.962   4.961  0.00  0.00    +0.000 A 
ATOM     54  C   UNL     1       5.939   1.785   4.206  0.00  0.00    +0.000 A 
ATOM     55  C   UNL     1       4.599   1.438   4.020  0.00  0.00    +0.000 A 
ATOM     56  H   UNL     1       4.572  -1.494   5.765  0.00  0.00    +0.000 HD
ATOM     57  H   UNL     1       6.945  -0.885   6.076  0.00  0.00    +0.000 HD
ATOM     58  H   UNL     1       6.323   2.719   3.804  0.00  0.00    +0.000 HD
ATOM     59  H   UNL     1       3.945   2.125   3.490  0.00  0.00    +0.000 HD
BRANCH  53  60
ATOM     60  O   UNL     1       8.046   1.385   5.185  0.00  0.00    +0.000 OA
ATOM     61  H   UNL     1       8.440   0.824   5.873  0.00  0.00    +0.000 HD
ENDBRANCH  53  60
ENDBRANCH  47  50
ENDBRANCH  33  48
ENDBRANCH  32  37
ENDBRANCH   1  32
TORSDOF 13
