REMARK  Name = 
REMARK  0 active torsions:
REMARK  status: ('A' for Active; 'I' for Inactive)
REMARK                            x       y       z     vdW  Elec       q    Type
REMARK                         _______ _______ _______ _____ _____    ______ ____
ROOT
ATOM      1  O   UNL     1      -3.392  -2.292  -0.001  0.00  0.00    +0.000 OA
ATOM      2  C   UNL     1      -2.173  -2.216   0.010  0.00  0.00    +0.000 C 
ATOM      3  N   UNL     1      -1.392  -3.322   0.024  0.00  0.00    +0.000 N 
ATOM      4  C   UNL     1      -0.044  -3.128  -0.011  0.00  0.00    +0.000 C 
ATOM      5  O   UNL     1       0.679  -4.109  -0.058  0.00  0.00    +0.000 OA
ATOM      6  C   UNL     1       0.121  -1.699  -0.001  0.00  0.00    +0.000 A 
ATOM      7  C   UNL     1      -1.219  -1.149   0.006  0.00  0.00    +0.000 A 
ATOM      8  C   UNL     1      -1.413   0.250   0.004  0.00  0.00    +0.000 A 
ATOM      9  C   UNL     1      -2.620   0.950   0.002  0.00  0.00    +0.000 A 
ATOM     10  C   UNL     1      -4.004   0.687   0.001  0.00  0.00    +0.000 A 
ATOM     11  C   UNL     1      -4.923   1.742  -0.001  0.00  0.00    +0.000 A 
ATOM     12  C   UNL     1      -4.487   3.060  -0.001  0.00  0.00    +0.000 A 
ATOM     13  C   UNL     1      -3.122   3.363   0.001  0.00  0.00    +0.000 A 
ATOM     14  C   UNL     1      -2.207   2.298   0.001  0.00  0.00    +0.000 A 
ATOM     15  N   UNL     1      -0.812   2.328   0.002  0.00  0.00    +0.000 N 
ATOM     16  C   UNL     1      -0.323   1.050   0.002  0.00  0.00    +0.000 A 
ATOM     17  C   UNL     1       0.953   0.538   0.001  0.00  0.00    +0.000 A 
ATOM     18  N   UNL     1       2.135   1.200  -0.001  0.00  0.00    +0.000 N 
ATOM     19  C   UNL     1       3.180   0.294  -0.002  0.00  0.00    +0.000 A 
ATOM     20  C   UNL     1       4.550   0.610  -0.003  0.00  0.00    +0.000 A 
ATOM     21  C   UNL     1       5.474  -0.418  -0.004  0.00  0.00    +0.000 A 
ATOM     22  C   UNL     1       5.033  -1.726  -0.000  0.00  0.00    +0.000 A 
ATOM     23  C   UNL     1       3.657  -2.056   0.006  0.00  0.00    +0.000 A 
ATOM     24 BR   UNL     1       3.424  -3.927   0.030  0.00  0.00    +0.000 Br
ATOM     25  C   UNL     1       2.658  -1.034   0.001  0.00  0.00    +0.000 A 
ATOM     26  C   UNL     1       1.248  -0.801  -0.000  0.00  0.00    +0.000 A 
ATOM     27  H   UNL     1      -1.783  -4.248   0.005  0.00  0.00    +0.000 HD
ATOM     28  H   UNL     1      -4.397  -0.323   0.000  0.00  0.00    +0.000 HD
ATOM     29  H   UNL     1      -5.988   1.518  -0.002  0.00  0.00    +0.000 HD
ATOM     30  H   UNL     1      -5.220   3.864  -0.002  0.00  0.00    +0.000 HD
ATOM     31  H   UNL     1      -2.793   4.397   0.000  0.00  0.00    +0.000 HD
ATOM     32  H   UNL     1      -0.268   3.178   0.001  0.00  0.00    +0.000 HD
ATOM     33  H   UNL     1       2.257   2.202  -0.001  0.00  0.00    +0.000 HD
ATOM     34  H   UNL     1       4.889   1.642  -0.004  0.00  0.00    +0.000 HD
ATOM     35  H   UNL     1       6.540  -0.206  -0.005  0.00  0.00    +0.000 HD
ATOM     36  H   UNL     1       5.783  -2.517   0.001  0.00  0.00    +0.000 HD
ENDROOT
TORSDOF 0
