REMARK  Name = 
REMARK  6 active torsions:
REMARK  status: ('A' for Active; 'I' for Inactive)
REMARK    1  A    between atoms: C_2  and  C_3
REMARK    2  A    between atoms: C_10  and  N_11
REMARK    3  A    between atoms: N_11  and  C_12
REMARK    4  A    between atoms: C_12  and  C_13
REMARK    5  A    between atoms: C_20  and  N_21
REMARK    6  A    between atoms: N_21  and  C_22
REMARK                            x       y       z     vdW  Elec       q    Type
REMARK                         _______ _______ _______ _____ _____    ______ ____
ROOT
ATOM      1  C   UNL     1      -1.261  -2.978   0.514  0.00  0.00    +0.000 A 
ATOM      2  C   UNL     1      -0.461  -4.104   0.496  0.00  0.00    +0.000 A 
ATOM      3  N   UNL     1       0.886  -4.076   0.524  0.00  0.00    +0.000 NA
ATOM      4  C   UNL     1       1.521  -2.887   0.558  0.00  0.00    +0.000 A 
ATOM      5  C   UNL     1       2.921  -2.838   0.548  0.00  0.00    +0.000 A 
ATOM      6 CL   UNL     1       3.862  -4.299   0.557  0.00  0.00    +0.000 Cl
ATOM      7  C   UNL     1       3.628  -1.633   0.524  0.00  0.00    +0.000 A 
ATOM      8  C   UNL     1       2.956  -0.418   0.542  0.00  0.00    +0.000 A 
ATOM      9  C   UNL     1       1.561  -0.458   0.609  0.00  0.00    +0.000 A 
ATOM     10  C   UNL     1       0.805  -1.667   0.591  0.00  0.00    +0.000 A 
ATOM     11  C   UNL     1      -0.634  -1.720   0.580  0.00  0.00    +0.000 A 
ATOM     12  H   UNL     1      -0.887  -5.105   0.464  0.00  0.00    +0.000 HD
ATOM     13  H   UNL     1       4.716  -1.650   0.520  0.00  0.00    +0.000 HD
ATOM     14  H   UNL     1       1.042   0.492   0.616  0.00  0.00    +0.000 HD
ENDROOT
BRANCH   1  16
ATOM     15  N   UNL     1      -3.813  -3.411   0.444  0.00  0.00    +0.000 NA
ATOM     16  C   UNL     1      -2.675  -3.184   0.497  0.00  0.00    +0.000 C 
ENDBRANCH   1  16
BRANCH   8  17
ATOM     17  N   UNL     1       3.696   0.751   0.535  0.00  0.00    +0.000 N 
ATOM     18  H   UNL     1       4.411   0.804  -0.183  0.00  0.00    +0.000 HD
BRANCH  17  19
ATOM     19  C   UNL     1       3.213   2.024   1.044  0.00  0.00    +0.000 C 
ATOM     20  H   UNL     1       4.087   2.652   1.248  0.00  0.00    +0.000 HD
ATOM     21  H   UNL     1       2.729   1.867   2.015  0.00  0.00    +0.000 HD
BRANCH  19  22
ATOM     22  C   UNL     1       2.305   2.784   0.150  0.00  0.00    +0.000 A 
ATOM     23  C   UNL     1       1.259   3.636   0.438  0.00  0.00    +0.000 A 
ATOM     24  N   UNL     1       0.683   4.101  -0.713  0.00  0.00    +0.000 NA
ATOM     25  C   UNL     1       1.371   3.566  -1.693  0.00  0.00    +0.000 A 
ATOM     26  N   UNL     1       2.367   2.755  -1.217  0.00  0.00    +0.000 N 
ATOM     27  H   UNL     1       0.888   3.931   1.408  0.00  0.00    +0.000 HD
ATOM     28  H   UNL     1       1.200   3.721  -2.747  0.00  0.00    +0.000 HD
ATOM     29  H   UNL     1       3.007   2.221  -1.779  0.00  0.00    +0.000 HD
ENDBRANCH  19  22
ENDBRANCH  17  19
ENDBRANCH   8  17
BRANCH  11  30
ATOM     30  N   UNL     1      -1.390  -0.515   0.693  0.00  0.00    +0.000 N 
ATOM     31  H   UNL     1      -0.825   0.313   0.856  0.00  0.00    +0.000 HD
BRANCH  30  32
ATOM     32  C   UNL     1      -2.567  -0.104   0.027  0.00  0.00    +0.000 A 
ATOM     33  C   UNL     1      -3.404   0.819   0.675  0.00  0.00    +0.000 A 
ATOM     34  C   UNL     1      -4.541   1.322   0.041  0.00  0.00    +0.000 A 
ATOM     35  C   UNL     1      -4.844   0.907  -1.249  0.00  0.00    +0.000 A 
ATOM     36  F   UNL     1      -5.929   1.415  -1.852  0.00  0.00    +0.000 F 
ATOM     37  C   UNL     1      -4.023  -0.005  -1.908  0.00  0.00    +0.000 A 
ATOM     38 CL   UNL     1      -4.383  -0.510  -3.515  0.00  0.00    +0.000 Cl
ATOM     39  C   UNL     1      -2.881  -0.506  -1.276  0.00  0.00    +0.000 A 
ATOM     40  H   UNL     1      -3.176   1.146   1.688  0.00  0.00    +0.000 HD
ATOM     41  H   UNL     1      -5.187   2.035   0.543  0.00  0.00    +0.000 HD
ATOM     42  H   UNL     1      -2.234  -1.192  -1.813  0.00  0.00    +0.000 HD
ENDBRANCH  30  32
ENDBRANCH  11  30
TORSDOF 6
