MODEL 1
REMARK VINA RESULT:    -7.438      0.000      0.000
REMARK INTER + INTRA:         -11.427
REMARK INTER:                 -10.482
REMARK INTRA:                  -0.945
REMARK UNBOUND:                -0.945
REMARK  Name = 
REMARK  9 active torsions:
REMARK  status: ('A' for Active; 'I' for Inactive)
REMARK    1  A    between atoms: C_1  and  O_2
REMARK    2  A    between atoms: O_2  and  C_3
REMARK    3  A    between atoms: C_3  and  C_5
REMARK    4  A    between atoms: C_5  and  N_6
REMARK    5  A    between atoms: N_6  and  C_7
REMARK    6  A    between atoms: N_6  and  C_8
REMARK    7  A    between atoms: C_12  and  C_13
REMARK    8  A    between atoms: C_14  and  O_15
REMARK    9  A    between atoms: O_15  and  C_16
REMARK                            x       y       z     vdW  Elec       q    Type
REMARK                         _______ _______ _______ _____ _____    ______ ____
ROOT
ATOM      1  C   UNL     1     -12.191  -1.867  17.234  0.00  0.00    +0.000 C 
ATOM      2  C   UNL     1     -11.612  -3.258  17.086  0.00  0.00    +0.000 C 
ATOM      3  C   UNL     1     -11.583  -3.988  18.417  0.00  0.00    +0.000 C 
ATOM      4  O   UNL     1     -11.940  -3.208  19.547  0.00  0.00    +0.000 OA
ATOM      5  C   UNL     1     -11.308  -1.919  19.671  0.00  0.00    +0.000 C 
ATOM      6  C   UNL     1     -11.430  -1.064  18.343  0.00  0.00    +0.000 C 
ATOM      7  N   UNL     1      -9.989  -2.132  20.239  0.00  0.00    +0.000 N 
ATOM      8  C   UNL     1      -9.298  -1.355  21.194  0.00  0.00    +0.000 A 
ATOM      9  C   UNL     1      -9.376   0.006  21.517  0.00  0.00    +0.000 A 
ATOM     10  C   UNL     1      -8.885   0.409  22.762  0.00  0.00    +0.000 A 
ATOM     11  C   UNL     1      -8.369  -0.519  23.661  0.00  0.00    +0.000 A 
ATOM     12  C   UNL     1      -8.053  -1.811  23.236  0.00  0.00    +0.000 A 
ATOM     13  C   UNL     1      -8.381  -2.194  21.925  0.00  0.00    +0.000 A 
ATOM     14  C   UNL     1      -8.067  -3.249  21.061  0.00  0.00    +0.000 A 
ATOM     15  C   UNL     1      -6.899  -4.018  21.010  0.00  0.00    +0.000 A 
ATOM     16  C   UNL     1      -6.860  -4.955  19.949  0.00  0.00    +0.000 A 
ATOM     17  C   UNL     1      -8.055  -5.004  19.204  0.00  0.00    +0.000 A 
ATOM     18  C   UNL     1      -8.348  -5.772  18.053  0.00  0.00    +0.000 A 
ATOM     19  C   UNL     1      -7.609  -6.507  17.101  0.00  0.00    +0.000 A 
ATOM     20  C   UNL     1      -8.277  -7.231  16.105  0.00  0.00    +0.000 A 
ATOM     21  C   UNL     1      -9.665  -7.322  16.096  0.00  0.00    +0.000 A 
ATOM     22  C   UNL     1     -10.435  -6.558  16.969  0.00  0.00    +0.000 A 
ATOM     23  C   UNL     1      -9.775  -5.691  17.856  0.00  0.00    +0.000 A 
ATOM     24  N   UNL     1     -10.307  -4.625  18.605  0.00  0.00    +0.000 N 
ATOM     25  C   UNL     1      -9.234  -4.268  19.333  0.00  0.00    +0.000 A 
ATOM     26  C   UNL     1      -9.171  -3.212  20.203  0.00  0.00    +0.000 A 
ATOM     27  C   UNL     1      -5.603  -5.627  19.967  0.00  0.00    +0.000 C 
ATOM     28  O   UNL     1      -5.119  -6.535  19.306  0.00  0.00    +0.000 OA
ATOM     29  N   UNL     1      -4.925  -5.016  21.026  0.00  0.00    +0.000 N 
ATOM     30  C   UNL     1      -5.618  -3.921  21.695  0.00  0.00    +0.000 C 
ATOM     31  H   UNL     1     -13.189  -2.036  17.668  0.00  0.00    +0.000 HD
ATOM     32  H   UNL     1     -12.208  -3.857  16.385  0.00  0.00    +0.000 HD
ATOM     33  H   UNL     1     -10.611  -3.216  16.640  0.00  0.00    +0.000 HD
ATOM     34  H   UNL     1     -12.320  -4.799  18.392  0.00  0.00    +0.000 HD
ATOM     35  H   UNL     1     -12.144  -0.269  18.594  0.00  0.00    +0.000 HD
ATOM     36  H   UNL     1      -9.831   0.725  20.841  0.00  0.00    +0.000 HD
ATOM     37  H   UNL     1      -8.963   1.454  23.054  0.00  0.00    +0.000 HD
ATOM     38  H   UNL     1      -8.172  -0.227  24.689  0.00  0.00    +0.000 HD
ATOM     39  H   UNL     1      -7.629  -2.532  23.928  0.00  0.00    +0.000 HD
ATOM     40  H   UNL     1      -6.524  -6.467  17.099  0.00  0.00    +0.000 HD
ATOM     41  H   UNL     1      -7.701  -7.748  15.342  0.00  0.00    +0.000 HD
ATOM     42  H   UNL     1     -10.161  -7.966  15.374  0.00  0.00    +0.000 HD
ATOM     43  H   UNL     1     -11.519  -6.610  16.931  0.00  0.00    +0.000 HD
ATOM     44  H   UNL     1      -4.002  -5.338  21.275  0.00  0.00    +0.000 HD
ATOM     45  H   UNL     1      -5.100  -2.988  21.447  0.00  0.00    +0.000 HD
ATOM     46  H   UNL     1      -5.667  -4.092  22.769  0.00  0.00    +0.000 HD
ENDROOT
BRANCH   5  47
ATOM     47  C   UNL     1     -12.219  -1.256  20.748  0.00  0.00    +0.000 C 
ATOM     48  H   UNL     1     -13.201  -0.975  20.354  0.00  0.00    +0.000 HD
ATOM     49  H   UNL     1     -12.379  -1.937  21.592  0.00  0.00    +0.000 HD
ATOM     50  H   UNL     1     -11.754  -0.356  21.171  0.00  0.00    +0.000 HD
ENDBRANCH   5  47
BRANCH   1  51
ATOM     51  N   UNL     1     -12.514  -1.254  15.935  0.00  0.00    +0.000 NA
BRANCH  51  52
ATOM     52  C   UNL     1     -13.745  -0.488  15.799  0.00  0.00    +0.000 C 
ATOM     53  H   UNL     1     -14.257  -0.687  14.851  0.00  0.00    +0.000 HD
ATOM     54  H   UNL     1     -14.471  -0.798  16.561  0.00  0.00    +0.000 HD
ATOM     55  H   UNL     1     -13.584   0.589  15.890  0.00  0.00    +0.000 HD
ENDBRANCH  51  52
BRANCH  51  56
ATOM     56  C   UNL     1     -12.245  -2.118  14.777  0.00  0.00    +0.000 C 
ATOM     57  H   UNL     1     -13.112  -2.179  14.109  0.00  0.00    +0.000 HD
ATOM     58  H   UNL     1     -11.989  -3.140  15.081  0.00  0.00    +0.000 HD
BRANCH  56  59
ATOM     59  C   UNL     1     -11.033  -1.608  14.005  0.00  0.00    +0.000 C 
ATOM     60  O   UNL     1     -10.406  -0.607  14.298  0.00  0.00    +0.000 OA
BRANCH  59  61
ATOM     61  O   UNL     1     -10.775  -2.418  12.937  0.00  0.00    +0.000 OA
BRANCH  61  62
ATOM     62  C   UNL     1     -11.531  -3.627  12.898  0.00  0.00    +0.000 C 
ATOM     63  H   UNL     1     -10.956  -4.360  12.326  0.00  0.00    +0.000 HD
ATOM     64  H   UNL     1     -11.706  -4.036  13.897  0.00  0.00    +0.000 HD
ATOM     65  H   UNL     1     -12.479  -3.446  12.383  0.00  0.00    +0.000 HD
ENDBRANCH  61  62
ENDBRANCH  59  61
ENDBRANCH  56  59
ENDBRANCH  51  56
ENDBRANCH   1  51
BRANCH   6  66
ATOM     66  O   UNL     1     -10.331  -0.262  17.893  0.00  0.00    +0.000 OA
BRANCH  66  67
ATOM     67  C   UNL     1     -10.356   1.142  18.055  0.00  0.00    +0.000 C 
ATOM     68  H   UNL     1      -9.438   1.630  17.734  0.00  0.00    +0.000 HD
ATOM     69  H   UNL     1     -11.180   1.531  17.447  0.00  0.00    +0.000 HD
ATOM     70  H   UNL     1     -10.594   1.407  19.086  0.00  0.00    +0.000 HD
ENDBRANCH  66  67
ENDBRANCH   6  66
TORSDOF 9
ENDMDL
MODEL 2
REMARK VINA RESULT:    -7.416      1.998      3.793
REMARK INTER + INTRA:         -11.396
REMARK INTER:                 -10.604
REMARK INTRA:                  -0.792
REMARK UNBOUND:                -0.945
REMARK  Name = 
REMARK  9 active torsions:
REMARK  status: ('A' for Active; 'I' for Inactive)
REMARK    1  A    between atoms: C_1  and  O_2
REMARK    2  A    between atoms: O_2  and  C_3
REMARK    3  A    between atoms: C_3  and  C_5
REMARK    4  A    between atoms: C_5  and  N_6
REMARK    5  A    between atoms: N_6  and  C_7
REMARK    6  A    between atoms: N_6  and  C_8
REMARK    7  A    between atoms: C_12  and  C_13
REMARK    8  A    between atoms: C_14  and  O_15
REMARK    9  A    between atoms: O_15  and  C_16
REMARK                            x       y       z     vdW  Elec       q    Type
REMARK                         _______ _______ _______ _____ _____    ______ ____
ROOT
ATOM      1  C   UNL     1     -10.949  -2.723  14.260  0.00  0.00    +0.000 C 
ATOM      2  C   UNL     1     -10.429  -3.770  15.221  0.00  0.00    +0.000 C 
ATOM      3  C   UNL     1     -11.344  -3.919  16.423  0.00  0.00    +0.000 C 
ATOM      4  O   UNL     1     -12.398  -2.973  16.507  0.00  0.00    +0.000 OA
ATOM      5  C   UNL     1     -12.042  -1.588  16.320  0.00  0.00    +0.000 C 
ATOM      6  C   UNL     1     -11.195  -1.363  14.999  0.00  0.00    +0.000 C 
ATOM      7  N   UNL     1     -11.507  -1.101  17.578  0.00  0.00    +0.000 N 
ATOM      8  C   UNL     1     -11.694   0.156  18.194  0.00  0.00    +0.000 A 
ATOM      9  C   UNL     1     -11.983   1.419  17.660  0.00  0.00    +0.000 A 
ATOM     10  C   UNL     1     -12.514   2.384  18.520  0.00  0.00    +0.000 A 
ATOM     11  C   UNL     1     -12.779   2.084  19.853  0.00  0.00    +0.000 A 
ATOM     12  C   UNL     1     -12.250   0.930  20.434  0.00  0.00    +0.000 A 
ATOM     13  C   UNL     1     -11.556   0.018  19.622  0.00  0.00    +0.000 A 
ATOM     14  C   UNL     1     -10.721  -1.088  19.813  0.00  0.00    +0.000 A 
ATOM     15  C   UNL     1      -9.854  -1.353  20.879  0.00  0.00    +0.000 A 
ATOM     16  C   UNL     1      -9.073  -2.525  20.724  0.00  0.00    +0.000 A 
ATOM     17  C   UNL     1      -9.395  -3.258  19.564  0.00  0.00    +0.000 A 
ATOM     18  C   UNL     1      -8.787  -4.435  19.065  0.00  0.00    +0.000 A 
ATOM     19  C   UNL     1      -7.590  -5.142  19.299  0.00  0.00    +0.000 A 
ATOM     20  C   UNL     1      -7.358  -6.360  18.645  0.00  0.00    +0.000 A 
ATOM     21  C   UNL     1      -8.335  -6.937  17.842  0.00  0.00    +0.000 A 
ATOM     22  C   UNL     1      -9.499  -6.243  17.525  0.00  0.00    +0.000 A 
ATOM     23  C   UNL     1      -9.660  -4.944  18.035  0.00  0.00    +0.000 A 
ATOM     24  N   UNL     1     -10.570  -3.948  17.635  0.00  0.00    +0.000 N 
ATOM     25  C   UNL     1     -10.324  -2.998  18.555  0.00  0.00    +0.000 A 
ATOM     26  C   UNL     1     -10.898  -1.755  18.596  0.00  0.00    +0.000 A 
ATOM     27  C   UNL     1      -8.192  -2.650  21.837  0.00  0.00    +0.000 C 
ATOM     28  O   UNL     1      -7.380  -3.497  22.182  0.00  0.00    +0.000 OA
ATOM     29  N   UNL     1      -8.462  -1.505  22.592  0.00  0.00    +0.000 N 
ATOM     30  C   UNL     1      -9.429  -0.569  22.030  0.00  0.00    +0.000 C 
ATOM     31  H   UNL     1     -11.962  -3.071  14.005  0.00  0.00    +0.000 HD
ATOM     32  H   UNL     1     -10.354  -4.749  14.729  0.00  0.00    +0.000 HD
ATOM     33  H   UNL     1      -9.405  -3.534  15.535  0.00  0.00    +0.000 HD
ATOM     34  H   UNL     1     -11.846  -4.892  16.367  0.00  0.00    +0.000 HD
ATOM     35  H   UNL     1     -11.882  -0.842  14.320  0.00  0.00    +0.000 HD
ATOM     36  H   UNL     1     -11.832   1.638  16.607  0.00  0.00    +0.000 HD
ATOM     37  H   UNL     1     -12.780   3.363  18.127  0.00  0.00    +0.000 HD
ATOM     38  H   UNL     1     -13.366   2.771  20.457  0.00  0.00    +0.000 HD
ATOM     39  H   UNL     1     -12.436   0.704  21.480  0.00  0.00    +0.000 HD
ATOM     40  H   UNL     1      -6.819  -4.721  19.938  0.00  0.00    +0.000 HD
ATOM     41  H   UNL     1      -6.409  -6.871  18.787  0.00  0.00    +0.000 HD
ATOM     42  H   UNL     1      -8.174  -7.926  17.421  0.00  0.00    +0.000 HD
ATOM     43  H   UNL     1     -10.241  -6.689  16.869  0.00  0.00    +0.000 HD
ATOM     44  H   UNL     1      -7.981  -1.365  23.468  0.00  0.00    +0.000 HD
ATOM     45  H   UNL     1      -8.891   0.334  21.724  0.00  0.00    +0.000 HD
ATOM     46  H   UNL     1     -10.221  -0.355  22.746  0.00  0.00    +0.000 HD
ENDROOT
BRANCH   5  47
ATOM     47  C   UNL     1     -13.450  -0.959  16.093  0.00  0.00    +0.000 C 
ATOM     48  H   UNL     1     -13.716  -0.892  15.033  0.00  0.00    +0.000 HD
ATOM     49  H   UNL     1     -14.224  -1.552  16.595  0.00  0.00    +0.000 HD
ATOM     50  H   UNL     1     -13.516   0.048  16.524  0.00  0.00    +0.000 HD
ENDBRANCH   5  47
BRANCH   1  51
ATOM     51  N   UNL     1     -10.265  -2.768  12.958  0.00  0.00    +0.000 NA
BRANCH  51  52
ATOM     52  C   UNL     1      -8.838  -2.481  12.896  0.00  0.00    +0.000 C 
ATOM     53  H   UNL     1      -8.588  -1.510  13.338  0.00  0.00    +0.000 HD
ATOM     54  H   UNL     1      -8.280  -3.200  13.508  0.00  0.00    +0.000 HD
ATOM     55  H   UNL     1      -8.445  -2.514  11.877  0.00  0.00    +0.000 HD
ENDBRANCH  51  52
BRANCH  51  56
ATOM     56  C   UNL     1     -11.020  -2.155  11.857  0.00  0.00    +0.000 C 
ATOM     57  H   UNL     1     -10.357  -1.805  11.058  0.00  0.00    +0.000 HD
ATOM     58  H   UNL     1     -11.611  -1.296  12.197  0.00  0.00    +0.000 HD
BRANCH  56  59
ATOM     59  C   UNL     1     -12.032  -3.146  11.292  0.00  0.00    +0.000 C 
ATOM     60  O   UNL     1     -11.739  -4.108  10.607  0.00  0.00    +0.000 OA
BRANCH  59  61
ATOM     61  O   UNL     1     -13.300  -2.781  11.643  0.00  0.00    +0.000 OA
BRANCH  61  62
ATOM     62  C   UNL     1     -13.494  -1.384  11.849  0.00  0.00    +0.000 C 
ATOM     63  H   UNL     1     -14.155  -1.263  12.711  0.00  0.00    +0.000 HD
ATOM     64  H   UNL     1     -12.555  -0.865  12.064  0.00  0.00    +0.000 HD
ATOM     65  H   UNL     1     -13.981  -0.952  10.970  0.00  0.00    +0.000 HD
ENDBRANCH  61  62
ENDBRANCH  59  61
ENDBRANCH  56  59
ENDBRANCH  51  56
ENDBRANCH   1  51
BRANCH   6  66
ATOM     66  O   UNL     1     -10.102  -0.437  14.989  0.00  0.00    +0.000 OA
BRANCH  66  67
ATOM     67  C   UNL     1     -10.234   0.818  14.353  0.00  0.00    +0.000 C 
ATOM     68  H   UNL     1      -9.285   1.244  14.036  0.00  0.00    +0.000 HD
ATOM     69  H   UNL     1     -10.858   0.676  13.464  0.00  0.00    +0.000 HD
ATOM     70  H   UNL     1     -10.778   1.517  14.990  0.00  0.00    +0.000 HD
ENDBRANCH  66  67
ENDBRANCH   6  66
TORSDOF 9
ENDMDL
MODEL 3
REMARK VINA RESULT:    -6.942      3.217      6.897
REMARK INTER + INTRA:         -10.727
REMARK INTER:                  -9.817
REMARK INTRA:                  -0.910
REMARK UNBOUND:                -0.945
REMARK  Name = 
REMARK  9 active torsions:
REMARK  status: ('A' for Active; 'I' for Inactive)
REMARK    1  A    between atoms: C_1  and  O_2
REMARK    2  A    between atoms: O_2  and  C_3
REMARK    3  A    between atoms: C_3  and  C_5
REMARK    4  A    between atoms: C_5  and  N_6
REMARK    5  A    between atoms: N_6  and  C_7
REMARK    6  A    between atoms: N_6  and  C_8
REMARK    7  A    between atoms: C_12  and  C_13
REMARK    8  A    between atoms: C_14  and  O_15
REMARK    9  A    between atoms: O_15  and  C_16
REMARK                            x       y       z     vdW  Elec       q    Type
REMARK                         _______ _______ _______ _____ _____    ______ ____
ROOT
ATOM      1  C   UNL     1     -10.891  -1.734  18.715  0.00  0.00    +0.000 C 
ATOM      2  C   UNL     1     -10.871  -1.883  20.222  0.00  0.00    +0.000 C 
ATOM      3  C   UNL     1     -11.806  -0.889  20.887  0.00  0.00    +0.000 C 
ATOM      4  O   UNL     1     -12.387   0.073  20.021  0.00  0.00    +0.000 OA
ATOM      5  C   UNL     1     -11.494   0.756  19.117  0.00  0.00    +0.000 C 
ATOM      6  C   UNL     1     -10.588  -0.255  18.299  0.00  0.00    +0.000 C 
ATOM      7  N   UNL     1     -10.848   1.820  19.862  0.00  0.00    +0.000 N 
ATOM      8  C   UNL     1     -10.528   3.130  19.443  0.00  0.00    +0.000 A 
ATOM      9  C   UNL     1     -10.262   3.659  18.172  0.00  0.00    +0.000 A 
ATOM     10  C   UNL     1     -10.383   5.041  18.005  0.00  0.00    +0.000 A 
ATOM     11  C   UNL     1     -10.788   5.856  19.058  0.00  0.00    +0.000 A 
ATOM     12  C   UNL     1     -10.792   5.366  20.366  0.00  0.00    +0.000 A 
ATOM     13  C   UNL     1     -10.503   4.009  20.584  0.00  0.00    +0.000 A 
ATOM     14  C   UNL     1     -10.195   3.195  21.679  0.00  0.00    +0.000 A 
ATOM     15  C   UNL     1      -9.544   3.541  22.869  0.00  0.00    +0.000 A 
ATOM     16  C   UNL     1      -9.302   2.453  23.743  0.00  0.00    +0.000 A 
ATOM     17  C   UNL     1      -9.856   1.239  23.289  0.00  0.00    +0.000 A 
ATOM     18  C   UNL     1      -9.763  -0.047  23.870  0.00  0.00    +0.000 A 
ATOM     19  C   UNL     1      -8.964  -0.667  24.854  0.00  0.00    +0.000 A 
ATOM     20  C   UNL     1      -9.225  -1.989  25.236  0.00  0.00    +0.000 A 
ATOM     21  C   UNL     1     -10.326  -2.674  24.734  0.00  0.00    +0.000 A 
ATOM     22  C   UNL     1     -11.099  -2.130  23.711  0.00  0.00    +0.000 A 
ATOM     23  C   UNL     1     -10.735  -0.874  23.197  0.00  0.00    +0.000 A 
ATOM     24  N   UNL     1     -11.148  -0.259  22.001  0.00  0.00    +0.000 N 
ATOM     25  C   UNL     1     -10.568   0.948  22.124  0.00  0.00    +0.000 A 
ATOM     26  C   UNL     1     -10.588   1.946  21.187  0.00  0.00    +0.000 A 
ATOM     27  C   UNL     1      -8.583   2.920  24.881  0.00  0.00    +0.000 C 
ATOM     28  O   UNL     1      -8.195   2.391  25.913  0.00  0.00    +0.000 OA
ATOM     29  N   UNL     1      -8.389   4.277  24.605  0.00  0.00    +0.000 N 
ATOM     30  C   UNL     1      -8.874   4.754  23.316  0.00  0.00    +0.000 C 
ATOM     31  H   UNL     1     -11.950  -1.872  18.446  0.00  0.00    +0.000 HD
ATOM     32  H   UNL     1     -11.185  -2.893  20.518  0.00  0.00    +0.000 HD
ATOM     33  H   UNL     1      -9.850  -1.781  20.608  0.00  0.00    +0.000 HD
ATOM     34  H   UNL     1     -12.657  -1.433  21.312  0.00  0.00    +0.000 HD
ATOM     35  H   UNL     1     -10.982  -0.208  17.276  0.00  0.00    +0.000 HD
ATOM     36  H   UNL     1     -10.002   3.020  17.333  0.00  0.00    +0.000 HD
ATOM     37  H   UNL     1     -10.216   5.478  17.023  0.00  0.00    +0.000 HD
ATOM     38  H   UNL     1     -11.065   6.889  18.869  0.00  0.00    +0.000 HD
ATOM     39  H   UNL     1     -11.087   6.005  21.193  0.00  0.00    +0.000 HD
ATOM     40  H   UNL     1      -8.109  -0.146  25.274  0.00  0.00    +0.000 HD
ATOM     41  H   UNL     1      -8.571  -2.478  25.952  0.00  0.00    +0.000 HD
ATOM     42  H   UNL     1     -10.568  -3.663  25.114  0.00  0.00    +0.000 HD
ATOM     43  H   UNL     1     -11.936  -2.688  23.302  0.00  0.00    +0.000 HD
ATOM     44  H   UNL     1      -7.920   4.858  25.284  0.00  0.00    +0.000 HD
ATOM     45  H   UNL     1      -8.007   4.987  22.690  0.00  0.00    +0.000 HD
ATOM     46  H   UNL     1      -9.533   5.611  23.443  0.00  0.00    +0.000 HD
ENDROOT
BRANCH   5  47
ATOM     47  C   UNL     1     -12.518   1.385  18.125  0.00  0.00    +0.000 C 
ATOM     48  H   UNL     1     -13.182   2.110  18.608  0.00  0.00    +0.000 HD
ATOM     49  H   UNL     1     -11.998   1.900  17.309  0.00  0.00    +0.000 HD
ATOM     50  H   UNL     1     -13.142   0.618  17.649  0.00  0.00    +0.000 HD
ENDBRANCH   5  47
BRANCH   1  51
ATOM     51  N   UNL     1     -10.243  -2.866  18.032  0.00  0.00    +0.000 NA
BRANCH  51  52
ATOM     52  C   UNL     1     -10.324  -2.959  16.581  0.00  0.00    +0.000 C 
ATOM     53  H   UNL     1     -11.012  -3.744  16.252  0.00  0.00    +0.000 HD
ATOM     54  H   UNL     1     -10.755  -2.040  16.166  0.00  0.00    +0.000 HD
ATOM     55  H   UNL     1      -9.351  -3.128  16.114  0.00  0.00    +0.000 HD
ENDBRANCH  51  52
BRANCH  51  56
ATOM     56  C   UNL     1     -10.429  -4.161  18.701  0.00  0.00    +0.000 C 
ATOM     57  H   UNL     1     -11.188  -4.770  18.197  0.00  0.00    +0.000 HD
ATOM     58  H   UNL     1     -10.742  -4.040  19.745  0.00  0.00    +0.000 HD
BRANCH  56  59
ATOM     59  C   UNL     1      -9.109  -4.922  18.758  0.00  0.00    +0.000 C 
ATOM     60  O   UNL     1      -8.834  -5.871  18.047  0.00  0.00    +0.000 OA
BRANCH  59  61
ATOM     61  O   UNL     1      -8.304  -4.403  19.730  0.00  0.00    +0.000 OA
BRANCH  61  62
ATOM     62  C   UNL     1      -7.076  -5.099  19.936  0.00  0.00    +0.000 C 
ATOM     63  H   UNL     1      -6.488  -4.529  20.660  0.00  0.00    +0.000 HD
ATOM     64  H   UNL     1      -7.234  -6.103  20.339  0.00  0.00    +0.000 HD
ATOM     65  H   UNL     1      -6.523  -5.144  18.994  0.00  0.00    +0.000 HD
ENDBRANCH  61  62
ENDBRANCH  59  61
ENDBRANCH  56  59
ENDBRANCH  51  56
ENDBRANCH   1  51
BRANCH   6  66
ATOM     66  O   UNL     1      -9.213   0.054  18.039  0.00  0.00    +0.000 OA
BRANCH  66  67
ATOM     67  C   UNL     1      -8.808   0.486  16.755  0.00  0.00    +0.000 C 
ATOM     68  H   UNL     1      -8.613  -0.332  16.066  0.00  0.00    +0.000 HD
ATOM     69  H   UNL     1      -9.618   1.096  16.340  0.00  0.00    +0.000 HD
ATOM     70  H   UNL     1      -7.943   1.147  16.826  0.00  0.00    +0.000 HD
ENDBRANCH  66  67
ENDBRANCH   6  66
TORSDOF 9
ENDMDL
MODEL 4
REMARK VINA RESULT:    -6.881      2.005      3.570
REMARK INTER + INTRA:         -10.642
REMARK INTER:                 -10.036
REMARK INTRA:                  -0.606
REMARK UNBOUND:                -0.945
REMARK  Name = 
REMARK  9 active torsions:
REMARK  status: ('A' for Active; 'I' for Inactive)
REMARK    1  A    between atoms: C_1  and  O_2
REMARK    2  A    between atoms: O_2  and  C_3
REMARK    3  A    between atoms: C_3  and  C_5
REMARK    4  A    between atoms: C_5  and  N_6
REMARK    5  A    between atoms: N_6  and  C_7
REMARK    6  A    between atoms: N_6  and  C_8
REMARK    7  A    between atoms: C_12  and  C_13
REMARK    8  A    between atoms: C_14  and  O_15
REMARK    9  A    between atoms: O_15  and  C_16
REMARK                            x       y       z     vdW  Elec       q    Type
REMARK                         _______ _______ _______ _____ _____    ______ ____
ROOT
ATOM      1  C   UNL     1     -11.390  -2.674  14.218  0.00  0.00    +0.000 C 
ATOM      2  C   UNL     1     -10.879  -3.778  15.120  0.00  0.00    +0.000 C 
ATOM      3  C   UNL     1     -11.697  -3.872  16.395  0.00  0.00    +0.000 C 
ATOM      4  O   UNL     1     -12.656  -2.843  16.581  0.00  0.00    +0.000 OA
ATOM      5  C   UNL     1     -12.203  -1.489  16.377  0.00  0.00    +0.000 C 
ATOM      6  C   UNL     1     -11.456  -1.313  14.990  0.00  0.00    +0.000 C 
ATOM      7  N   UNL     1     -11.522  -1.070  17.589  0.00  0.00    +0.000 N 
ATOM      8  C   UNL     1     -11.549   0.187  18.232  0.00  0.00    +0.000 A 
ATOM      9  C   UNL     1     -11.775   1.479  17.737  0.00  0.00    +0.000 A 
ATOM     10  C   UNL     1     -12.147   2.469  18.651  0.00  0.00    +0.000 A 
ATOM     11  C   UNL     1     -12.320   2.169  19.998  0.00  0.00    +0.000 A 
ATOM     12  C   UNL     1     -11.843   0.965  20.519  0.00  0.00    +0.000 A 
ATOM     13  C   UNL     1     -11.301   0.013  19.641  0.00  0.00    +0.000 A 
ATOM     14  C   UNL     1     -10.548  -1.162  19.747  0.00  0.00    +0.000 A 
ATOM     15  C   UNL     1      -9.618  -1.517  20.731  0.00  0.00    +0.000 A 
ATOM     16  C   UNL     1      -8.955  -2.747  20.495  0.00  0.00    +0.000 A 
ATOM     17  C   UNL     1      -9.436  -3.430  19.361  0.00  0.00    +0.000 A 
ATOM     18  C   UNL     1      -8.975  -4.644  18.799  0.00  0.00    +0.000 A 
ATOM     19  C   UNL     1      -7.826  -5.453  18.920  0.00  0.00    +0.000 A 
ATOM     20  C   UNL     1      -7.754  -6.674  18.236  0.00  0.00    +0.000 A 
ATOM     21  C   UNL     1      -8.842  -7.154  17.515  0.00  0.00    +0.000 A 
ATOM     22  C   UNL     1      -9.967  -6.359  17.309  0.00  0.00    +0.000 A 
ATOM     23  C   UNL     1      -9.973  -5.061  17.844  0.00  0.00    +0.000 A 
ATOM     24  N   UNL     1     -10.826  -3.985  17.535  0.00  0.00    +0.000 N 
ATOM     25  C   UNL     1     -10.424  -3.075  18.440  0.00  0.00    +0.000 A 
ATOM     26  C   UNL     1     -10.885  -1.790  18.543  0.00  0.00    +0.000 A 
ATOM     27  C   UNL     1      -7.995  -2.964  21.526  0.00  0.00    +0.000 C 
ATOM     28  O   UNL     1      -7.231  -3.881  21.790  0.00  0.00    +0.000 OA
ATOM     29  N   UNL     1      -8.102  -1.814  22.314  0.00  0.00    +0.000 N 
ATOM     30  C   UNL     1      -9.031  -0.791  21.848  0.00  0.00    +0.000 C 
ATOM     31  H   UNL     1     -12.447  -2.933  14.049  0.00  0.00    +0.000 HD
ATOM     32  H   UNL     1     -10.930  -4.751  14.613  0.00  0.00    +0.000 HD
ATOM     33  H   UNL     1      -9.816  -3.634  15.345  0.00  0.00    +0.000 HD
ATOM     34  H   UNL     1     -12.282  -4.798  16.374  0.00  0.00    +0.000 HD
ATOM     35  H   UNL     1     -12.152  -0.724  14.379  0.00  0.00    +0.000 HD
ATOM     36  H   UNL     1     -11.697   1.703  16.677  0.00  0.00    +0.000 HD
ATOM     37  H   UNL     1     -12.362   3.474  18.292  0.00  0.00    +0.000 HD
ATOM     38  H   UNL     1     -12.793   2.891  20.658  0.00  0.00    +0.000 HD
ATOM     39  H   UNL     1     -11.956   0.737  21.575  0.00  0.00    +0.000 HD
ATOM     40  H   UNL     1      -6.970  -5.108  19.493  0.00  0.00    +0.000 HD
ATOM     41  H   UNL     1      -6.844  -7.264  18.290  0.00  0.00    +0.000 HD
ATOM     42  H   UNL     1      -8.802  -8.145  17.072  0.00  0.00    +0.000 HD
ATOM     43  H   UNL     1     -10.797  -6.731  16.715  0.00  0.00    +0.000 HD
ATOM     44  H   UNL     1      -7.537  -1.730  23.146  0.00  0.00    +0.000 HD
ATOM     45  H   UNL     1      -8.447   0.069  21.505  0.00  0.00    +0.000 HD
ATOM     46  H   UNL     1      -9.737  -0.524  22.633  0.00  0.00    +0.000 HD
ENDROOT
BRANCH   5  47
ATOM     47  C   UNL     1     -13.566  -0.741  16.281  0.00  0.00    +0.000 C 
ATOM     48  H   UNL     1     -14.152  -1.045  15.407  0.00  0.00    +0.000 HD
ATOM     49  H   UNL     1     -14.175  -0.931  17.173  0.00  0.00    +0.000 HD
ATOM     50  H   UNL     1     -13.428   0.346  16.235  0.00  0.00    +0.000 HD
ENDBRANCH   5  47
BRANCH   1  51
ATOM     51  N   UNL     1     -10.826  -2.754  12.861  0.00  0.00    +0.000 NA
BRANCH  51  52
ATOM     52  C   UNL     1     -11.418  -3.673  11.900  0.00  0.00    +0.000 C 
ATOM     53  H   UNL     1     -11.951  -4.498  12.384  0.00  0.00    +0.000 HD
ATOM     54  H   UNL     1     -12.196  -3.164  11.317  0.00  0.00    +0.000 HD
ATOM     55  H   UNL     1     -10.683  -4.091  11.207  0.00  0.00    +0.000 HD
ENDBRANCH  51  52
BRANCH  51  56
ATOM     56  C   UNL     1      -9.357  -2.746  12.817  0.00  0.00    +0.000 C 
ATOM     57  H   UNL     1      -8.962  -3.656  12.352  0.00  0.00    +0.000 HD
ATOM     58  H   UNL     1      -8.920  -2.669  13.819  0.00  0.00    +0.000 HD
BRANCH  56  59
ATOM     59  C   UNL     1      -8.857  -1.520  12.059  0.00  0.00    +0.000 C 
ATOM     60  O   UNL     1      -7.846  -0.905  12.344  0.00  0.00    +0.000 OA
BRANCH  59  61
ATOM     61  O   UNL     1      -9.715  -1.207  11.045  0.00  0.00    +0.000 OA
BRANCH  61  62
ATOM     62  C   UNL     1      -9.205  -1.424   9.731  0.00  0.00    +0.000 C 
ATOM     63  H   UNL     1      -9.587  -2.386   9.381  0.00  0.00    +0.000 HD
ATOM     64  H   UNL     1      -9.531  -0.652   9.029  0.00  0.00    +0.000 HD
ATOM     65  H   UNL     1      -8.113  -1.474   9.769  0.00  0.00    +0.000 HD
ENDBRANCH  61  62
ENDBRANCH  59  61
ENDBRANCH  56  59
ENDBRANCH  51  56
ENDBRANCH   1  51
BRANCH   6  66
ATOM     66  O   UNL     1     -10.294  -0.481  14.894  0.00  0.00    +0.000 OA
BRANCH  66  67
ATOM     67  C   UNL     1     -10.394   0.830  14.374  0.00  0.00    +0.000 C 
ATOM     68  H   UNL     1     -10.335   1.603  15.138  0.00  0.00    +0.000 HD
ATOM     69  H   UNL     1      -9.561   0.975  13.677  0.00  0.00    +0.000 HD
ATOM     70  H   UNL     1     -11.302   0.942  13.781  0.00  0.00    +0.000 HD
ENDBRANCH  66  67
ENDBRANCH   6  66
TORSDOF 9
ENDMDL
MODEL 5
REMARK VINA RESULT:    -6.652      2.798      4.316
REMARK INTER + INTRA:         -10.319
REMARK INTER:                  -9.329
REMARK INTRA:                  -0.990
REMARK UNBOUND:                -0.945
REMARK  Name = 
REMARK  9 active torsions:
REMARK  status: ('A' for Active; 'I' for Inactive)
REMARK    1  A    between atoms: C_1  and  O_2
REMARK    2  A    between atoms: O_2  and  C_3
REMARK    3  A    between atoms: C_3  and  C_5
REMARK    4  A    between atoms: C_5  and  N_6
REMARK    5  A    between atoms: N_6  and  C_7
REMARK    6  A    between atoms: N_6  and  C_8
REMARK    7  A    between atoms: C_12  and  C_13
REMARK    8  A    between atoms: C_14  and  O_15
REMARK    9  A    between atoms: O_15  and  C_16
REMARK                            x       y       z     vdW  Elec       q    Type
REMARK                         _______ _______ _______ _____ _____    ______ ____
ROOT
ATOM      1  C   UNL     1      -9.913  -0.018  16.222  0.00  0.00    +0.000 C 
ATOM      2  C   UNL     1      -9.707  -1.368  16.874  0.00  0.00    +0.000 C 
ATOM      3  C   UNL     1     -10.807  -1.670  17.877  0.00  0.00    +0.000 C 
ATOM      4  O   UNL     1     -11.708  -0.604  18.131  0.00  0.00    +0.000 OA
ATOM      5  C   UNL     1     -11.125   0.687  18.404  0.00  0.00    +0.000 C 
ATOM      6  C   UNL     1     -10.063   1.105  17.304  0.00  0.00    +0.000 C 
ATOM      7  N   UNL     1     -10.721   0.698  19.797  0.00  0.00    +0.000 N 
ATOM      8  C   UNL     1     -10.810   1.747  20.738  0.00  0.00    +0.000 A 
ATOM      9  C   UNL     1     -10.822   3.140  20.579  0.00  0.00    +0.000 A 
ATOM     10  C   UNL     1     -11.328   3.911  21.629  0.00  0.00    +0.000 A 
ATOM     11  C   UNL     1     -11.834   3.309  22.777  0.00  0.00    +0.000 A 
ATOM     12  C   UNL     1     -11.578   1.962  23.038  0.00  0.00    +0.000 A 
ATOM     13  C   UNL     1     -10.913   1.196  22.066  0.00  0.00    +0.000 A 
ATOM     14  C   UNL     1     -10.291  -0.055  22.003  0.00  0.00    +0.000 A 
ATOM     15  C   UNL     1      -9.646  -0.762  23.023  0.00  0.00    +0.000 A 
ATOM     16  C   UNL     1      -9.035  -1.970  22.605  0.00  0.00    +0.000 A 
ATOM     17  C   UNL     1      -9.282  -2.280  21.253  0.00  0.00    +0.000 A 
ATOM     18  C   UNL     1      -8.788  -3.365  20.491  0.00  0.00    +0.000 A 
ATOM     19  C   UNL     1      -7.759  -4.320  20.624  0.00  0.00    +0.000 A 
ATOM     20  C   UNL     1      -7.615  -5.331  19.664  0.00  0.00    +0.000 A 
ATOM     21  C   UNL     1      -8.533  -5.470  18.629  0.00  0.00    +0.000 A 
ATOM     22  C   UNL     1      -9.519  -4.510  18.417  0.00  0.00    +0.000 A 
ATOM     23  C   UNL     1      -9.560  -3.397  19.273  0.00  0.00    +0.000 A 
ATOM     24  N   UNL     1     -10.239  -2.177  19.097  0.00  0.00    +0.000 N 
ATOM     25  C   UNL     1      -9.997  -1.581  20.279  0.00  0.00    +0.000 A 
ATOM     26  C   UNL     1     -10.378  -0.314  20.631  0.00  0.00    +0.000 A 
ATOM     27  C   UNL     1      -8.362  -2.560  23.714  0.00  0.00    +0.000 C 
ATOM     28  O   UNL     1      -7.747  -3.606  23.872  0.00  0.00    +0.000 OA
ATOM     29  N   UNL     1      -8.569  -1.639  24.745  0.00  0.00    +0.000 N 
ATOM     30  C   UNL     1      -9.289  -0.421  24.393  0.00  0.00    +0.000 C 
ATOM     31  H   UNL     1     -10.916  -0.086  15.772  0.00  0.00    +0.000 HD
ATOM     32  H   UNL     1      -9.706  -2.168  16.123  0.00  0.00    +0.000 HD
ATOM     33  H   UNL     1      -8.719  -1.424  17.347  0.00  0.00    +0.000 HD
ATOM     34  H   UNL     1     -11.434  -2.477  17.482  0.00  0.00    +0.000 HD
ATOM     35  H   UNL     1     -10.553   1.913  16.745  0.00  0.00    +0.000 HD
ATOM     36  H   UNL     1     -10.481   3.609  19.660  0.00  0.00    +0.000 HD
ATOM     37  H   UNL     1     -11.382   4.992  21.521  0.00  0.00    +0.000 HD
ATOM     38  H   UNL     1     -12.397   3.899  23.495  0.00  0.00    +0.000 HD
ATOM     39  H   UNL     1     -11.953   1.494  23.943  0.00  0.00    +0.000 HD
ATOM     40  H   UNL     1      -7.040  -4.244  21.435  0.00  0.00    +0.000 HD
ATOM     41  H   UNL     1      -6.786  -6.029  19.743  0.00  0.00    +0.000 HD
ATOM     42  H   UNL     1      -8.460  -6.316  17.951  0.00  0.00    +0.000 HD
ATOM     43  H   UNL     1     -10.210  -4.610  17.585  0.00  0.00    +0.000 HD
ATOM     44  H   UNL     1      -8.212  -1.839  25.668  0.00  0.00    +0.000 HD
ATOM     45  H   UNL     1      -8.582   0.415  24.427  0.00  0.00    +0.000 HD
ATOM     46  H   UNL     1     -10.139  -0.268  25.056  0.00  0.00    +0.000 HD
ENDROOT
BRANCH   5  47
ATOM     47  C   UNL     1     -12.372   1.606  18.232  0.00  0.00    +0.000 C 
ATOM     48  H   UNL     1     -12.152   2.658  18.442  0.00  0.00    +0.000 HD
ATOM     49  H   UNL     1     -12.761   1.543  17.209  0.00  0.00    +0.000 HD
ATOM     50  H   UNL     1     -13.196   1.294  18.888  0.00  0.00    +0.000 HD
ENDBRANCH   5  47
BRANCH   1  51
ATOM     51  N   UNL     1      -9.053   0.171  15.043  0.00  0.00    +0.000 NA
BRANCH  51  52
ATOM     52  C   UNL     1      -9.564  -0.186  13.727  0.00  0.00    +0.000 C 
ATOM     53  H   UNL     1      -8.967  -0.967  13.245  0.00  0.00    +0.000 HD
ATOM     54  H   UNL     1     -10.562  -0.633  13.816  0.00  0.00    +0.000 HD
ATOM     55  H   UNL     1      -9.628   0.672  13.052  0.00  0.00    +0.000 HD
ENDBRANCH  51  52
BRANCH  51  56
ATOM     56  C   UNL     1      -7.655  -0.236  15.244  0.00  0.00    +0.000 C 
ATOM     57  H   UNL     1      -7.362  -1.032  14.550  0.00  0.00    +0.000 HD
ATOM     58  H   UNL     1      -7.481  -0.604  16.262  0.00  0.00    +0.000 HD
BRANCH  56  59
ATOM     59  C   UNL     1      -6.725   0.961  15.080  0.00  0.00    +0.000 C 
ATOM     60  O   UNL     1      -6.944   1.902  14.340  0.00  0.00    +0.000 OA
BRANCH  59  61
ATOM     61  O   UNL     1      -5.614   0.808  15.858  0.00  0.00    +0.000 OA
BRANCH  61  62
ATOM     62  C   UNL     1      -5.219   1.969  16.586  0.00  0.00    +0.000 C 
ATOM     63  H   UNL     1      -5.223   1.712  17.648  0.00  0.00    +0.000 HD
ATOM     64  H   UNL     1      -4.212   2.301  16.319  0.00  0.00    +0.000 HD
ATOM     65  H   UNL     1      -5.947   2.768  16.416  0.00  0.00    +0.000 HD
ENDBRANCH  61  62
ENDBRANCH  59  61
ENDBRANCH  56  59
ENDBRANCH  51  56
ENDBRANCH   1  51
BRANCH   6  66
ATOM     66  O   UNL     1      -8.855   1.776  17.682  0.00  0.00    +0.000 OA
BRANCH  66  67
ATOM     67  C   UNL     1      -8.703   3.162  17.447  0.00  0.00    +0.000 C 
ATOM     68  H   UNL     1      -9.648   3.698  17.404  0.00  0.00    +0.000 HD
ATOM     69  H   UNL     1      -8.113   3.576  18.271  0.00  0.00    +0.000 HD
ATOM     70  H   UNL     1      -8.118   3.337  16.543  0.00  0.00    +0.000 HD
ENDBRANCH  66  67
ENDBRANCH   6  66
TORSDOF 9
ENDMDL
MODEL 6
REMARK VINA RESULT:    -6.561      1.975      3.201
REMARK INTER + INTRA:         -10.191
REMARK INTER:                  -9.564
REMARK INTRA:                  -0.628
REMARK UNBOUND:                -0.945
REMARK  Name = 
REMARK  9 active torsions:
REMARK  status: ('A' for Active; 'I' for Inactive)
REMARK    1  A    between atoms: C_1  and  O_2
REMARK    2  A    between atoms: O_2  and  C_3
REMARK    3  A    between atoms: C_3  and  C_5
REMARK    4  A    between atoms: C_5  and  N_6
REMARK    5  A    between atoms: N_6  and  C_7
REMARK    6  A    between atoms: N_6  and  C_8
REMARK    7  A    between atoms: C_12  and  C_13
REMARK    8  A    between atoms: C_14  and  O_15
REMARK    9  A    between atoms: O_15  and  C_16
REMARK                            x       y       z     vdW  Elec       q    Type
REMARK                         _______ _______ _______ _____ _____    ______ ____
ROOT
ATOM      1  C   UNL     1     -10.628  -1.518  15.065  0.00  0.00    +0.000 C 
ATOM      2  C   UNL     1     -10.308  -2.755  15.878  0.00  0.00    +0.000 C 
ATOM      3  C   UNL     1     -11.175  -2.838  17.121  0.00  0.00    +0.000 C 
ATOM      4  O   UNL     1     -11.987  -1.702  17.374  0.00  0.00    +0.000 OA
ATOM      5  C   UNL     1     -11.342  -0.415  17.301  0.00  0.00    +0.000 C 
ATOM      6  C   UNL     1     -10.530  -0.230  15.952  0.00  0.00    +0.000 C 
ATOM      7  N   UNL     1     -10.652  -0.199  18.559  0.00  0.00    +0.000 N 
ATOM      8  C   UNL     1     -10.525   0.990  19.310  0.00  0.00    +0.000 A 
ATOM      9  C   UNL     1     -10.551   2.338  18.926  0.00  0.00    +0.000 A 
ATOM     10  C   UNL     1     -10.813   3.291  19.914  0.00  0.00    +0.000 A 
ATOM     11  C   UNL     1     -11.073   2.907  21.226  0.00  0.00    +0.000 A 
ATOM     12  C   UNL     1     -10.788   1.608  21.649  0.00  0.00    +0.000 A 
ATOM     13  C   UNL     1     -10.354   0.665  20.703  0.00  0.00    +0.000 A 
ATOM     14  C   UNL     1      -9.777  -0.609  20.723  0.00  0.00    +0.000 A 
ATOM     15  C   UNL     1      -8.940  -1.174  21.693  0.00  0.00    +0.000 A 
ATOM     16  C   UNL     1      -8.448  -2.461  21.366  0.00  0.00    +0.000 A 
ATOM     17  C   UNL     1      -8.980  -2.972  20.165  0.00  0.00    +0.000 A 
ATOM     18  C   UNL     1      -8.674  -4.188  19.509  0.00  0.00    +0.000 A 
ATOM     19  C   UNL     1      -7.654  -5.159  19.585  0.00  0.00    +0.000 A 
ATOM     20  C   UNL     1      -7.729  -6.316  18.799  0.00  0.00    +0.000 A 
ATOM     21  C   UNL     1      -8.847  -6.575  18.013  0.00  0.00    +0.000 A 
ATOM     22  C   UNL     1      -9.843  -5.614  17.852  0.00  0.00    +0.000 A 
ATOM     23  C   UNL     1      -9.686  -4.377  18.499  0.00  0.00    +0.000 A 
ATOM     24  N   UNL     1     -10.369  -3.169  18.266  0.00  0.00    +0.000 N 
ATOM     25  C   UNL     1      -9.875  -2.405  19.256  0.00  0.00    +0.000 A 
ATOM     26  C   UNL     1     -10.155  -1.080  19.462  0.00  0.00    +0.000 A 
ATOM     27  C   UNL     1      -7.565  -2.899  22.395  0.00  0.00    +0.000 C 
ATOM     28  O   UNL     1      -6.945  -3.934  22.595  0.00  0.00    +0.000 OA
ATOM     29  N   UNL     1      -7.537  -1.815  23.278  0.00  0.00    +0.000 N 
ATOM     30  C   UNL     1      -8.297  -0.635  22.883  0.00  0.00    +0.000 C 
ATOM     31  H   UNL     1     -11.704  -1.609  14.850  0.00  0.00    +0.000 HD
ATOM     32  H   UNL     1     -10.477  -3.665  15.286  0.00  0.00    +0.000 HD
ATOM     33  H   UNL     1      -9.243  -2.783  16.139  0.00  0.00    +0.000 HD
ATOM     34  H   UNL     1     -11.882  -3.667  17.005  0.00  0.00    +0.000 HD
ATOM     35  H   UNL     1     -11.115   0.500  15.379  0.00  0.00    +0.000 HD
ATOM     36  H   UNL     1     -10.406   2.637  17.891  0.00  0.00    +0.000 HD
ATOM     37  H   UNL     1     -10.873   4.342  19.640  0.00  0.00    +0.000 HD
ATOM     38  H   UNL     1     -11.464   3.632  21.935  0.00  0.00    +0.000 HD
ATOM     39  H   UNL     1     -10.969   1.311  22.678  0.00  0.00    +0.000 HD
ATOM     40  H   UNL     1      -6.779  -4.989  20.206  0.00  0.00    +0.000 HD
ATOM     41  H   UNL     1      -6.913  -7.032  18.821  0.00  0.00    +0.000 HD
ATOM     42  H   UNL     1      -8.931  -7.521  17.486  0.00  0.00    +0.000 HD
ATOM     43  H   UNL     1     -10.695  -5.812  17.209  0.00  0.00    +0.000 HD
ATOM     44  H   UNL     1      -6.996  -1.882  24.127  0.00  0.00    +0.000 HD
ATOM     45  H   UNL     1      -7.587   0.159  22.630  0.00  0.00    +0.000 HD
ATOM     46  H   UNL     1      -8.986  -0.337  23.671  0.00  0.00    +0.000 HD
ENDROOT
BRANCH   5  47
ATOM     47  C   UNL     1     -12.584   0.525  17.239  0.00  0.00    +0.000 C 
ATOM     48  H   UNL     1     -12.309   1.585  17.220  0.00  0.00    +0.000 HD
ATOM     49  H   UNL     1     -13.181   0.318  16.343  0.00  0.00    +0.000 HD
ATOM     50  H   UNL     1     -13.254   0.363  18.093  0.00  0.00    +0.000 HD
ENDBRANCH   5  47
BRANCH   1  51
ATOM     51  N   UNL     1     -10.034  -1.563  13.720  0.00  0.00    +0.000 NA
BRANCH  51  52
ATOM     52  C   UNL     1     -10.459  -0.590  12.723  0.00  0.00    +0.000 C 
ATOM     53  H   UNL     1     -10.912  -1.063  11.845  0.00  0.00    +0.000 HD
ATOM     54  H   UNL     1     -11.262   0.039  13.127  0.00  0.00    +0.000 HD
ATOM     55  H   UNL     1      -9.645   0.058  12.390  0.00  0.00    +0.000 HD
ENDBRANCH  51  52
BRANCH  51  56
ATOM     56  C   UNL     1      -9.885  -2.918  13.170  0.00  0.00    +0.000 C 
ATOM     57  H   UNL     1      -9.662  -3.650  13.955  0.00  0.00    +0.000 HD
ATOM     58  H   UNL     1      -9.079  -2.971  12.430  0.00  0.00    +0.000 HD
BRANCH  56  59
ATOM     59  C   UNL     1     -11.150  -3.329  12.424  0.00  0.00    +0.000 C 
ATOM     60  O   UNL     1     -12.167  -3.722  12.965  0.00  0.00    +0.000 OA
BRANCH  59  61
ATOM     61  O   UNL     1     -10.963  -3.217  11.077  0.00  0.00    +0.000 OA
BRANCH  61  62
ATOM     62  C   UNL     1     -12.136  -3.393  10.286  0.00  0.00    +0.000 C 
ATOM     63  H   UNL     1     -12.285  -2.481   9.702  0.00  0.00    +0.000 HD
ATOM     64  H   UNL     1     -12.042  -4.231   9.590  0.00  0.00    +0.000 HD
ATOM     65  H   UNL     1     -13.000  -3.533  10.943  0.00  0.00    +0.000 HD
ENDBRANCH  61  62
ENDBRANCH  59  61
ENDBRANCH  56  59
ENDBRANCH  51  56
ENDBRANCH   1  51
BRANCH   6  66
ATOM     66  O   UNL     1      -9.260   0.433  15.956  0.00  0.00    +0.000 OA
BRANCH  66  67
ATOM     67  C   UNL     1      -9.144   1.758  15.478  0.00  0.00    +0.000 C 
ATOM     68  H   UNL     1     -10.069   2.326  15.553  0.00  0.00    +0.000 HD
ATOM     69  H   UNL     1      -8.384   2.264  16.084  0.00  0.00    +0.000 HD
ATOM     70  H   UNL     1      -8.766   1.768  14.455  0.00  0.00    +0.000 HD
ENDBRANCH  66  67
ENDBRANCH   6  66
TORSDOF 9
ENDMDL
MODEL 7
REMARK VINA RESULT:    -6.494      2.559      6.791
REMARK INTER + INTRA:         -10.097
REMARK INTER:                  -9.836
REMARK INTRA:                  -0.261
REMARK UNBOUND:                -0.945
REMARK  Name = 
REMARK  9 active torsions:
REMARK  status: ('A' for Active; 'I' for Inactive)
REMARK    1  A    between atoms: C_1  and  O_2
REMARK    2  A    between atoms: O_2  and  C_3
REMARK    3  A    between atoms: C_3  and  C_5
REMARK    4  A    between atoms: C_5  and  N_6
REMARK    5  A    between atoms: N_6  and  C_7
REMARK    6  A    between atoms: N_6  and  C_8
REMARK    7  A    between atoms: C_12  and  C_13
REMARK    8  A    between atoms: C_14  and  O_15
REMARK    9  A    between atoms: O_15  and  C_16
REMARK                            x       y       z     vdW  Elec       q    Type
REMARK                         _______ _______ _______ _____ _____    ______ ____
ROOT
ATOM      1  C   UNL     1      -9.992  -0.543  21.896  0.00  0.00    +0.000 C 
ATOM      2  C   UNL     1      -9.388  -1.843  21.409  0.00  0.00    +0.000 C 
ATOM      3  C   UNL     1      -8.671  -1.657  20.084  0.00  0.00    +0.000 C 
ATOM      4  O   UNL     1      -8.827  -0.382  19.482  0.00  0.00    +0.000 OA
ATOM      5  C   UNL     1     -10.171   0.137  19.399  0.00  0.00    +0.000 C 
ATOM      6  C   UNL     1     -10.916   0.086  20.797  0.00  0.00    +0.000 C 
ATOM      7  N   UNL     1     -10.808  -0.481  18.251  0.00  0.00    +0.000 N 
ATOM      8  C   UNL     1     -11.689   0.094  17.309  0.00  0.00    +0.000 A 
ATOM      9  C   UNL     1     -12.579   1.172  17.407  0.00  0.00    +0.000 A 
ATOM     10  C   UNL     1     -13.010   1.770  16.220  0.00  0.00    +0.000 A 
ATOM     11  C   UNL     1     -12.540   1.329  14.986  0.00  0.00    +0.000 A 
ATOM     12  C   UNL     1     -11.874   0.106  14.882  0.00  0.00    +0.000 A 
ATOM     13  C   UNL     1     -11.578  -0.607  16.055  0.00  0.00    +0.000 A 
ATOM     14  C   UNL     1     -11.150  -1.899  16.383  0.00  0.00    +0.000 A 
ATOM     15  C   UNL     1     -11.377  -3.095  15.694  0.00  0.00    +0.000 A 
ATOM     16  C   UNL     1     -10.884  -4.251  16.347  0.00  0.00    +0.000 A 
ATOM     17  C   UNL     1     -10.164  -3.962  17.524  0.00  0.00    +0.000 A 
ATOM     18  C   UNL     1      -9.586  -4.862  18.450  0.00  0.00    +0.000 A 
ATOM     19  C   UNL     1      -9.690  -6.239  18.734  0.00  0.00    +0.000 A 
ATOM     20  C   UNL     1      -8.869  -6.815  19.713  0.00  0.00    +0.000 A 
ATOM     21  C   UNL     1      -7.878  -6.070  20.343  0.00  0.00    +0.000 A 
ATOM     22  C   UNL     1      -7.787  -4.695  20.147  0.00  0.00    +0.000 A 
ATOM     23  C   UNL     1      -8.723  -4.079  19.300  0.00  0.00    +0.000 A 
ATOM     24  N   UNL     1      -9.030  -2.712  19.174  0.00  0.00    +0.000 N 
ATOM     25  C   UNL     1      -9.894  -2.741  18.144  0.00  0.00    +0.000 A 
ATOM     26  C   UNL     1     -10.572  -1.665  17.636  0.00  0.00    +0.000 A 
ATOM     27  C   UNL     1     -11.230  -5.403  15.582  0.00  0.00    +0.000 C 
ATOM     28  O   UNL     1     -10.992  -6.597  15.695  0.00  0.00    +0.000 OA
ATOM     29  N   UNL     1     -11.965  -4.874  14.517  0.00  0.00    +0.000 N 
ATOM     30  C   UNL     1     -12.198  -3.434  14.540  0.00  0.00    +0.000 C 
ATOM     31  H   UNL     1      -9.136   0.148  21.948  0.00  0.00    +0.000 HD
ATOM     32  H   UNL     1      -8.662  -2.232  22.135  0.00  0.00    +0.000 HD
ATOM     33  H   UNL     1     -10.155  -2.624  21.334  0.00  0.00    +0.000 HD
ATOM     34  H   UNL     1      -7.593  -1.758  20.247  0.00  0.00    +0.000 HD
ATOM     35  H   UNL     1     -10.980   1.135  21.111  0.00  0.00    +0.000 HD
ATOM     36  H   UNL     1     -12.903   1.556  18.370  0.00  0.00    +0.000 HD
ATOM     37  H   UNL     1     -13.674   2.630  16.265  0.00  0.00    +0.000 HD
ATOM     38  H   UNL     1     -12.726   1.918  14.093  0.00  0.00    +0.000 HD
ATOM     39  H   UNL     1     -11.525  -0.252  13.919  0.00  0.00    +0.000 HD
ATOM     40  H   UNL     1     -10.443  -6.847  18.242  0.00  0.00    +0.000 HD
ATOM     41  H   UNL     1      -8.994  -7.864  19.967  0.00  0.00    +0.000 HD
ATOM     42  H   UNL     1      -7.188  -6.556  21.029  0.00  0.00    +0.000 HD
ATOM     43  H   UNL     1      -7.031  -4.116  20.671  0.00  0.00    +0.000 HD
ATOM     44  H   UNL     1     -12.309  -5.491  13.797  0.00  0.00    +0.000 HD
ATOM     45  H   UNL     1     -13.261  -3.264  14.740  0.00  0.00    +0.000 HD
ATOM     46  H   UNL     1     -11.876  -2.975  13.607  0.00  0.00    +0.000 HD
ENDROOT
BRANCH   5  47
ATOM     47  C   UNL     1      -9.881   1.632  19.071  0.00  0.00    +0.000 C 
ATOM     48  H   UNL     1      -8.812   1.869  19.093  0.00  0.00    +0.000 HD
ATOM     49  H   UNL     1     -10.260   1.889  18.075  0.00  0.00    +0.000 HD
ATOM     50  H   UNL     1     -10.391   2.306  19.771  0.00  0.00    +0.000 HD
ENDBRANCH   5  47
BRANCH   1  51
ATOM     51  N   UNL     1     -10.423  -0.618  23.301  0.00  0.00    +0.000 NA
BRANCH  51  52
ATOM     52  C   UNL     1      -9.822   0.283  24.276  0.00  0.00    +0.000 C 
ATOM     53  H   UNL     1     -10.304   1.266  24.287  0.00  0.00    +0.000 HD
ATOM     54  H   UNL     1      -9.979  -0.099  25.292  0.00  0.00    +0.000 HD
ATOM     55  H   UNL     1      -8.750   0.421  24.118  0.00  0.00    +0.000 HD
ENDBRANCH  51  52
BRANCH  51  56
ATOM     56  C   UNL     1     -10.586  -1.986  23.811  0.00  0.00    +0.000 C 
ATOM     57  H   UNL     1     -10.625  -2.718  22.996  0.00  0.00    +0.000 HD
ATOM     58  H   UNL     1     -11.505  -2.095  24.398  0.00  0.00    +0.000 HD
BRANCH  56  59
ATOM     59  C   UNL     1      -9.450  -2.336  24.765  0.00  0.00    +0.000 C 
ATOM     60  O   UNL     1      -8.341  -2.689  24.410  0.00  0.00    +0.000 OA
BRANCH  59  61
ATOM     61  O   UNL     1      -9.865  -2.218  26.060  0.00  0.00    +0.000 OA
BRANCH  61  62
ATOM     62  C   UNL     1      -8.834  -1.941  27.005  0.00  0.00    +0.000 C 
ATOM     63  H   UNL     1      -8.794  -2.776  27.709  0.00  0.00    +0.000 HD
ATOM     64  H   UNL     1      -7.853  -1.849  26.529  0.00  0.00    +0.000 HD
ATOM     65  H   UNL     1      -9.082  -1.030  27.556  0.00  0.00    +0.000 HD
ENDBRANCH  61  62
ENDBRANCH  59  61
ENDBRANCH  56  59
ENDBRANCH  51  56
ENDBRANCH   1  51
BRANCH   6  66
ATOM     66  O   UNL     1     -12.302  -0.269  20.866  0.00  0.00    +0.000 OA
BRANCH  66  67
ATOM     67  C   UNL     1     -13.230   0.593  21.496  0.00  0.00    +0.000 C 
ATOM     68  H   UNL     1     -13.780   1.219  20.797  0.00  0.00    +0.000 HD
ATOM     69  H   UNL     1     -13.950  -0.032  22.035  0.00  0.00    +0.000 HD
ATOM     70  H   UNL     1     -12.737   1.202  22.254  0.00  0.00    +0.000 HD
ENDBRANCH  66  67
ENDBRANCH   6  66
TORSDOF 9
ENDMDL
MODEL 8
REMARK VINA RESULT:    -6.490      3.005      4.963
REMARK INTER + INTRA:         -10.091
REMARK INTER:                  -8.918
REMARK INTRA:                  -1.173
REMARK UNBOUND:                -0.945
REMARK  Name = 
REMARK  9 active torsions:
REMARK  status: ('A' for Active; 'I' for Inactive)
REMARK    1  A    between atoms: C_1  and  O_2
REMARK    2  A    between atoms: O_2  and  C_3
REMARK    3  A    between atoms: C_3  and  C_5
REMARK    4  A    between atoms: C_5  and  N_6
REMARK    5  A    between atoms: N_6  and  C_7
REMARK    6  A    between atoms: N_6  and  C_8
REMARK    7  A    between atoms: C_12  and  C_13
REMARK    8  A    between atoms: C_14  and  O_15
REMARK    9  A    between atoms: O_15  and  C_16
REMARK                            x       y       z     vdW  Elec       q    Type
REMARK                         _______ _______ _______ _____ _____    ______ ____
ROOT
ATOM      1  C   UNL     1     -11.596   3.381  19.718  0.00  0.00    +0.000 C 
ATOM      2  C   UNL     1     -11.700   2.089  18.936  0.00  0.00    +0.000 C 
ATOM      3  C   UNL     1     -12.272   0.971  19.789  0.00  0.00    +0.000 C 
ATOM      4  O   UNL     1     -12.448   1.283  21.162  0.00  0.00    +0.000 OA
ATOM      5  C   UNL     1     -11.334   1.904  21.834  0.00  0.00    +0.000 C 
ATOM      6  C   UNL     1     -10.787   3.163  21.042  0.00  0.00    +0.000 C 
ATOM      7  N   UNL     1     -10.400   0.853  22.195  0.00  0.00    +0.000 N 
ATOM      8  C   UNL     1      -9.634   0.712  23.372  0.00  0.00    +0.000 A 
ATOM      9  C   UNL     1      -9.142   1.661  24.280  0.00  0.00    +0.000 A 
ATOM     10  C   UNL     1      -8.778   1.216  25.553  0.00  0.00    +0.000 A 
ATOM     11  C   UNL     1      -8.932  -0.120  25.914  0.00  0.00    +0.000 A 
ATOM     12  C   UNL     1      -9.166  -1.091  24.939  0.00  0.00    +0.000 A 
ATOM     13  C   UNL     1      -9.367  -0.684  23.610  0.00  0.00    +0.000 A 
ATOM     14  C   UNL     1      -9.407  -1.293  22.351  0.00  0.00    +0.000 A 
ATOM     15  C   UNL     1      -8.736  -2.441  21.915  0.00  0.00    +0.000 A 
ATOM     16  C   UNL     1      -8.921  -2.744  20.543  0.00  0.00    +0.000 A 
ATOM     17  C   UNL     1      -9.833  -1.882  19.901  0.00  0.00    +0.000 A 
ATOM     18  C   UNL     1     -10.212  -1.853  18.538  0.00  0.00    +0.000 A 
ATOM     19  C   UNL     1      -9.720  -2.392  17.331  0.00  0.00    +0.000 A 
ATOM     20  C   UNL     1     -10.434  -2.206  16.140  0.00  0.00    +0.000 A 
ATOM     21  C   UNL     1     -11.677  -1.582  16.142  0.00  0.00    +0.000 A 
ATOM     22  C   UNL     1     -12.167  -0.973  17.294  0.00  0.00    +0.000 A 
ATOM     23  C   UNL     1     -11.373  -1.001  18.452  0.00  0.00    +0.000 A 
ATOM     24  N   UNL     1     -11.494  -0.227  19.621  0.00  0.00    +0.000 N 
ATOM     25  C   UNL     1     -10.544  -0.786  20.392  0.00  0.00    +0.000 A 
ATOM     26  C   UNL     1     -10.178  -0.365  21.643  0.00  0.00    +0.000 A 
ATOM     27  C   UNL     1      -8.142  -3.889  20.209  0.00  0.00    +0.000 C 
ATOM     28  O   UNL     1      -8.009  -4.554  19.191  0.00  0.00    +0.000 OA
ATOM     29  N   UNL     1      -7.485  -4.192  21.405  0.00  0.00    +0.000 N 
ATOM     30  C   UNL     1      -7.716  -3.284  22.522  0.00  0.00    +0.000 C 
ATOM     31  H   UNL     1     -12.624   3.569  20.065  0.00  0.00    +0.000 HD
ATOM     32  H   UNL     1     -12.353   2.214  18.061  0.00  0.00    +0.000 HD
ATOM     33  H   UNL     1     -10.726   1.806  18.520  0.00  0.00    +0.000 HD
ATOM     34  H   UNL     1     -13.277   0.727  19.427  0.00  0.00    +0.000 HD
ATOM     35  H   UNL     1     -11.091   4.023  21.653  0.00  0.00    +0.000 HD
ATOM     36  H   UNL     1      -9.075   2.714  24.020  0.00  0.00    +0.000 HD
ATOM     37  H   UNL     1      -8.425   1.934  26.290  0.00  0.00    +0.000 HD
ATOM     38  H   UNL     1      -8.831  -0.415  26.955  0.00  0.00    +0.000 HD
ATOM     39  H   UNL     1      -9.265  -2.136  25.214  0.00  0.00    +0.000 HD
ATOM     40  H   UNL     1      -8.760  -2.899  17.308  0.00  0.00    +0.000 HD
ATOM     41  H   UNL     1     -10.021  -2.575  15.206  0.00  0.00    +0.000 HD
ATOM     42  H   UNL     1     -12.259  -1.533  15.225  0.00  0.00    +0.000 HD
ATOM     43  H   UNL     1     -13.123  -0.458  17.276  0.00  0.00    +0.000 HD
ATOM     44  H   UNL     1      -6.880  -4.999  21.447  0.00  0.00    +0.000 HD
ATOM     45  H   UNL     1      -6.792  -2.726  22.705  0.00  0.00    +0.000 HD
ATOM     46  H   UNL     1      -8.049  -3.831  23.403  0.00  0.00    +0.000 HD
ENDROOT
BRANCH   5  47
ATOM     47  C   UNL     1     -12.032   2.423  23.127  0.00  0.00    +0.000 C 
ATOM     48  H   UNL     1     -11.319   2.694  23.912  0.00  0.00    +0.000 HD
ATOM     49  H   UNL     1     -12.641   3.308  22.908  0.00  0.00    +0.000 HD
ATOM     50  H   UNL     1     -12.723   1.676  23.540  0.00  0.00    +0.000 HD
ENDBRANCH   5  47
BRANCH   1  51
ATOM     51  N   UNL     1     -11.339   4.542  18.851  0.00  0.00    +0.000 NA
BRANCH  51  52
ATOM     52  C   UNL     1     -12.378   5.549  18.688  0.00  0.00    +0.000 C 
ATOM     53  H   UNL     1     -12.921   5.743  19.619  0.00  0.00    +0.000 HD
ATOM     54  H   UNL     1     -11.930   6.518  18.437  0.00  0.00    +0.000 HD
ATOM     55  H   UNL     1     -13.100   5.288  17.910  0.00  0.00    +0.000 HD
ENDBRANCH  51  52
BRANCH  51  56
ATOM     56  C   UNL     1     -10.655   4.215  17.592  0.00  0.00    +0.000 C 
ATOM     57  H   UNL     1     -11.099   4.745  16.742  0.00  0.00    +0.000 HD
ATOM     58  H   UNL     1     -10.698   3.142  17.372  0.00  0.00    +0.000 HD
BRANCH  56  59
ATOM     59  C   UNL     1      -9.171   4.550  17.693  0.00  0.00    +0.000 C 
ATOM     60  O   UNL     1      -8.721   5.681  17.668  0.00  0.00    +0.000 OA
BRANCH  59  61
ATOM     61  O   UNL     1      -8.432   3.407  17.788  0.00  0.00    +0.000 OA
BRANCH  61  62
ATOM     62  C   UNL     1      -7.059   3.598  18.125  0.00  0.00    +0.000 C 
ATOM     63  H   UNL     1      -7.020   4.030  19.128  0.00  0.00    +0.000 HD
ATOM     64  H   UNL     1      -6.503   2.657  18.136  0.00  0.00    +0.000 HD
ATOM     65  H   UNL     1      -6.608   4.304  17.421  0.00  0.00    +0.000 HD
ENDBRANCH  61  62
ENDBRANCH  59  61
ENDBRANCH  56  59
ENDBRANCH  51  56
ENDBRANCH   1  51
BRANCH   6  66
ATOM     66  O   UNL     1      -9.378   3.414  20.965  0.00  0.00    +0.000 OA
BRANCH  66  67
ATOM     67  C   UNL     1      -8.843   4.638  21.428  0.00  0.00    +0.000 C 
ATOM     68  H   UNL     1      -8.096   4.514  22.209  0.00  0.00    +0.000 HD
ATOM     69  H   UNL     1      -8.367   5.136  20.576  0.00  0.00    +0.000 HD
ATOM     70  H   UNL     1      -9.639   5.306  21.758  0.00  0.00    +0.000 HD
ENDBRANCH  66  67
ENDBRANCH   6  66
TORSDOF 9
ENDMDL
MODEL 9
REMARK VINA RESULT:    -6.211      3.102      7.471
REMARK INTER + INTRA:          -9.698
REMARK INTER:                  -8.715
REMARK INTRA:                  -0.982
REMARK UNBOUND:                -0.945
REMARK  Name = 
REMARK  9 active torsions:
REMARK  status: ('A' for Active; 'I' for Inactive)
REMARK    1  A    between atoms: C_1  and  O_2
REMARK    2  A    between atoms: O_2  and  C_3
REMARK    3  A    between atoms: C_3  and  C_5
REMARK    4  A    between atoms: C_5  and  N_6
REMARK    5  A    between atoms: N_6  and  C_7
REMARK    6  A    between atoms: N_6  and  C_8
REMARK    7  A    between atoms: C_12  and  C_13
REMARK    8  A    between atoms: C_14  and  O_15
REMARK    9  A    between atoms: O_15  and  C_16
REMARK                            x       y       z     vdW  Elec       q    Type
REMARK                         _______ _______ _______ _____ _____    ______ ____
ROOT
ATOM      1  C   UNL     1     -12.609   2.902  17.321  0.00  0.00    +0.000 C 
ATOM      2  C   UNL     1     -11.665   1.970  18.049  0.00  0.00    +0.000 C 
ATOM      3  C   UNL     1     -10.609   1.411  17.112  0.00  0.00    +0.000 C 
ATOM      4  O   UNL     1     -10.786   1.723  15.740  0.00  0.00    +0.000 OA
ATOM      5  C   UNL     1     -12.103   1.511  15.191  0.00  0.00    +0.000 C 
ATOM      6  C   UNL     1     -13.232   2.195  16.069  0.00  0.00    +0.000 C 
ATOM      7  N   UNL     1     -12.225   0.098  14.883  0.00  0.00    +0.000 N 
ATOM      8  C   UNL     1     -12.848  -0.518  13.776  0.00  0.00    +0.000 A 
ATOM      9  C   UNL     1     -13.898  -0.098  12.948  0.00  0.00    +0.000 A 
ATOM     10  C   UNL     1     -14.027  -0.712  11.699  0.00  0.00    +0.000 A 
ATOM     11  C   UNL     1     -13.121  -1.683  11.283  0.00  0.00    +0.000 A 
ATOM     12  C   UNL     1     -12.254  -2.277  12.201  0.00  0.00    +0.000 A 
ATOM     13  C   UNL     1     -12.225  -1.792  13.519  0.00  0.00    +0.000 A 
ATOM     14  C   UNL     1     -11.705  -2.210  14.749  0.00  0.00    +0.000 A 
ATOM     15  C   UNL     1     -11.489  -3.515  15.208  0.00  0.00    +0.000 A 
ATOM     16  C   UNL     1     -11.034  -3.599  16.546  0.00  0.00    +0.000 A 
ATOM     17  C   UNL     1     -10.787  -2.340  17.130  0.00  0.00    +0.000 A 
ATOM     18  C   UNL     1     -10.384  -2.043  18.454  0.00  0.00    +0.000 A 
ATOM     19  C   UNL     1     -10.330  -2.734  19.683  0.00  0.00    +0.000 A 
ATOM     20  C   UNL     1      -9.775  -2.114  20.810  0.00  0.00    +0.000 A 
ATOM     21  C   UNL     1      -9.181  -0.860  20.715  0.00  0.00    +0.000 A 
ATOM     22  C   UNL     1      -9.274  -0.113  19.544  0.00  0.00    +0.000 A 
ATOM     23  C   UNL     1      -9.986  -0.657  18.462  0.00  0.00    +0.000 A 
ATOM     24  N   UNL     1     -10.471  -0.007  17.312  0.00  0.00    +0.000 N 
ATOM     25  C   UNL     1     -10.945  -1.054  16.612  0.00  0.00    +0.000 A 
ATOM     26  C   UNL     1     -11.604  -0.983  15.414  0.00  0.00    +0.000 A 
ATOM     27  C   UNL     1     -10.914  -4.970  16.913  0.00  0.00    +0.000 C 
ATOM     28  O   UNL     1     -10.519  -5.546  17.918  0.00  0.00    +0.000 OA
ATOM     29  N   UNL     1     -11.353  -5.649  15.773  0.00  0.00    +0.000 N 
ATOM     30  C   UNL     1     -11.830  -4.824  14.669  0.00  0.00    +0.000 C 
ATOM     31  H   UNL     1     -11.949   3.670  16.888  0.00  0.00    +0.000 HD
ATOM     32  H   UNL     1     -11.150   2.495  18.864  0.00  0.00    +0.000 HD
ATOM     33  H   UNL     1     -12.219   1.162  18.542  0.00  0.00    +0.000 HD
ATOM     34  H   UNL     1      -9.638   1.845  17.374  0.00  0.00    +0.000 HD
ATOM     35  H   UNL     1     -13.574   3.041  15.461  0.00  0.00    +0.000 HD
ATOM     36  H   UNL     1     -14.572   0.701  13.245  0.00  0.00    +0.000 HD
ATOM     37  H   UNL     1     -14.811  -0.383  11.020  0.00  0.00    +0.000 HD
ATOM     38  H   UNL     1     -13.115  -2.010  10.247  0.00  0.00    +0.000 HD
ATOM     39  H   UNL     1     -11.561  -3.051  11.886  0.00  0.00    +0.000 HD
ATOM     40  H   UNL     1     -10.771  -3.722  19.777  0.00  0.00    +0.000 HD
ATOM     41  H   UNL     1      -9.789  -2.630  21.765  0.00  0.00    +0.000 HD
ATOM     42  H   UNL     1      -8.671  -0.436  21.577  0.00  0.00    +0.000 HD
ATOM     43  H   UNL     1      -8.836   0.879  19.492  0.00  0.00    +0.000 HD
ATOM     44  H   UNL     1     -11.338  -6.658  15.760  0.00  0.00    +0.000 HD
ATOM     45  H   UNL     1     -12.914  -4.955  14.589  0.00  0.00    +0.000 HD
ATOM     46  H   UNL     1     -11.314  -5.079  13.745  0.00  0.00    +0.000 HD
ENDROOT
BRANCH   5  47
ATOM     47  C   UNL     1     -11.990   2.309  13.858  0.00  0.00    +0.000 C 
ATOM     48  H   UNL     1     -12.189   1.690  12.977  0.00  0.00    +0.000 HD
ATOM     49  H   UNL     1     -12.700   3.145  13.846  0.00  0.00    +0.000 HD
ATOM     50  H   UNL     1     -10.995   2.757  13.739  0.00  0.00    +0.000 HD
ENDBRANCH   5  47
BRANCH   1  51
ATOM     51  N   UNL     1     -13.443   3.688  18.244  0.00  0.00    +0.000 NA
BRANCH  51  52
ATOM     52  C   UNL     1     -14.220   4.804  17.723  0.00  0.00    +0.000 C 
ATOM     53  H   UNL     1     -13.713   5.765  17.860  0.00  0.00    +0.000 HD
ATOM     54  H   UNL     1     -14.327   4.716  16.635  0.00  0.00    +0.000 HD
ATOM     55  H   UNL     1     -15.217   4.868  18.165  0.00  0.00    +0.000 HD
ENDBRANCH  51  52
BRANCH  51  56
ATOM     56  C   UNL     1     -12.799   3.990  19.531  0.00  0.00    +0.000 C 
ATOM     57  H   UNL     1     -12.497   5.041  19.594  0.00  0.00    +0.000 HD
ATOM     58  H   UNL     1     -11.904   3.378  19.691  0.00  0.00    +0.000 HD
BRANCH  56  59
ATOM     59  C   UNL     1     -13.736   3.650  20.684  0.00  0.00    +0.000 C 
ATOM     60  O   UNL     1     -14.108   4.449  21.523  0.00  0.00    +0.000 OA
BRANCH  59  61
ATOM     61  O   UNL     1     -14.071   2.327  20.650  0.00  0.00    +0.000 OA
BRANCH  61  62
ATOM     62  C   UNL     1     -13.176   1.457  21.340  0.00  0.00    +0.000 C 
ATOM     63  H   UNL     1     -12.296   1.315  20.708  0.00  0.00    +0.000 HD
ATOM     64  H   UNL     1     -12.846   1.879  22.294  0.00  0.00    +0.000 HD
ATOM     65  H   UNL     1     -13.659   0.488  21.494  0.00  0.00    +0.000 HD
ENDBRANCH  61  62
ENDBRANCH  59  61
ENDBRANCH  56  59
ENDBRANCH  51  56
ENDBRANCH   1  51
BRANCH   6  66
ATOM     66  O   UNL     1     -14.484   1.532  16.282  0.00  0.00    +0.000 OA
BRANCH  66  67
ATOM     67  C   UNL     1     -15.643   1.955  15.590  0.00  0.00    +0.000 C 
ATOM     68  H   UNL     1     -15.739   3.036  15.530  0.00  0.00    +0.000 HD
ATOM     69  H   UNL     1     -15.582   1.561  14.570  0.00  0.00    +0.000 HD
ATOM     70  H   UNL     1     -16.537   1.511  16.029  0.00  0.00    +0.000 HD
ENDBRANCH  66  67
ENDBRANCH   6  66
TORSDOF 9
ENDMDL
