MODEL 1
REMARK VINA RESULT:    -8.744      0.000      0.000
REMARK INTER + INTRA:         -10.689
REMARK INTER:                 -10.533
REMARK INTRA:                  -0.157
REMARK UNBOUND:                -0.157
REMARK  Name = 
REMARK  4 active torsions:
REMARK  status: ('A' for Active; 'I' for Inactive)
REMARK    1  A    between atoms: C_1  and  N_2
REMARK    2  A    between atoms: N_2  and  C_3
REMARK    3  A    between atoms: C_3  and  C_4
REMARK    4  A    between atoms: C_8  and  C_9
REMARK                            x       y       z     vdW  Elec       q    Type
REMARK                         _______ _______ _______ _____ _____    ______ ____
ROOT
ATOM      1  C   UNL     1      -8.945 -11.292  16.510  0.00  0.00    +0.000 A 
ATOM      2  C   UNL     1      -8.473 -11.845  17.706  0.00  0.00    +0.000 A 
ATOM      3  C   UNL     1      -8.436 -11.078  18.867  0.00  0.00    +0.000 A 
ATOM      4  C   UNL     1      -8.853  -9.745  18.835  0.00  0.00    +0.000 A 
ATOM      5  C   UNL     1      -9.326  -9.148  17.651  0.00  0.00    +0.000 A 
ATOM      6  C   UNL     1      -9.374  -9.951  16.497  0.00  0.00    +0.000 A 
ATOM      7  H   UNL     1      -8.139 -12.878  17.732  0.00  0.00    +0.000 HD
ATOM      8  H   UNL     1      -8.076 -11.512  19.795  0.00  0.00    +0.000 HD
ATOM      9  H   UNL     1      -8.802  -9.160  19.752  0.00  0.00    +0.000 HD
ATOM     10  H   UNL     1      -9.734  -9.524  15.562  0.00  0.00    +0.000 HD
ENDROOT
BRANCH   5  11
ATOM     11  C   UNL     1      -9.694  -7.728  17.638  0.00  0.00    +0.000 A 
ATOM     12  N   UNL     1     -10.874  -7.388  17.029  0.00  0.00    +0.000 NA
ATOM     13  C   UNL     1     -11.257  -6.096  17.035  0.00  0.00    +0.000 A 
ATOM     14  N   UNL     1     -10.609  -5.042  17.562  0.00  0.00    +0.000 NA
ATOM     15  C   UNL     1      -9.456  -5.426  18.129  0.00  0.00    +0.000 A 
ATOM     16  N   UNL     1      -8.551  -4.614  18.747  0.00  0.00    +0.000 N 
ATOM     17  C   UNL     1      -7.523  -5.401  19.186  0.00  0.00    +0.000 A 
ATOM     18  N   UNL     1      -7.720  -6.669  18.895  0.00  0.00    +0.000 NA
ATOM     19  C   UNL     1      -8.929  -6.707  18.223  0.00  0.00    +0.000 A 
ATOM     20  H   UNL     1     -12.210  -5.884  16.557  0.00  0.00    +0.000 HD
ATOM     21  H   UNL     1      -8.641  -3.613  18.847  0.00  0.00    +0.000 HD
ATOM     22  H   UNL     1      -6.666  -4.995  19.707  0.00  0.00    +0.000 HD
ENDBRANCH   5  11
BRANCH   1  23
ATOM     23  C   UNL     1      -8.960 -12.112  15.239  0.00  0.00    +0.000 C 
ATOM     24  H   UNL     1      -9.986 -12.374  14.953  0.00  0.00    +0.000 HD
ATOM     25  H   UNL     1      -8.577 -11.471  14.434  0.00  0.00    +0.000 HD
BRANCH  23  26
ATOM     26  N   UNL     1      -8.134 -13.321  15.301  0.00  0.00    +0.000 NA
ATOM     27  H   UNL     1      -7.354 -13.206  14.654  0.00  0.00    +0.000 HD
BRANCH  26  28
ATOM     28  C   UNL     1      -8.884 -14.511  14.918  0.00  0.00    +0.000 C 
ATOM     29  H   UNL     1      -9.920 -14.406  15.257  0.00  0.00    +0.000 HD
ATOM     30  H   UNL     1      -8.471 -15.413  15.378  0.00  0.00    +0.000 HD
ATOM     31  H   UNL     1      -8.915 -14.644  13.832  0.00  0.00    +0.000 HD
ENDBRANCH  26  28
ENDBRANCH  23  26
ENDBRANCH   1  23
TORSDOF 4
ENDMDL
MODEL 2
REMARK VINA RESULT:    -8.732      1.461      2.068
REMARK INTER + INTRA:         -10.675
REMARK INTER:                 -10.613
REMARK INTRA:                  -0.062
REMARK UNBOUND:                -0.157
REMARK  Name = 
REMARK  4 active torsions:
REMARK  status: ('A' for Active; 'I' for Inactive)
REMARK    1  A    between atoms: C_1  and  N_2
REMARK    2  A    between atoms: N_2  and  C_3
REMARK    3  A    between atoms: C_3  and  C_4
REMARK    4  A    between atoms: C_8  and  C_9
REMARK                            x       y       z     vdW  Elec       q    Type
REMARK                         _______ _______ _______ _____ _____    ______ ____
ROOT
ATOM      1  C   UNL     1      -8.546 -11.729  17.423  0.00  0.00    +0.000 A 
ATOM      2  C   UNL     1      -8.605 -12.095  16.073  0.00  0.00    +0.000 A 
ATOM      3  C   UNL     1      -9.002 -11.170  15.112  0.00  0.00    +0.000 A 
ATOM      4  C   UNL     1      -9.364  -9.876  15.498  0.00  0.00    +0.000 A 
ATOM      5  C   UNL     1      -9.327  -9.471  16.845  0.00  0.00    +0.000 A 
ATOM      6  C   UNL     1      -8.901 -10.418  17.794  0.00  0.00    +0.000 A 
ATOM      7  H   UNL     1      -8.334 -13.103  15.771  0.00  0.00    +0.000 HD
ATOM      8  H   UNL     1      -9.040 -11.454  14.065  0.00  0.00    +0.000 HD
ATOM      9  H   UNL     1      -9.685  -9.173  14.730  0.00  0.00    +0.000 HD
ATOM     10  H   UNL     1      -8.861 -10.142  18.846  0.00  0.00    +0.000 HD
ENDROOT
BRANCH   5  11
ATOM     11  C   UNL     1      -9.776  -8.126  17.223  0.00  0.00    +0.000 A 
ATOM     12  N   UNL     1     -10.794  -7.572  16.493  0.00  0.00    +0.000 NA
ATOM     13  C   UNL     1     -11.253  -6.354  16.841  0.00  0.00    +0.000 A 
ATOM     14  N   UNL     1     -10.822  -5.560  17.838  0.00  0.00    +0.000 NA
ATOM     15  C   UNL     1      -9.817  -6.140  18.509  0.00  0.00    +0.000 A 
ATOM     16  N   UNL     1      -9.144  -5.611  19.570  0.00  0.00    +0.000 N 
ATOM     17  C   UNL     1      -8.202  -6.523  19.958  0.00  0.00    +0.000 A 
ATOM     18  N   UNL     1      -8.237  -7.608  19.214  0.00  0.00    +0.000 NA
ATOM     19  C   UNL     1      -9.244  -7.386  18.291  0.00  0.00    +0.000 A 
ATOM     20  H   UNL     1     -12.074  -5.970  16.242  0.00  0.00    +0.000 HD
ATOM     21  H   UNL     1      -9.322  -4.705  19.978  0.00  0.00    +0.000 HD
ATOM     22  H   UNL     1      -7.524  -6.340  20.781  0.00  0.00    +0.000 HD
ENDBRANCH   5  11
BRANCH   1  23
ATOM     23  C   UNL     1      -8.143 -12.739  18.474  0.00  0.00    +0.000 C 
ATOM     24  H   UNL     1      -7.276 -13.324  18.144  0.00  0.00    +0.000 HD
ATOM     25  H   UNL     1      -7.808 -12.176  19.355  0.00  0.00    +0.000 HD
BRANCH  23  26
ATOM     26  N   UNL     1      -9.227 -13.637  18.884  0.00  0.00    +0.000 NA
ATOM     27  H   UNL     1      -9.104 -13.852  19.873  0.00  0.00    +0.000 HD
BRANCH  26  28
ATOM     28  C   UNL     1      -9.212 -14.885  18.131  0.00  0.00    +0.000 C 
ATOM     29  H   UNL     1      -9.535 -15.702  18.783  0.00  0.00    +0.000 HD
ATOM     30  H   UNL     1      -8.209 -15.123  17.766  0.00  0.00    +0.000 HD
ATOM     31  H   UNL     1      -9.906 -14.859  17.283  0.00  0.00    +0.000 HD
ENDBRANCH  26  28
ENDBRANCH  23  26
ENDBRANCH   1  23
TORSDOF 4
ENDMDL
MODEL 3
REMARK VINA RESULT:    -8.439      1.853      6.373
REMARK INTER + INTRA:         -10.323
REMARK INTER:                 -10.261
REMARK INTRA:                  -0.062
REMARK UNBOUND:                -0.157
REMARK  Name = 
REMARK  4 active torsions:
REMARK  status: ('A' for Active; 'I' for Inactive)
REMARK    1  A    between atoms: C_1  and  N_2
REMARK    2  A    between atoms: N_2  and  C_3
REMARK    3  A    between atoms: C_3  and  C_4
REMARK    4  A    between atoms: C_8  and  C_9
REMARK                            x       y       z     vdW  Elec       q    Type
REMARK                         _______ _______ _______ _____ _____    ______ ____
ROOT
ATOM      1  C   UNL     1      -9.700  -7.862  18.632  0.00  0.00    +0.000 A 
ATOM      2  C   UNL     1      -9.153  -7.974  19.916  0.00  0.00    +0.000 A 
ATOM      3  C   UNL     1      -8.459  -9.123  20.285  0.00  0.00    +0.000 A 
ATOM      4  C   UNL     1      -8.324 -10.177  19.378  0.00  0.00    +0.000 A 
ATOM      5  C   UNL     1      -8.866 -10.107  18.081  0.00  0.00    +0.000 A 
ATOM      6  C   UNL     1      -9.543  -8.927  17.725  0.00  0.00    +0.000 A 
ATOM      7  H   UNL     1      -9.265  -7.160  20.627  0.00  0.00    +0.000 HD
ATOM      8  H   UNL     1      -8.031  -9.204  21.280  0.00  0.00    +0.000 HD
ATOM      9  H   UNL     1      -7.790 -11.072  19.693  0.00  0.00    +0.000 HD
ATOM     10  H   UNL     1      -9.977  -8.837  16.731  0.00  0.00    +0.000 HD
ENDROOT
BRANCH   5  11
ATOM     11  C   UNL     1      -8.763 -11.258  17.176  0.00  0.00    +0.000 A 
ATOM     12  N   UNL     1      -8.634 -10.998  15.837  0.00  0.00    +0.000 NA
ATOM     13  C   UNL     1      -8.497 -12.034  14.986  0.00  0.00    +0.000 A 
ATOM     14  N   UNL     1      -8.486 -13.347  15.275  0.00  0.00    +0.000 NA
ATOM     15  C   UNL     1      -8.632 -13.547  16.593  0.00  0.00    +0.000 A 
ATOM     16  N   UNL     1      -8.674 -14.755  17.226  0.00  0.00    +0.000 N 
ATOM     17  C   UNL     1      -8.831 -14.514  18.562  0.00  0.00    +0.000 A 
ATOM     18  N   UNL     1      -8.883 -13.226  18.824  0.00  0.00    +0.000 NA
ATOM     19  C   UNL     1      -8.766 -12.598  17.596  0.00  0.00    +0.000 A 
ATOM     20  H   UNL     1      -8.377 -11.772  13.939  0.00  0.00    +0.000 HD
ATOM     21  H   UNL     1      -8.604 -15.652  16.770  0.00  0.00    +0.000 HD
ATOM     22  H   UNL     1      -8.900 -15.313  19.289  0.00  0.00    +0.000 HD
ENDBRANCH   5  11
BRANCH   1  23
ATOM     23  C   UNL     1     -10.479  -6.628  18.236  0.00  0.00    +0.000 C 
ATOM     24  H   UNL     1     -11.119  -6.287  19.059  0.00  0.00    +0.000 HD
ATOM     25  H   UNL     1      -9.752  -5.823  18.067  0.00  0.00    +0.000 HD
BRANCH  23  26
ATOM     26  N   UNL     1     -11.276  -6.793  17.016  0.00  0.00    +0.000 NA
ATOM     27  H   UNL     1     -10.795  -7.455  16.410  0.00  0.00    +0.000 HD
BRANCH  26  28
ATOM     28  C   UNL     1     -11.435  -5.534  16.298  0.00  0.00    +0.000 C 
ATOM     29  H   UNL     1     -11.904  -4.799  16.961  0.00  0.00    +0.000 HD
ATOM     30  H   UNL     1     -12.076  -5.649  15.419  0.00  0.00    +0.000 HD
ATOM     31  H   UNL     1     -10.472  -5.116  15.987  0.00  0.00    +0.000 HD
ENDBRANCH  26  28
ENDBRANCH  23  26
ENDBRANCH   1  23
TORSDOF 4
ENDMDL
MODEL 4
REMARK VINA RESULT:    -8.374      1.237      2.045
REMARK INTER + INTRA:         -10.244
REMARK INTER:                 -10.371
REMARK INTRA:                   0.128
REMARK UNBOUND:                -0.157
REMARK  Name = 
REMARK  4 active torsions:
REMARK  status: ('A' for Active; 'I' for Inactive)
REMARK    1  A    between atoms: C_1  and  N_2
REMARK    2  A    between atoms: N_2  and  C_3
REMARK    3  A    between atoms: C_3  and  C_4
REMARK    4  A    between atoms: C_8  and  C_9
REMARK                            x       y       z     vdW  Elec       q    Type
REMARK                         _______ _______ _______ _____ _____    ______ ____
ROOT
ATOM      1  C   UNL     1      -8.788 -11.827  16.465  0.00  0.00    +0.000 A 
ATOM      2  C   UNL     1      -8.442 -12.657  17.538  0.00  0.00    +0.000 A 
ATOM      3  C   UNL     1      -8.275 -12.123  18.813  0.00  0.00    +0.000 A 
ATOM      4  C   UNL     1      -8.433 -10.750  19.020  0.00  0.00    +0.000 A 
ATOM      5  C   UNL     1      -8.770  -9.880  17.966  0.00  0.00    +0.000 A 
ATOM      6  C   UNL     1      -8.956 -10.448  16.692  0.00  0.00    +0.000 A 
ATOM      7  H   UNL     1      -8.309 -13.724  17.379  0.00  0.00    +0.000 HD
ATOM      8  H   UNL     1      -8.014 -12.771  19.644  0.00  0.00    +0.000 HD
ATOM      9  H   UNL     1      -8.283 -10.353  20.022  0.00  0.00    +0.000 HD
ATOM     10  H   UNL     1      -9.217  -9.806  15.853  0.00  0.00    +0.000 HD
ENDROOT
BRANCH   5  11
ATOM     11  C   UNL     1      -8.864  -8.435  18.205  0.00  0.00    +0.000 A 
ATOM     12  N   UNL     1      -8.773  -8.002  19.501  0.00  0.00    +0.000 NA
ATOM     13  C   UNL     1      -8.816  -6.679  19.748  0.00  0.00    +0.000 A 
ATOM     14  N   UNL     1      -8.961  -5.676  18.863  0.00  0.00    +0.000 NA
ATOM     15  C   UNL     1      -9.063  -6.153  17.614  0.00  0.00    +0.000 A 
ATOM     16  N   UNL     1      -9.228  -5.414  16.479  0.00  0.00    +0.000 N 
ATOM     17  C   UNL     1      -9.282  -6.284  15.426  0.00  0.00    +0.000 A 
ATOM     18  N   UNL     1      -9.153  -7.534  15.816  0.00  0.00    +0.000 NA
ATOM     19  C   UNL     1      -9.020  -7.475  17.193  0.00  0.00    +0.000 A 
ATOM     20  H   UNL     1      -8.718  -6.389  20.790  0.00  0.00    +0.000 HD
ATOM     21  H   UNL     1      -9.299  -4.408  16.446  0.00  0.00    +0.000 HD
ATOM     22  H   UNL     1      -9.417  -5.948  14.405  0.00  0.00    +0.000 HD
ENDBRANCH   5  11
BRANCH   1  23
ATOM     23  C   UNL     1      -8.942 -12.397  15.073  0.00  0.00    +0.000 C 
ATOM     24  H   UNL     1      -9.994 -12.624  14.856  0.00  0.00    +0.000 HD
ATOM     25  H   UNL     1      -8.652 -11.610  14.365  0.00  0.00    +0.000 HD
BRANCH  23  26
ATOM     26  N   UNL     1      -8.112 -13.578  14.818  0.00  0.00    +0.000 NA
ATOM     27  H   UNL     1      -7.703 -13.484  13.889  0.00  0.00    +0.000 HD
BRANCH  26  28
ATOM     28  C   UNL     1      -8.892 -14.809  14.860  0.00  0.00    +0.000 C 
ATOM     29  H   UNL     1      -9.193 -15.009  15.893  0.00  0.00    +0.000 HD
ATOM     30  H   UNL     1      -8.311 -15.666  14.508  0.00  0.00    +0.000 HD
ATOM     31  H   UNL     1      -9.811 -14.732  14.269  0.00  0.00    +0.000 HD
ENDBRANCH  26  28
ENDBRANCH  23  26
ENDBRANCH   1  23
TORSDOF 4
ENDMDL
MODEL 5
REMARK VINA RESULT:    -8.292      1.492      2.920
REMARK INTER + INTRA:         -10.145
REMARK INTER:                 -10.116
REMARK INTRA:                  -0.029
REMARK UNBOUND:                -0.157
REMARK  Name = 
REMARK  4 active torsions:
REMARK  status: ('A' for Active; 'I' for Inactive)
REMARK    1  A    between atoms: C_1  and  N_2
REMARK    2  A    between atoms: N_2  and  C_3
REMARK    3  A    between atoms: C_3  and  C_4
REMARK    4  A    between atoms: C_8  and  C_9
REMARK                            x       y       z     vdW  Elec       q    Type
REMARK                         _______ _______ _______ _____ _____    ______ ____
ROOT
ATOM      1  C   UNL     1      -8.817 -11.368  16.419  0.00  0.00    +0.000 A 
ATOM      2  C   UNL     1      -9.033 -11.255  15.040  0.00  0.00    +0.000 A 
ATOM      3  C   UNL     1      -9.277 -10.010  14.468  0.00  0.00    +0.000 A 
ATOM      4  C   UNL     1      -9.329  -8.870  15.274  0.00  0.00    +0.000 A 
ATOM      5  C   UNL     1      -9.127  -8.942  16.665  0.00  0.00    +0.000 A 
ATOM      6  C   UNL     1      -8.859 -10.208  17.216  0.00  0.00    +0.000 A 
ATOM      7  H   UNL     1      -9.003 -12.141  14.411  0.00  0.00    +0.000 HD
ATOM      8  H   UNL     1      -9.437  -9.925  13.397  0.00  0.00    +0.000 HD
ATOM      9  H   UNL     1      -9.535  -7.909  14.807  0.00  0.00    +0.000 HD
ATOM     10  H   UNL     1      -8.698 -10.303  18.288  0.00  0.00    +0.000 HD
ENDROOT
BRANCH   5  11
ATOM     11  C   UNL     1      -9.252  -7.735  17.492  0.00  0.00    +0.000 A 
ATOM     12  N   UNL     1      -8.479  -7.661  18.620  0.00  0.00    +0.000 NA
ATOM     13  C   UNL     1      -8.544  -6.549  19.378  0.00  0.00    +0.000 A 
ATOM     14  N   UNL     1      -9.307  -5.458  19.184  0.00  0.00    +0.000 NA
ATOM     15  C   UNL     1     -10.054  -5.589  18.079  0.00  0.00    +0.000 A 
ATOM     16  N   UNL     1     -10.944  -4.676  17.594  0.00  0.00    +0.000 N 
ATOM     17  C   UNL     1     -11.488  -5.197  16.453  0.00  0.00    +0.000 A 
ATOM     18  N   UNL     1     -10.994  -6.383  16.173  0.00  0.00    +0.000 NA
ATOM     19  C   UNL     1     -10.092  -6.653  17.188  0.00  0.00    +0.000 A 
ATOM     20  H   UNL     1      -7.896  -6.532  20.250  0.00  0.00    +0.000 HD
ATOM     21  H   UNL     1     -11.153  -3.785  18.019  0.00  0.00    +0.000 HD
ATOM     22  H   UNL     1     -12.235  -4.668  15.875  0.00  0.00    +0.000 HD
ENDBRANCH   5  11
BRANCH   1  23
ATOM     23  C   UNL     1      -8.580 -12.722  17.049  0.00  0.00    +0.000 C 
ATOM     24  H   UNL     1      -9.130 -13.506  16.514  0.00  0.00    +0.000 HD
ATOM     25  H   UNL     1      -7.516 -12.959  16.921  0.00  0.00    +0.000 HD
BRANCH  23  26
ATOM     26  N   UNL     1      -8.896 -12.777  18.480  0.00  0.00    +0.000 NA
ATOM     27  H   UNL     1      -8.185 -12.248  18.982  0.00  0.00    +0.000 HD
BRANCH  26  28
ATOM     28  C   UNL     1      -8.900 -14.145  18.982  0.00  0.00    +0.000 C 
ATOM     29  H   UNL     1      -8.272 -14.201  19.877  0.00  0.00    +0.000 HD
ATOM     30  H   UNL     1      -8.497 -14.846  18.246  0.00  0.00    +0.000 HD
ATOM     31  H   UNL     1      -9.904 -14.471  19.275  0.00  0.00    +0.000 HD
ENDBRANCH  26  28
ENDBRANCH  23  26
ENDBRANCH   1  23
TORSDOF 4
ENDMDL
MODEL 6
REMARK VINA RESULT:    -8.263      0.622      2.123
REMARK INTER + INTRA:         -10.110
REMARK INTER:                 -10.043
REMARK INTRA:                  -0.067
REMARK UNBOUND:                -0.157
REMARK  Name = 
REMARK  4 active torsions:
REMARK  status: ('A' for Active; 'I' for Inactive)
REMARK    1  A    between atoms: C_1  and  N_2
REMARK    2  A    between atoms: N_2  and  C_3
REMARK    3  A    between atoms: C_3  and  C_4
REMARK    4  A    between atoms: C_8  and  C_9
REMARK                            x       y       z     vdW  Elec       q    Type
REMARK                         _______ _______ _______ _____ _____    ______ ____
ROOT
ATOM      1  C   UNL     1      -8.988 -11.158  16.803  0.00  0.00    +0.000 A 
ATOM      2  C   UNL     1      -8.593 -11.982  17.864  0.00  0.00    +0.000 A 
ATOM      3  C   UNL     1      -8.347 -11.438  19.121  0.00  0.00    +0.000 A 
ATOM      4  C   UNL     1      -8.475 -10.061  19.322  0.00  0.00    +0.000 A 
ATOM      5  C   UNL     1      -8.861  -9.197  18.280  0.00  0.00    +0.000 A 
ATOM      6  C   UNL     1      -9.126  -9.775  17.025  0.00  0.00    +0.000 A 
ATOM      7  H   UNL     1      -8.482 -13.052  17.709  0.00  0.00    +0.000 HD
ATOM      8  H   UNL     1      -8.047 -12.080  19.944  0.00  0.00    +0.000 HD
ATOM      9  H   UNL     1      -8.263  -9.655  20.310  0.00  0.00    +0.000 HD
ATOM     10  H   UNL     1      -9.426  -9.138  16.194  0.00  0.00    +0.000 HD
ENDROOT
BRANCH   5  11
ATOM     11  C   UNL     1      -8.923  -7.748  18.508  0.00  0.00    +0.000 A 
ATOM     12  N   UNL     1      -8.071  -7.220  19.441  0.00  0.00    +0.000 NA
ATOM     13  C   UNL     1      -8.077  -5.888  19.644  0.00  0.00    +0.000 A 
ATOM     14  N   UNL     1      -8.849  -4.963  19.046  0.00  0.00    +0.000 NA
ATOM     15  C   UNL     1      -9.674  -5.533  18.156  0.00  0.00    +0.000 A 
ATOM     16  N   UNL     1     -10.594  -4.890  17.382  0.00  0.00    +0.000 N 
ATOM     17  C   UNL     1     -11.220  -5.833  16.616  0.00  0.00    +0.000 A 
ATOM     18  N   UNL     1     -10.751  -7.041  16.847  0.00  0.00    +0.000 NA
ATOM     19  C   UNL     1      -9.779  -6.875  17.819  0.00  0.00    +0.000 A 
ATOM     20  H   UNL     1      -7.368  -5.519  20.380  0.00  0.00    +0.000 HD
ATOM     21  H   UNL     1     -10.769  -3.896  17.391  0.00  0.00    +0.000 HD
ATOM     22  H   UNL     1     -12.005  -5.581  15.914  0.00  0.00    +0.000 HD
ENDBRANCH   5  11
BRANCH   1  23
ATOM     23  C   UNL     1      -9.228 -11.741  15.429  0.00  0.00    +0.000 C 
ATOM     24  H   UNL     1     -10.234 -12.174  15.356  0.00  0.00    +0.000 HD
ATOM     25  H   UNL     1      -9.208 -10.908  14.714  0.00  0.00    +0.000 HD
BRANCH  23  26
ATOM     26  N   UNL     1      -8.226 -12.728  15.017  0.00  0.00    +0.000 NA
ATOM     27  H   UNL     1      -7.875 -12.460  14.099  0.00  0.00    +0.000 HD
BRANCH  26  28
ATOM     28  C   UNL     1      -8.792 -14.069  14.924  0.00  0.00    +0.000 C 
ATOM     29  H   UNL     1      -8.079 -14.789  15.337  0.00  0.00    +0.000 HD
ATOM     30  H   UNL     1      -8.991 -14.351  13.886  0.00  0.00    +0.000 HD
ATOM     31  H   UNL     1      -9.716 -14.164  15.505  0.00  0.00    +0.000 HD
ENDBRANCH  26  28
ENDBRANCH  23  26
ENDBRANCH   1  23
TORSDOF 4
ENDMDL
MODEL 7
REMARK VINA RESULT:    -8.244      1.704      7.007
REMARK INTER + INTRA:         -10.087
REMARK INTER:                 -10.180
REMARK INTRA:                   0.092
REMARK UNBOUND:                -0.157
REMARK  Name = 
REMARK  4 active torsions:
REMARK  status: ('A' for Active; 'I' for Inactive)
REMARK    1  A    between atoms: C_1  and  N_2
REMARK    2  A    between atoms: N_2  and  C_3
REMARK    3  A    between atoms: C_3  and  C_4
REMARK    4  A    between atoms: C_8  and  C_9
REMARK                            x       y       z     vdW  Elec       q    Type
REMARK                         _______ _______ _______ _____ _____    ______ ____
ROOT
ATOM      1  C   UNL     1      -9.012  -8.267  17.335  0.00  0.00    +0.000 A 
ATOM      2  C   UNL     1      -9.002  -7.975  15.966  0.00  0.00    +0.000 A 
ATOM      3  C   UNL     1      -8.986  -9.005  15.029  0.00  0.00    +0.000 A 
ATOM      4  C   UNL     1      -8.959 -10.335  15.456  0.00  0.00    +0.000 A 
ATOM      5  C   UNL     1      -8.958 -10.670  16.823  0.00  0.00    +0.000 A 
ATOM      6  C   UNL     1      -8.997  -9.613  17.749  0.00  0.00    +0.000 A 
ATOM      7  H   UNL     1      -9.014  -6.942  15.631  0.00  0.00    +0.000 HD
ATOM      8  H   UNL     1      -8.986  -8.775  13.968  0.00  0.00    +0.000 HD
ATOM      9  H   UNL     1      -8.932 -11.123  14.706  0.00  0.00    +0.000 HD
ATOM     10  H   UNL     1      -8.997  -9.833  18.815  0.00  0.00    +0.000 HD
ENDROOT
BRANCH   5  11
ATOM     11  C   UNL     1      -8.863 -12.076  17.237  0.00  0.00    +0.000 A 
ATOM     12  N   UNL     1      -8.815 -12.335  18.581  0.00  0.00    +0.000 NA
ATOM     13  C   UNL     1      -8.766 -13.617  18.992  0.00  0.00    +0.000 A 
ATOM     14  N   UNL     1      -8.740 -14.729  18.236  0.00  0.00    +0.000 NA
ATOM     15  C   UNL     1      -8.772 -14.420  16.931  0.00  0.00    +0.000 A 
ATOM     16  N   UNL     1      -8.749 -15.302  15.892  0.00  0.00    +0.000 N 
ATOM     17  C   UNL     1      -8.799 -14.577  14.734  0.00  0.00    +0.000 A 
ATOM     18  N   UNL     1      -8.861 -13.284  14.970  0.00  0.00    +0.000 NA
ATOM     19  C   UNL     1      -8.839 -13.162  16.348  0.00  0.00    +0.000 A 
ATOM     20  H   UNL     1      -8.751 -13.768  20.068  0.00  0.00    +0.000 HD
ATOM     21  H   UNL     1      -8.699 -16.306  15.983  0.00  0.00    +0.000 HD
ATOM     22  H   UNL     1      -8.786 -15.045  13.758  0.00  0.00    +0.000 HD
ENDBRANCH   5  11
BRANCH   1  23
ATOM     23  C   UNL     1      -9.000  -7.152  18.357  0.00  0.00    +0.000 C 
ATOM     24  H   UNL     1     -10.019  -6.818  18.585  0.00  0.00    +0.000 HD
ATOM     25  H   UNL     1      -8.604  -7.571  19.291  0.00  0.00    +0.000 HD
BRANCH  23  26
ATOM     26  N   UNL     1      -8.170  -6.005  17.977  0.00  0.00    +0.000 NA
ATOM     27  H   UNL     1      -7.895  -6.120  17.003  0.00  0.00    +0.000 HD
BRANCH  26  28
ATOM     28  C   UNL     1      -6.965  -5.913  18.793  0.00  0.00    +0.000 C 
ATOM     29  H   UNL     1      -6.099  -5.771  18.138  0.00  0.00    +0.000 HD
ATOM     30  H   UNL     1      -6.801  -6.825  19.373  0.00  0.00    +0.000 HD
ATOM     31  H   UNL     1      -6.996  -5.055  19.473  0.00  0.00    +0.000 HD
ENDBRANCH  26  28
ENDBRANCH  23  26
ENDBRANCH   1  23
TORSDOF 4
ENDMDL
MODEL 8
REMARK VINA RESULT:    -8.150      1.915      2.731
REMARK INTER + INTRA:          -9.974
REMARK INTER:                  -9.962
REMARK INTRA:                  -0.012
REMARK UNBOUND:                -0.157
REMARK  Name = 
REMARK  4 active torsions:
REMARK  status: ('A' for Active; 'I' for Inactive)
REMARK    1  A    between atoms: C_1  and  N_2
REMARK    2  A    between atoms: N_2  and  C_3
REMARK    3  A    between atoms: C_3  and  C_4
REMARK    4  A    between atoms: C_8  and  C_9
REMARK                            x       y       z     vdW  Elec       q    Type
REMARK                         _______ _______ _______ _____ _____    ______ ____
ROOT
ATOM      1  C   UNL     1      -8.541 -11.636  17.332  0.00  0.00    +0.000 A 
ATOM      2  C   UNL     1      -8.650 -12.039  15.995  0.00  0.00    +0.000 A 
ATOM      3  C   UNL     1      -9.098 -11.146  15.027  0.00  0.00    +0.000 A 
ATOM      4  C   UNL     1      -9.461  -9.846  15.392  0.00  0.00    +0.000 A 
ATOM      5  C   UNL     1      -9.375  -9.405  16.726  0.00  0.00    +0.000 A 
ATOM      6  C   UNL     1      -8.898 -10.320  17.681  0.00  0.00    +0.000 A 
ATOM      7  H   UNL     1      -8.378 -13.052  15.710  0.00  0.00    +0.000 HD
ATOM      8  H   UNL     1      -9.174 -11.459  13.990  0.00  0.00    +0.000 HD
ATOM      9  H   UNL     1      -9.822  -9.169  14.620  0.00  0.00    +0.000 HD
ATOM     10  H   UNL     1      -8.818 -10.014  18.723  0.00  0.00    +0.000 HD
ENDROOT
BRANCH   5  11
ATOM     11  C   UNL     1      -9.825  -8.054  17.085  0.00  0.00    +0.000 A 
ATOM     12  N   UNL     1     -10.394  -7.887  18.320  0.00  0.00    +0.000 NA
ATOM     13  C   UNL     1     -10.781  -6.652  18.694  0.00  0.00    +0.000 A 
ATOM     14  N   UNL     1     -10.701  -5.510  17.987  0.00  0.00    +0.000 NA
ATOM     15  C   UNL     1     -10.154  -5.731  16.784  0.00  0.00    +0.000 A 
ATOM     16  N   UNL     1      -9.934  -4.798  15.814  0.00  0.00    +0.000 N 
ATOM     17  C   UNL     1      -9.360  -5.436  14.750  0.00  0.00    +0.000 A 
ATOM     18  N   UNL     1      -9.191  -6.720  14.983  0.00  0.00    +0.000 NA
ATOM     19  C   UNL     1      -9.691  -6.929  16.257  0.00  0.00    +0.000 A 
ATOM     20  H   UNL     1     -11.207  -6.572  19.690  0.00  0.00    +0.000 HD
ATOM     21  H   UNL     1     -10.165  -3.818  15.887  0.00  0.00    +0.000 HD
ATOM     22  H   UNL     1      -9.090  -4.916  13.840  0.00  0.00    +0.000 HD
ENDBRANCH   5  11
BRANCH   1  23
ATOM     23  C   UNL     1      -8.083 -12.612  18.392  0.00  0.00    +0.000 C 
ATOM     24  H   UNL     1      -7.238 -13.213  18.034  0.00  0.00    +0.000 HD
ATOM     25  H   UNL     1      -7.696 -12.021  19.233  0.00  0.00    +0.000 HD
BRANCH  23  26
ATOM     26  N   UNL     1      -9.145 -13.489  18.894  0.00  0.00    +0.000 NA
ATOM     27  H   UNL     1      -8.991 -13.637  19.890  0.00  0.00    +0.000 HD
BRANCH  26  28
ATOM     28  C   UNL     1      -9.139 -14.785  18.225  0.00  0.00    +0.000 C 
ATOM     29  H   UNL     1      -8.139 -14.975  17.821  0.00  0.00    +0.000 HD
ATOM     30  H   UNL     1      -9.848 -14.812  17.393  0.00  0.00    +0.000 HD
ATOM     31  H   UNL     1      -9.365 -15.603  18.917  0.00  0.00    +0.000 HD
ENDBRANCH  26  28
ENDBRANCH  23  26
ENDBRANCH   1  23
TORSDOF 4
ENDMDL
MODEL 9
REMARK VINA RESULT:    -8.045      1.764      6.647
REMARK INTER + INTRA:          -9.848
REMARK INTER:                  -9.647
REMARK INTRA:                  -0.200
REMARK UNBOUND:                -0.157
REMARK  Name = 
REMARK  4 active torsions:
REMARK  status: ('A' for Active; 'I' for Inactive)
REMARK    1  A    between atoms: C_1  and  N_2
REMARK    2  A    between atoms: N_2  and  C_3
REMARK    3  A    between atoms: C_3  and  C_4
REMARK    4  A    between atoms: C_8  and  C_9
REMARK                            x       y       z     vdW  Elec       q    Type
REMARK                         _______ _______ _______ _____ _____    ______ ____
ROOT
ATOM      1  C   UNL     1      -9.194  -8.256  18.761  0.00  0.00    +0.000 A 
ATOM      2  C   UNL     1     -10.115  -7.468  18.061  0.00  0.00    +0.000 A 
ATOM      3  C   UNL     1     -10.751  -7.970  16.929  0.00  0.00    +0.000 A 
ATOM      4  C   UNL     1     -10.454  -9.258  16.477  0.00  0.00    +0.000 A 
ATOM      5  C   UNL     1      -9.527 -10.079  17.146  0.00  0.00    +0.000 A 
ATOM      6  C   UNL     1      -8.916  -9.557  18.300  0.00  0.00    +0.000 A 
ATOM      7  H   UNL     1     -10.341  -6.462  18.405  0.00  0.00    +0.000 HD
ATOM      8  H   UNL     1     -11.470  -7.359  16.393  0.00  0.00    +0.000 HD
ATOM      9  H   UNL     1     -10.953  -9.625  15.581  0.00  0.00    +0.000 HD
ATOM     10  H   UNL     1      -8.193 -10.162  18.844  0.00  0.00    +0.000 HD
ENDROOT
BRANCH   5  11
ATOM     11  C   UNL     1      -9.190 -11.402  16.607  0.00  0.00    +0.000 A 
ATOM     12  N   UNL     1      -9.022 -11.507  15.252  0.00  0.00    +0.000 NA
ATOM     13  C   UNL     1      -8.674 -12.700  14.732  0.00  0.00    +0.000 A 
ATOM     14  N   UNL     1      -8.477 -13.861  15.383  0.00  0.00    +0.000 NA
ATOM     15  C   UNL     1      -8.670 -13.708  16.701  0.00  0.00    +0.000 A 
ATOM     16  N   UNL     1      -8.562 -14.681  17.650  0.00  0.00    +0.000 N 
ATOM     17  C   UNL     1      -8.835 -14.108  18.861  0.00  0.00    +0.000 A 
ATOM     18  N   UNL     1      -9.104 -12.825  18.745  0.00  0.00    +0.000 NA
ATOM     19  C   UNL     1      -9.011 -12.553  17.391  0.00  0.00    +0.000 A 
ATOM     20  H   UNL     1      -8.533 -12.724  13.655  0.00  0.00    +0.000 HD
ATOM     21  H   UNL     1      -8.325 -15.645  17.470  0.00  0.00    +0.000 HD
ATOM     22  H   UNL     1      -8.824 -14.673  19.784  0.00  0.00    +0.000 HD
ENDBRANCH   5  11
BRANCH   1  23
ATOM     23  C   UNL     1      -8.479  -7.705  19.974  0.00  0.00    +0.000 C 
ATOM     24  H   UNL     1      -8.860  -8.162  20.896  0.00  0.00    +0.000 HD
ATOM     25  H   UNL     1      -7.427  -8.010  19.899  0.00  0.00    +0.000 HD
BRANCH  23  26
ATOM     26  N   UNL     1      -8.530  -6.244  20.083  0.00  0.00    +0.000 NA
ATOM     27  H   UNL     1      -9.245  -5.902  19.443  0.00  0.00    +0.000 HD
BRANCH  26  28
ATOM     28  C   UNL     1      -7.256  -5.629  19.728  0.00  0.00    +0.000 C 
ATOM     29  H   UNL     1      -7.346  -4.542  19.815  0.00  0.00    +0.000 HD
ATOM     30  H   UNL     1      -6.971  -5.861  18.697  0.00  0.00    +0.000 HD
ATOM     31  H   UNL     1      -6.450  -5.939  20.401  0.00  0.00    +0.000 HD
ENDBRANCH  26  28
ENDBRANCH  23  26
ENDBRANCH   1  23
TORSDOF 4
ENDMDL
