REMARK  Name = 
REMARK  6 active torsions:
REMARK  status: ('A' for Active; 'I' for Inactive)
REMARK    1  A    between atoms: C_3  and  N_4
REMARK    2  A    between atoms: C_9  and  C_10
REMARK    3  A    between atoms: C_18  and  O_19
REMARK    4  A    between atoms: O_19  and  C_20
REMARK    5  A    between atoms: C_20  and  C_21
REMARK    6  A    between atoms: C_21  and  N_22
REMARK                            x       y       z     vdW  Elec       q    Type
REMARK                         _______ _______ _______ _____ _____    ______ ____
ROOT
ATOM      1  C   UNL     1       2.311   0.640  -1.938  0.00  0.00    +0.000 A 
ATOM      2  C   UNL     1       1.497  -0.492  -1.898  0.00  0.00    +0.000 A 
ATOM      3  C   UNL     1       0.102  -0.374  -1.835  0.00  0.00    +0.000 A 
ATOM      4  C   UNL     1      -0.465   0.906  -1.853  0.00  0.00    +0.000 A 
ATOM      5  C   UNL     1       0.349   2.043  -1.826  0.00  0.00    +0.000 A 
ATOM      6  C   UNL     1       1.735   1.907  -1.898  0.00  0.00    +0.000 A 
ATOM      7  H   UNL     1       3.391   0.530  -1.975  0.00  0.00    +0.000 HD
ATOM      8  H   UNL     1       1.970  -1.471  -1.912  0.00  0.00    +0.000 HD
ATOM      9  H   UNL     1      -1.547   0.993  -1.837  0.00  0.00    +0.000 HD
ATOM     10  H   UNL     1       2.370   2.789  -1.896  0.00  0.00    +0.000 HD
ENDROOT
BRANCH   3  11
ATOM     11  N   UNL     1      -0.745  -1.497  -1.785  0.00  0.00    +0.000 N 
ATOM     12  C   UNL     1      -0.428  -2.723  -1.196  0.00  0.00    +0.000 A 
ATOM     13  N   UNL     1      -0.979  -3.823  -1.722  0.00  0.00    +0.000 NA
ATOM     14  C   UNL     1      -0.623  -4.995  -1.166  0.00  0.00    +0.000 A 
ATOM     15  C   UNL     1       0.262  -5.111  -0.119  0.00  0.00    +0.000 A 
ATOM     16  C   UNL     1       0.773  -3.931   0.376  0.00  0.00    +0.000 A 
ATOM     17  N   UNL     1       0.414  -2.745  -0.151  0.00  0.00    +0.000 NA
ATOM     18  H   UNL     1      -1.241  -1.680  -2.648  0.00  0.00    +0.000 HD
ATOM     19  H   UNL     1      -1.084  -5.874  -1.608  0.00  0.00    +0.000 HD
ATOM     20  H   UNL     1       0.519  -6.079   0.288  0.00  0.00    +0.000 HD
BRANCH  16  21
ATOM     21  C   UNL     1       1.741  -3.846   1.480  0.00  0.00    +0.000 A 
ATOM     22  C   UNL     1       2.703  -4.833   1.734  0.00  0.00    +0.000 A 
ATOM     23  C   UNL     1       3.609  -4.685   2.786  0.00  0.00    +0.000 A 
ATOM     24  C   UNL     1       3.532  -3.547   3.568  0.00  0.00    +0.000 A 
ATOM     25  N   UNL     1       2.633  -2.566   3.366  0.00  0.00    +0.000 NA
ATOM     26  C   UNL     1       1.773  -2.734   2.329  0.00  0.00    +0.000 A 
ATOM     27  H   UNL     1       2.780  -5.714   1.103  0.00  0.00    +0.000 HD
ATOM     28  H   UNL     1       4.363  -5.439   2.984  0.00  0.00    +0.000 HD
ATOM     29  H   UNL     1       4.215  -3.387   4.398  0.00  0.00    +0.000 HD
ATOM     30  H   UNL     1       1.075  -1.909   2.193  0.00  0.00    +0.000 HD
ENDBRANCH  16  21
ENDBRANCH   3  11
BRANCH   5  31
ATOM     31  O   UNL     1      -0.111   3.329  -1.723  0.00  0.00    +0.000 OA
BRANCH  31  32
ATOM     32  C   UNL     1      -1.344   3.466  -1.008  0.00  0.00    +0.000 C 
ATOM     33  H   UNL     1      -1.440   2.713  -0.215  0.00  0.00    +0.000 HD
ATOM     34  H   UNL     1      -2.175   3.348  -1.714  0.00  0.00    +0.000 HD
BRANCH  32  35
ATOM     35  C   UNL     1      -1.381   4.848  -0.369  0.00  0.00    +0.000 C 
ATOM     36  H   UNL     1      -1.285   5.635  -1.125  0.00  0.00    +0.000 HD
ATOM     37  H   UNL     1      -0.542   4.976   0.326  0.00  0.00    +0.000 HD
BRANCH  35  38
ATOM     38  N   UNL     1      -2.609   5.062   0.363  0.00  0.00    +0.000 N 
ATOM     39  C   UNL     1      -2.837   4.749   1.673  0.00  0.00    +0.000 A 
ATOM     40  C   UNL     1      -4.150   5.094   1.894  0.00  0.00    +0.000 A 
ATOM     41  N   UNL     1      -4.714   5.611   0.756  0.00  0.00    +0.000 NA
ATOM     42  C   UNL     1      -3.761   5.586  -0.148  0.00  0.00    +0.000 A 
ATOM     43  H   UNL     1      -2.084   4.315   2.316  0.00  0.00    +0.000 HD
ATOM     44  H   UNL     1      -4.719   4.995   2.809  0.00  0.00    +0.000 HD
ATOM     45  H   UNL     1      -3.856   5.921  -1.172  0.00  0.00    +0.000 HD
ENDBRANCH  35  38
ENDBRANCH  32  35
ENDBRANCH  31  32
ENDBRANCH   5  31
TORSDOF 6
