MODEL 1
REMARK VINA RESULT:   -10.515      0.000      0.000
REMARK INTER + INTRA:         -22.027
REMARK INTER:                 -19.427
REMARK INTRA:                  -2.600
REMARK UNBOUND:                -2.600
REMARK  Name = 
REMARK  15 active torsions:
REMARK  status: ('A' for Active; 'I' for Inactive)
REMARK    1  A    between atoms: N_1  and  C_2
REMARK    2  A    between atoms: C_2  and  C_3
REMARK    3  A    between atoms: C_2  and  C_10
REMARK    4  A    between atoms: C_3  and  C_4
REMARK    5  A    between atoms: N_12  and  C_13
REMARK    6  A    between atoms: C_13  and  C_14
REMARK    7  A    between atoms: C_14  and  N_15
REMARK    8  A    between atoms: N_15  and  C_16
REMARK    9  A    between atoms: C_16  and  C_17
REMARK   10  A    between atoms: C_17  and  C_18
REMARK   11  A    between atoms: C_18  and  C_19
REMARK   12  A    between atoms: C_19  and  C_20
REMARK   13  A    between atoms: C_20  and  N_21
REMARK   14  A    between atoms: N_21  and  C_22
REMARK   15  A    between atoms: C_23  and  C_24
REMARK                            x       y       z     vdW  Elec       q    Type
REMARK                         _______ _______ _______ _____ _____    ______ ____
ROOT
ATOM      1  C   UNL     1     -11.091  -1.909  17.396  0.00  0.00    +0.000 C 
ATOM      2  H   UNL     1     -11.594  -2.875  17.516  0.00  0.00    +0.000 HD
ATOM      3  H   UNL     1     -11.864  -1.132  17.420  0.00  0.00    +0.000 HD
ENDROOT
BRANCH   1   4
ATOM      4  C   UNL     1     -10.375  -1.906  16.052  0.00  0.00    +0.000 C 
ATOM      5  H   UNL     1     -10.871  -1.209  15.367  0.00  0.00    +0.000 HD
ATOM      6  H   UNL     1      -9.354  -1.551  16.225  0.00  0.00    +0.000 HD
BRANCH   4   7
ATOM      7  N   UNL     1     -10.371  -3.253  15.488  0.00  0.00    +0.000 NA
ATOM      8  H   UNL     1     -10.427  -3.207  14.470  0.00  0.00    +0.000 HD
BRANCH   7   9
ATOM      9  C   UNL     1     -11.489  -4.064  15.990  0.00  0.00    +0.000 C 
ATOM     10  H   UNL     1     -11.342  -4.201  17.069  0.00  0.00    +0.000 HD
ATOM     11  H   UNL     1     -12.426  -3.505  15.885  0.00  0.00    +0.000 HD
BRANCH   9  12
ATOM     12  C   UNL     1     -11.619  -5.439  15.316  0.00  0.00    +0.000 C 
ATOM     13  H   UNL     1     -12.665  -5.706  15.150  0.00  0.00    +0.000 HD
ATOM     14  H   UNL     1     -11.114  -5.429  14.342  0.00  0.00    +0.000 HD
BRANCH  12  17
ATOM     15  C   UNL     1      -9.732  -6.819  16.101  0.00  0.00    +0.000 C 
ATOM     16  O   UNL     1      -8.896  -6.163  15.487  0.00  0.00    +0.000 OA
ATOM     17  N   UNL     1     -11.069  -6.500  16.119  0.00  0.00    +0.000 N 
ATOM     18  H   UNL     1     -11.671  -7.129  16.646  0.00  0.00    +0.000 HD
BRANCH  15  19
ATOM     19  C   UNL     1      -9.395  -8.059  16.952  0.00  0.00    +0.000 C 
ATOM     20  H   UNL     1      -8.338  -8.289  16.771  0.00  0.00    +0.000 HD
BRANCH  19  21
ATOM     21  N   UNL     1      -9.548  -7.728  18.400  0.00  0.00    +0.000 NA
ATOM     22  H   UNL     1      -9.438  -8.597  18.929  0.00  0.00    +0.000 HD
ATOM     23  H   UNL     1     -10.517  -7.447  18.559  0.00  0.00    +0.000 HD
ENDBRANCH  19  21
BRANCH  19  24
ATOM     24  C   UNL     1     -10.293  -9.220  16.494  0.00  0.00    +0.000 C 
ATOM     25  H   UNL     1     -10.735  -8.988  15.516  0.00  0.00    +0.000 HD
ATOM     26  H   UNL     1     -11.145  -9.307  17.183  0.00  0.00    +0.000 HD
BRANCH  24  27
ATOM     27  C   UNL     1      -9.603 -10.557  16.366  0.00  0.00    +0.000 A 
ATOM     28  C   UNL     1      -9.213 -11.026  15.104  0.00  0.00    +0.000 A 
ATOM     29  C   UNL     1      -8.512 -12.227  14.981  0.00  0.00    +0.000 A 
ATOM     30  C   UNL     1      -8.196 -12.968  16.117  0.00  0.00    +0.000 A 
ATOM     31  C   UNL     1      -8.586 -12.515  17.376  0.00  0.00    +0.000 A 
ATOM     32  C   UNL     1      -9.286 -11.314  17.501  0.00  0.00    +0.000 A 
ATOM     33  H   UNL     1      -9.433 -10.450  14.208  0.00  0.00    +0.000 HD
ATOM     34  H   UNL     1      -8.199 -12.573  14.000  0.00  0.00    +0.000 HD
ATOM     35  H   UNL     1      -7.635 -13.894  16.022  0.00  0.00    +0.000 HD
ATOM     36  H   UNL     1      -8.330 -13.089  18.263  0.00  0.00    +0.000 HD
ATOM     37  H   UNL     1      -9.562 -10.965  18.494  0.00  0.00    +0.000 HD
ENDBRANCH  24  27
ENDBRANCH  19  24
ENDBRANCH  15  19
ENDBRANCH  12  17
ENDBRANCH   9  12
ENDBRANCH   7   9
ENDBRANCH   4   7
ENDBRANCH   1   4
BRANCH   1  38
ATOM     38  C   UNL     1     -10.091  -1.689  18.535  0.00  0.00    +0.000 C 
ATOM     39  H   UNL     1     -10.395  -0.809  19.114  0.00  0.00    +0.000 HD
ATOM     40  H   UNL     1      -9.099  -1.468  18.122  0.00  0.00    +0.000 HD
BRANCH  38  41
ATOM     41  C   UNL     1      -9.989  -2.886  19.479  0.00  0.00    +0.000 C 
ATOM     42  H   UNL     1     -10.980  -3.102  19.896  0.00  0.00    +0.000 HD
ATOM     43  H   UNL     1      -9.347  -2.615  20.326  0.00  0.00    +0.000 HD
BRANCH  41  44
ATOM     44  C   UNL     1      -9.425  -4.133  18.792  0.00  0.00    +0.000 C 
ATOM     45  H   UNL     1      -8.650  -3.846  18.076  0.00  0.00    +0.000 HD
ATOM     46  H   UNL     1     -10.222  -4.644  18.243  0.00  0.00    +0.000 HD
BRANCH  44  47
ATOM     47  N   UNL     1      -8.873  -5.053  19.787  0.00  0.00    +0.000 N 
ATOM     48  H   UNL     1      -8.989  -6.023  19.465  0.00  0.00    +0.000 HD
BRANCH  47  49
ATOM     49  C   UNL     1      -7.546  -4.909  20.178  0.00  0.00    +0.000 C 
ATOM     50  C   UNL     1      -6.903  -4.160  21.088  0.00  0.00    +0.000 C 
ATOM     51  C   UNL     1      -5.445  -4.327  20.841  0.00  0.00    +0.000 C 
ATOM     52  O   UNL     1      -4.558  -3.672  21.358  0.00  0.00    +0.000 OA
ATOM     53  N   UNL     1      -5.290  -5.257  19.881  0.00  0.00    +0.000 N 
ATOM     54  C   UNL     1      -6.486  -5.578  19.361  0.00  0.00    +0.000 C 
ATOM     55  O   UNL     1      -6.703  -6.219  18.348  0.00  0.00    +0.000 OA
ATOM     56  H   UNL     1      -4.411  -5.471  19.443  0.00  0.00    +0.000 HD
BRANCH  50  57
ATOM     57  C   UNL     1      -7.461  -3.249  22.018  0.00  0.00    +0.000 A 
ATOM     58  C   UNL     1      -7.554  -1.878  22.148  0.00  0.00    +0.000 A 
ATOM     59  C   UNL     1      -8.128  -1.589  23.423  0.00  0.00    +0.000 A 
ATOM     60  C   UNL     1      -8.407  -0.411  24.145  0.00  0.00    +0.000 A 
ATOM     61  C   UNL     1      -8.913  -0.509  25.451  0.00  0.00    +0.000 A 
ATOM     62  C   UNL     1      -9.166  -1.752  26.028  0.00  0.00    +0.000 A 
ATOM     63  C   UNL     1      -8.944  -2.931  25.313  0.00  0.00    +0.000 A 
ATOM     64  C   UNL     1      -8.422  -2.812  24.022  0.00  0.00    +0.000 A 
ATOM     65  N   UNL     1      -8.103  -3.787  23.112  0.00  0.00    +0.000 N 
ATOM     66  H   UNL     1      -7.201  -1.148  21.429  0.00  0.00    +0.000 HD
ATOM     67  H   UNL     1      -8.213   0.564  23.711  0.00  0.00    +0.000 HD
ATOM     68  H   UNL     1      -9.101   0.394  26.024  0.00  0.00    +0.000 HD
ATOM     69  H   UNL     1      -9.541  -1.811  27.047  0.00  0.00    +0.000 HD
ATOM     70  H   UNL     1      -9.150  -3.901  25.755  0.00  0.00    +0.000 HD
ATOM     71  H   UNL     1      -8.266  -4.778  23.257  0.00  0.00    +0.000 HD
ENDBRANCH  50  57
ENDBRANCH  47  49
ENDBRANCH  44  47
ENDBRANCH  41  44
ENDBRANCH  38  41
ENDBRANCH   1  38
TORSDOF 15
ENDMDL
MODEL 2
REMARK VINA RESULT:   -10.475      1.888      4.230
REMARK INTER + INTRA:         -21.953
REMARK INTER:                 -19.697
REMARK INTRA:                  -2.257
REMARK UNBOUND:                -2.600
REMARK  Name = 
REMARK  15 active torsions:
REMARK  status: ('A' for Active; 'I' for Inactive)
REMARK    1  A    between atoms: N_1  and  C_2
REMARK    2  A    between atoms: C_2  and  C_3
REMARK    3  A    between atoms: C_2  and  C_10
REMARK    4  A    between atoms: C_3  and  C_4
REMARK    5  A    between atoms: N_12  and  C_13
REMARK    6  A    between atoms: C_13  and  C_14
REMARK    7  A    between atoms: C_14  and  N_15
REMARK    8  A    between atoms: N_15  and  C_16
REMARK    9  A    between atoms: C_16  and  C_17
REMARK   10  A    between atoms: C_17  and  C_18
REMARK   11  A    between atoms: C_18  and  C_19
REMARK   12  A    between atoms: C_19  and  C_20
REMARK   13  A    between atoms: C_20  and  N_21
REMARK   14  A    between atoms: N_21  and  C_22
REMARK   15  A    between atoms: C_23  and  C_24
REMARK                            x       y       z     vdW  Elec       q    Type
REMARK                         _______ _______ _______ _____ _____    ______ ____
ROOT
ATOM      1  C   UNL     1     -10.968  -1.963  18.057  0.00  0.00    +0.000 C 
ATOM      2  H   UNL     1     -11.690  -2.742  17.790  0.00  0.00    +0.000 HD
ATOM      3  H   UNL     1     -11.535  -1.047  18.264  0.00  0.00    +0.000 HD
ENDROOT
BRANCH   1   4
ATOM      4  C   UNL     1     -10.031  -1.753  16.875  0.00  0.00    +0.000 C 
ATOM      5  H   UNL     1     -10.311  -0.842  16.334  0.00  0.00    +0.000 HD
ATOM      6  H   UNL     1      -9.021  -1.618  17.276  0.00  0.00    +0.000 HD
BRANCH   4   7
ATOM      7  N   UNL     1     -10.089  -2.908  15.984  0.00  0.00    +0.000 NA
ATOM      8  H   UNL     1      -9.746  -2.653  15.057  0.00  0.00    +0.000 HD
BRANCH   7   9
ATOM      9  C   UNL     1     -11.453  -3.438  15.857  0.00  0.00    +0.000 C 
ATOM     10  H   UNL     1     -11.818  -3.664  16.867  0.00  0.00    +0.000 HD
ATOM     11  H   UNL     1     -12.117  -2.658  15.467  0.00  0.00    +0.000 HD
BRANCH   9  12
ATOM     12  C   UNL     1     -11.557  -4.700  14.985  0.00  0.00    +0.000 C 
ATOM     13  H   UNL     1     -12.494  -4.722  14.424  0.00  0.00    +0.000 HD
ATOM     14  H   UNL     1     -10.730  -4.729  14.265  0.00  0.00    +0.000 HD
BRANCH  12  17
ATOM     15  C   UNL     1     -10.374  -6.530  16.139  0.00  0.00    +0.000 C 
ATOM     16  O   UNL     1      -9.264  -6.049  15.930  0.00  0.00    +0.000 OA
ATOM     17  N   UNL     1     -11.542  -5.910  15.765  0.00  0.00    +0.000 N 
ATOM     18  H   UNL     1     -12.402  -6.414  15.973  0.00  0.00    +0.000 HD
BRANCH  15  19
ATOM     19  C   UNL     1     -10.606  -7.868  16.869  0.00  0.00    +0.000 C 
ATOM     20  H   UNL     1      -9.771  -7.995  17.568  0.00  0.00    +0.000 HD
BRANCH  19  21
ATOM     21  N   UNL     1     -11.863  -7.789  17.670  0.00  0.00    +0.000 NA
ATOM     22  H   UNL     1     -12.647  -7.943  17.030  0.00  0.00    +0.000 HD
ATOM     23  H   UNL     1     -11.974  -6.826  17.990  0.00  0.00    +0.000 HD
ENDBRANCH  19  21
BRANCH  19  24
ATOM     24  C   UNL     1     -10.620  -8.995  15.823  0.00  0.00    +0.000 C 
ATOM     25  H   UNL     1     -10.263  -8.614  14.857  0.00  0.00    +0.000 HD
ATOM     26  H   UNL     1     -11.659  -9.306  15.645  0.00  0.00    +0.000 HD
BRANCH  24  27
ATOM     27  C   UNL     1      -9.779 -10.202  16.165  0.00  0.00    +0.000 A 
ATOM     28  C   UNL     1      -9.466 -10.483  17.501  0.00  0.00    +0.000 A 
ATOM     29  C   UNL     1      -8.751 -11.634  17.834  0.00  0.00    +0.000 A 
ATOM     30  C   UNL     1      -8.341 -12.513  16.835  0.00  0.00    +0.000 A 
ATOM     31  C   UNL     1      -8.641 -12.239  15.501  0.00  0.00    +0.000 A 
ATOM     32  C   UNL     1      -9.357 -11.089  15.166  0.00  0.00    +0.000 A 
ATOM     33  H   UNL     1      -9.796  -9.818  18.298  0.00  0.00    +0.000 HD
ATOM     34  H   UNL     1      -8.528 -11.851  18.875  0.00  0.00    +0.000 HD
ATOM     35  H   UNL     1      -7.799 -13.417  17.096  0.00  0.00    +0.000 HD
ATOM     36  H   UNL     1      -8.329 -12.931  14.722  0.00  0.00    +0.000 HD
ATOM     37  H   UNL     1      -9.601 -10.905  14.122  0.00  0.00    +0.000 HD
ENDBRANCH  24  27
ENDBRANCH  19  24
ENDBRANCH  15  19
ENDBRANCH  12  17
ENDBRANCH   9  12
ENDBRANCH   7   9
ENDBRANCH   4   7
ENDBRANCH   1   4
BRANCH   1  38
ATOM     38  C   UNL     1     -10.176  -2.380  19.299  0.00  0.00    +0.000 C 
ATOM     39  H   UNL     1      -9.617  -3.298  19.077  0.00  0.00    +0.000 HD
ATOM     40  H   UNL     1     -10.866  -2.623  20.117  0.00  0.00    +0.000 HD
BRANCH  38  41
ATOM     41  C   UNL     1      -9.194  -1.309  19.770  0.00  0.00    +0.000 C 
ATOM     42  H   UNL     1      -9.103  -0.538  18.994  0.00  0.00    +0.000 HD
ATOM     43  H   UNL     1      -8.201  -1.761  19.877  0.00  0.00    +0.000 HD
BRANCH  41  44
ATOM     44  C   UNL     1      -9.608  -0.671  21.098  0.00  0.00    +0.000 C 
ATOM     45  H   UNL     1     -10.388  -1.273  21.574  0.00  0.00    +0.000 HD
ATOM     46  H   UNL     1     -10.015   0.329  20.917  0.00  0.00    +0.000 HD
BRANCH  44  47
ATOM     47  N   UNL     1      -8.451  -0.556  21.988  0.00  0.00    +0.000 N 
ATOM     48  H   UNL     1      -8.397   0.399  22.364  0.00  0.00    +0.000 HD
BRANCH  47  49
ATOM     49  C   UNL     1      -8.339  -1.427  23.067  0.00  0.00    +0.000 C 
ATOM     50  C   UNL     1      -7.850  -2.666  23.237  0.00  0.00    +0.000 C 
ATOM     51  C   UNL     1      -8.242  -3.107  24.603  0.00  0.00    +0.000 C 
ATOM     52  O   UNL     1      -8.122  -4.236  25.045  0.00  0.00    +0.000 OA
ATOM     53  N   UNL     1      -8.836  -2.070  25.220  0.00  0.00    +0.000 N 
ATOM     54  C   UNL     1      -9.027  -1.068  24.345  0.00  0.00    +0.000 C 
ATOM     55  O   UNL     1      -9.713  -0.073  24.501  0.00  0.00    +0.000 OA
ATOM     56  H   UNL     1      -9.301  -2.137  26.109  0.00  0.00    +0.000 HD
BRANCH  50  57
ATOM     57  C   UNL     1      -7.217  -3.492  22.276  0.00  0.00    +0.000 A 
ATOM     58  C   UNL     1      -5.922  -3.760  21.880  0.00  0.00    +0.000 A 
ATOM     59  C   UNL     1      -5.974  -4.600  20.727  0.00  0.00    +0.000 A 
ATOM     60  C   UNL     1      -5.016  -5.144  19.847  0.00  0.00    +0.000 A 
ATOM     61  C   UNL     1      -5.446  -5.880  18.733  0.00  0.00    +0.000 A 
ATOM     62  C   UNL     1      -6.802  -6.101  18.502  0.00  0.00    +0.000 A 
ATOM     63  C   UNL     1      -7.767  -5.615  19.387  0.00  0.00    +0.000 A 
ATOM     64  C   UNL     1      -7.319  -4.868  20.480  0.00  0.00    +0.000 A 
ATOM     65  N   UNL     1      -8.034  -4.271  21.486  0.00  0.00    +0.000 N 
ATOM     66  H   UNL     1      -5.025  -3.357  22.334  0.00  0.00    +0.000 HD
ATOM     67  H   UNL     1      -3.956  -4.978  20.011  0.00  0.00    +0.000 HD
ATOM     68  H   UNL     1      -4.713  -6.275  18.034  0.00  0.00    +0.000 HD
ATOM     69  H   UNL     1      -7.119  -6.659  17.623  0.00  0.00    +0.000 HD
ATOM     70  H   UNL     1      -8.824  -5.795  19.217  0.00  0.00    +0.000 HD
ATOM     71  H   UNL     1      -9.039  -4.348  21.594  0.00  0.00    +0.000 HD
ENDBRANCH  50  57
ENDBRANCH  47  49
ENDBRANCH  44  47
ENDBRANCH  41  44
ENDBRANCH  38  41
ENDBRANCH   1  38
TORSDOF 15
ENDMDL
MODEL 3
REMARK VINA RESULT:   -10.461      1.386      2.115
REMARK INTER + INTRA:         -21.928
REMARK INTER:                 -20.472
REMARK INTRA:                  -1.456
REMARK UNBOUND:                -2.600
REMARK  Name = 
REMARK  15 active torsions:
REMARK  status: ('A' for Active; 'I' for Inactive)
REMARK    1  A    between atoms: N_1  and  C_2
REMARK    2  A    between atoms: C_2  and  C_3
REMARK    3  A    between atoms: C_2  and  C_10
REMARK    4  A    between atoms: C_3  and  C_4
REMARK    5  A    between atoms: N_12  and  C_13
REMARK    6  A    between atoms: C_13  and  C_14
REMARK    7  A    between atoms: C_14  and  N_15
REMARK    8  A    between atoms: N_15  and  C_16
REMARK    9  A    between atoms: C_16  and  C_17
REMARK   10  A    between atoms: C_17  and  C_18
REMARK   11  A    between atoms: C_18  and  C_19
REMARK   12  A    between atoms: C_19  and  C_20
REMARK   13  A    between atoms: C_20  and  N_21
REMARK   14  A    between atoms: N_21  and  C_22
REMARK   15  A    between atoms: C_23  and  C_24
REMARK                            x       y       z     vdW  Elec       q    Type
REMARK                         _______ _______ _______ _____ _____    ______ ____
ROOT
ATOM      1  C   UNL     1     -10.918  -3.317  16.236  0.00  0.00    +0.000 C 
ATOM      2  H   UNL     1     -10.797  -2.326  15.784  0.00  0.00    +0.000 HD
ATOM      3  H   UNL     1      -9.950  -3.602  16.664  0.00  0.00    +0.000 HD
ENDROOT
BRANCH   1   4
ATOM      4  C   UNL     1     -11.327  -4.295  15.144  0.00  0.00    +0.000 C 
ATOM      5  H   UNL     1     -12.061  -3.826  14.478  0.00  0.00    +0.000 HD
ATOM      6  H   UNL     1     -10.431  -4.527  14.559  0.00  0.00    +0.000 HD
BRANCH   4   7
ATOM      7  N   UNL     1     -11.887  -5.503  15.743  0.00  0.00    +0.000 NA
ATOM      8  H   UNL     1     -12.602  -5.256  16.429  0.00  0.00    +0.000 HD
BRANCH   7   9
ATOM      9  C   UNL     1     -10.859  -6.319  16.401  0.00  0.00    +0.000 C 
ATOM     10  H   UNL     1     -10.022  -6.430  15.700  0.00  0.00    +0.000 HD
ATOM     11  H   UNL     1     -10.454  -5.778  17.265  0.00  0.00    +0.000 HD
BRANCH   9  12
ATOM     12  C   UNL     1     -11.345  -7.711  16.836  0.00  0.00    +0.000 C 
ATOM     13  H   UNL     1     -10.914  -8.003  17.797  0.00  0.00    +0.000 HD
ATOM     14  H   UNL     1     -12.437  -7.711  16.941  0.00  0.00    +0.000 HD
BRANCH  12  17
ATOM     15  C   UNL     1      -9.708  -9.306  15.911  0.00  0.00    +0.000 C 
ATOM     16  O   UNL     1      -8.862  -9.052  16.762  0.00  0.00    +0.000 OA
ATOM     17  N   UNL     1     -10.962  -8.743  15.908  0.00  0.00    +0.000 N 
ATOM     18  H   UNL     1     -11.573  -9.014  15.140  0.00  0.00    +0.000 HD
BRANCH  15  19
ATOM     19  C   UNL     1      -9.492 -10.306  14.757  0.00  0.00    +0.000 C 
ATOM     20  H   UNL     1     -10.373 -10.958  14.735  0.00  0.00    +0.000 HD
BRANCH  19  21
ATOM     21  N   UNL     1      -9.439  -9.568  13.460  0.00  0.00    +0.000 NA
ATOM     22  H   UNL     1      -9.014  -8.656  13.641  0.00  0.00    +0.000 HD
ATOM     23  H   UNL     1     -10.397  -9.359  13.176  0.00  0.00    +0.000 HD
ENDBRANCH  19  21
BRANCH  19  24
ATOM     24  C   UNL     1      -8.219 -11.117  15.050  0.00  0.00    +0.000 C 
ATOM     25  H   UNL     1      -7.547 -10.537  15.696  0.00  0.00    +0.000 HD
ATOM     26  H   UNL     1      -7.664 -11.262  14.113  0.00  0.00    +0.000 HD
BRANCH  24  27
ATOM     27  C   UNL     1      -8.444 -12.450  15.721  0.00  0.00    +0.000 A 
ATOM     28  C   UNL     1      -8.537 -12.525  17.118  0.00  0.00    +0.000 A 
ATOM     29  C   UNL     1      -8.815 -13.740  17.744  0.00  0.00    +0.000 A 
ATOM     30  C   UNL     1      -9.002 -14.891  16.982  0.00  0.00    +0.000 A 
ATOM     31  C   UNL     1      -8.904 -14.829  15.593  0.00  0.00    +0.000 A 
ATOM     32  C   UNL     1      -8.626 -13.614  14.964  0.00  0.00    +0.000 A 
ATOM     33  H   UNL     1      -8.415 -11.633  17.728  0.00  0.00    +0.000 HD
ATOM     34  H   UNL     1      -8.902 -13.784  18.826  0.00  0.00    +0.000 HD
ATOM     35  H   UNL     1      -9.235 -15.833  17.469  0.00  0.00    +0.000 HD
ATOM     36  H   UNL     1      -9.059 -15.725  14.997  0.00  0.00    +0.000 HD
ATOM     37  H   UNL     1      -8.576 -13.582  13.877  0.00  0.00    +0.000 HD
ENDBRANCH  24  27
ENDBRANCH  19  24
ENDBRANCH  15  19
ENDBRANCH  12  17
ENDBRANCH   9  12
ENDBRANCH   7   9
ENDBRANCH   4   7
ENDBRANCH   1   4
BRANCH   1  38
ATOM     38  C   UNL     1     -11.983  -3.268  17.336  0.00  0.00    +0.000 C 
ATOM     39  H   UNL     1     -12.706  -4.076  17.171  0.00  0.00    +0.000 HD
ATOM     40  H   UNL     1     -12.542  -2.326  17.271  0.00  0.00    +0.000 HD
BRANCH  38  41
ATOM     41  C   UNL     1     -11.398  -3.411  18.740  0.00  0.00    +0.000 C 
ATOM     42  H   UNL     1     -11.812  -4.311  19.212  0.00  0.00    +0.000 HD
ATOM     43  H   UNL     1     -11.727  -2.561  19.349  0.00  0.00    +0.000 HD
BRANCH  41  44
ATOM     44  C   UNL     1      -9.869  -3.475  18.739  0.00  0.00    +0.000 C 
ATOM     45  H   UNL     1      -9.461  -2.657  19.341  0.00  0.00    +0.000 HD
ATOM     46  H   UNL     1      -9.495  -3.362  17.716  0.00  0.00    +0.000 HD
BRANCH  44  47
ATOM     47  N   UNL     1      -9.415  -4.762  19.267  0.00  0.00    +0.000 N 
ATOM     48  H   UNL     1      -9.541  -5.493  18.556  0.00  0.00    +0.000 HD
BRANCH  47  49
ATOM     49  C   UNL     1      -8.113  -4.876  19.743  0.00  0.00    +0.000 C 
ATOM     50  C   UNL     1      -7.411  -4.297  20.730  0.00  0.00    +0.000 C 
ATOM     51  C   UNL     1      -5.992  -4.711  20.559  0.00  0.00    +0.000 C 
ATOM     52  O   UNL     1      -5.040  -4.250  21.164  0.00  0.00    +0.000 OA
ATOM     53  N   UNL     1      -5.939  -5.608  19.558  0.00  0.00    +0.000 N 
ATOM     54  C   UNL     1      -7.135  -5.686  18.951  0.00  0.00    +0.000 C 
ATOM     55  O   UNL     1      -7.392  -6.231  17.892  0.00  0.00    +0.000 OA
ATOM     56  H   UNL     1      -5.083  -5.956  19.161  0.00  0.00    +0.000 HD
BRANCH  50  57
ATOM     57  C   UNL     1      -7.861  -3.344  21.676  0.00  0.00    +0.000 A 
ATOM     58  C   UNL     1      -7.840  -1.970  21.806  0.00  0.00    +0.000 A 
ATOM     59  C   UNL     1      -8.343  -1.637  23.099  0.00  0.00    +0.000 A 
ATOM     60  C   UNL     1      -8.502  -0.440  23.828  0.00  0.00    +0.000 A 
ATOM     61  C   UNL     1      -8.968  -0.498  25.151  0.00  0.00    +0.000 A 
ATOM     62  C   UNL     1      -9.299  -1.717  25.739  0.00  0.00    +0.000 A 
ATOM     63  C   UNL     1      -9.198  -2.909  25.021  0.00  0.00    +0.000 A 
ATOM     64  C   UNL     1      -8.714  -2.832  23.712  0.00  0.00    +0.000 A 
ATOM     65  N   UNL     1      -8.506  -3.830  22.793  0.00  0.00    +0.000 N 
ATOM     66  H   UNL     1      -7.455  -1.271  21.073  0.00  0.00    +0.000 HD
ATOM     67  H   UNL     1      -8.246   0.517  23.385  0.00  0.00    +0.000 HD
ATOM     68  H   UNL     1      -9.063   0.418  25.728  0.00  0.00    +0.000 HD
ATOM     69  H   UNL     1      -9.642  -1.745  26.771  0.00  0.00    +0.000 HD
ATOM     70  H   UNL     1      -9.466  -3.860  25.472  0.00  0.00    +0.000 HD
ATOM     71  H   UNL     1      -8.742  -4.804  22.946  0.00  0.00    +0.000 HD
ENDBRANCH  50  57
ENDBRANCH  47  49
ENDBRANCH  44  47
ENDBRANCH  41  44
ENDBRANCH  38  41
ENDBRANCH   1  38
TORSDOF 15
ENDMDL
MODEL 4
REMARK VINA RESULT:   -10.431      1.974      4.302
REMARK INTER + INTRA:         -21.872
REMARK INTER:                 -19.948
REMARK INTRA:                  -1.924
REMARK UNBOUND:                -2.600
REMARK  Name = 
REMARK  15 active torsions:
REMARK  status: ('A' for Active; 'I' for Inactive)
REMARK    1  A    between atoms: N_1  and  C_2
REMARK    2  A    between atoms: C_2  and  C_3
REMARK    3  A    between atoms: C_2  and  C_10
REMARK    4  A    between atoms: C_3  and  C_4
REMARK    5  A    between atoms: N_12  and  C_13
REMARK    6  A    between atoms: C_13  and  C_14
REMARK    7  A    between atoms: C_14  and  N_15
REMARK    8  A    between atoms: N_15  and  C_16
REMARK    9  A    between atoms: C_16  and  C_17
REMARK   10  A    between atoms: C_17  and  C_18
REMARK   11  A    between atoms: C_18  and  C_19
REMARK   12  A    between atoms: C_19  and  C_20
REMARK   13  A    between atoms: C_20  and  N_21
REMARK   14  A    between atoms: N_21  and  C_22
REMARK   15  A    between atoms: C_23  and  C_24
REMARK                            x       y       z     vdW  Elec       q    Type
REMARK                         _______ _______ _______ _____ _____    ______ ____
ROOT
ATOM      1  C   UNL     1     -10.042  -2.914  18.730  0.00  0.00    +0.000 C 
ATOM      2  H   UNL     1      -9.518  -3.623  18.079  0.00  0.00    +0.000 HD
ATOM      3  H   UNL     1      -9.617  -3.017  19.735  0.00  0.00    +0.000 HD
ENDROOT
BRANCH   1   4
ATOM      4  C   UNL     1     -11.521  -3.274  18.737  0.00  0.00    +0.000 C 
ATOM      5  H   UNL     1     -11.844  -3.504  19.759  0.00  0.00    +0.000 HD
ATOM      6  H   UNL     1     -12.075  -2.396  18.391  0.00  0.00    +0.000 HD
BRANCH   4   7
ATOM      7  N   UNL     1     -11.758  -4.419  17.862  0.00  0.00    +0.000 NA
ATOM      8  H   UNL     1     -10.993  -5.090  17.947  0.00  0.00    +0.000 HD
BRANCH   7   9
ATOM      9  C   UNL     1     -11.885  -4.020  16.454  0.00  0.00    +0.000 C 
ATOM     10  H   UNL     1     -12.946  -4.093  16.182  0.00  0.00    +0.000 HD
ATOM     11  H   UNL     1     -11.621  -2.961  16.345  0.00  0.00    +0.000 HD
BRANCH   9  12
ATOM     12  C   UNL     1     -11.051  -4.871  15.483  0.00  0.00    +0.000 C 
ATOM     13  H   UNL     1     -11.440  -4.809  14.463  0.00  0.00    +0.000 HD
ATOM     14  H   UNL     1     -10.012  -4.519  15.472  0.00  0.00    +0.000 HD
BRANCH  12  17
ATOM     15  C   UNL     1      -9.917  -6.996  16.010  0.00  0.00    +0.000 C 
ATOM     16  O   UNL     1      -8.799  -6.490  16.009  0.00  0.00    +0.000 OA
ATOM     17  N   UNL     1     -11.069  -6.270  15.822  0.00  0.00    +0.000 N 
ATOM     18  H   UNL     1     -11.938  -6.801  15.824  0.00  0.00    +0.000 HD
BRANCH  15  19
ATOM     19  C   UNL     1     -10.180  -8.496  16.253  0.00  0.00    +0.000 C 
ATOM     20  H   UNL     1     -10.037  -8.672  17.325  0.00  0.00    +0.000 HD
BRANCH  19  21
ATOM     21  N   UNL     1     -11.602  -8.813  15.924  0.00  0.00    +0.000 NA
ATOM     22  H   UNL     1     -11.677  -8.873  14.905  0.00  0.00    +0.000 HD
ATOM     23  H   UNL     1     -12.173  -8.007  16.181  0.00  0.00    +0.000 HD
ENDBRANCH  19  21
BRANCH  19  24
ATOM     24  C   UNL     1      -9.168  -9.305  15.425  0.00  0.00    +0.000 C 
ATOM     25  H   UNL     1      -8.211  -8.770  15.378  0.00  0.00    +0.000 HD
ATOM     26  H   UNL     1      -9.519  -9.362  14.385  0.00  0.00    +0.000 HD
BRANCH  24  27
ATOM     27  C   UNL     1      -8.879 -10.694  15.941  0.00  0.00    +0.000 A 
ATOM     28  C   UNL     1      -8.970 -10.966  17.312  0.00  0.00    +0.000 A 
ATOM     29  C   UNL     1      -8.774 -12.262  17.792  0.00  0.00    +0.000 A 
ATOM     30  C   UNL     1      -8.484 -13.297  16.905  0.00  0.00    +0.000 A 
ATOM     31  C   UNL     1      -8.384 -13.036  15.540  0.00  0.00    +0.000 A 
ATOM     32  C   UNL     1      -8.580 -11.740  15.058  0.00  0.00    +0.000 A 
ATOM     33  H   UNL     1      -9.216 -10.175  18.018  0.00  0.00    +0.000 HD
ATOM     34  H   UNL     1      -8.864 -12.465  18.855  0.00  0.00    +0.000 HD
ATOM     35  H   UNL     1      -8.348 -14.308  17.278  0.00  0.00    +0.000 HD
ATOM     36  H   UNL     1      -8.167 -13.845  14.847  0.00  0.00    +0.000 HD
ATOM     37  H   UNL     1      -8.520 -11.561  13.986  0.00  0.00    +0.000 HD
ENDBRANCH  24  27
ENDBRANCH  19  24
ENDBRANCH  15  19
ENDBRANCH  12  17
ENDBRANCH   9  12
ENDBRANCH   7   9
ENDBRANCH   4   7
ENDBRANCH   1   4
BRANCH   1  38
ATOM     38  C   UNL     1      -9.843  -1.484  18.220  0.00  0.00    +0.000 C 
ATOM     39  H   UNL     1     -10.812  -1.075  17.910  0.00  0.00    +0.000 HD
ATOM     40  H   UNL     1      -9.204  -1.492  17.328  0.00  0.00    +0.000 HD
BRANCH  38  41
ATOM     41  C   UNL     1      -9.232  -0.556  19.269  0.00  0.00    +0.000 C 
ATOM     42  H   UNL     1      -9.492   0.482  19.027  0.00  0.00    +0.000 HD
ATOM     43  H   UNL     1      -8.139  -0.625  19.210  0.00  0.00    +0.000 HD
BRANCH  41  44
ATOM     44  C   UNL     1      -9.686  -0.893  20.691  0.00  0.00    +0.000 C 
ATOM     45  H   UNL     1      -9.956  -1.951  20.756  0.00  0.00    +0.000 HD
ATOM     46  H   UNL     1     -10.571  -0.301  20.947  0.00  0.00    +0.000 HD
BRANCH  44  47
ATOM     47  N   UNL     1      -8.622  -0.588  21.649  0.00  0.00    +0.000 N 
ATOM     48  H   UNL     1      -8.707   0.387  21.962  0.00  0.00    +0.000 HD
BRANCH  47  49
ATOM     49  C   UNL     1      -8.493  -1.373  22.790  0.00  0.00    +0.000 C 
ATOM     50  C   UNL     1      -7.936  -2.564  23.062  0.00  0.00    +0.000 C 
ATOM     51  C   UNL     1      -8.347  -2.934  24.443  0.00  0.00    +0.000 C 
ATOM     52  O   UNL     1      -8.173  -4.019  24.968  0.00  0.00    +0.000 OA
ATOM     53  N   UNL     1      -9.024  -1.896  24.967  0.00  0.00    +0.000 N 
ATOM     54  C   UNL     1      -9.246  -0.971  24.019  0.00  0.00    +0.000 C 
ATOM     55  O   UNL     1      -9.996  -0.013  24.082  0.00  0.00    +0.000 OA
ATOM     56  H   UNL     1      -9.514  -1.931  25.844  0.00  0.00    +0.000 HD
BRANCH  50  57
ATOM     57  C   UNL     1      -7.221  -3.413  22.181  0.00  0.00    +0.000 A 
ATOM     58  C   UNL     1      -5.897  -3.660  21.880  0.00  0.00    +0.000 A 
ATOM     59  C   UNL     1      -5.852  -4.550  20.765  0.00  0.00    +0.000 A 
ATOM     60  C   UNL     1      -4.826  -5.104  19.974  0.00  0.00    +0.000 A 
ATOM     61  C   UNL     1      -5.164  -5.901  18.869  0.00  0.00    +0.000 A 
ATOM     62  C   UNL     1      -6.496  -6.172  18.564  0.00  0.00    +0.000 A 
ATOM     63  C   UNL     1      -7.528  -5.676  19.363  0.00  0.00    +0.000 A 
ATOM     64  C   UNL     1      -7.171  -4.869  20.447  0.00  0.00    +0.000 A 
ATOM     65  N   UNL     1      -7.965  -4.249  21.378  0.00  0.00    +0.000 N 
ATOM     66  H   UNL     1      -5.041  -3.211  22.370  0.00  0.00    +0.000 HD
ATOM     67  H   UNL     1      -3.783  -4.900  20.196  0.00  0.00    +0.000 HD
ATOM     68  H   UNL     1      -4.378  -6.305  18.236  0.00  0.00    +0.000 HD
ATOM     69  H   UNL     1      -6.742  -6.777  17.694  0.00  0.00    +0.000 HD
ATOM     70  H   UNL     1      -8.567  -5.893  19.135  0.00  0.00    +0.000 HD
ATOM     71  H   UNL     1      -8.973  -4.351  21.426  0.00  0.00    +0.000 HD
ENDBRANCH  50  57
ENDBRANCH  47  49
ENDBRANCH  44  47
ENDBRANCH  41  44
ENDBRANCH  38  41
ENDBRANCH   1  38
TORSDOF 15
ENDMDL
MODEL 5
REMARK VINA RESULT:   -10.256      2.335      8.765
REMARK INTER + INTRA:         -21.548
REMARK INTER:                 -19.156
REMARK INTRA:                  -2.392
REMARK UNBOUND:                -2.600
REMARK  Name = 
REMARK  15 active torsions:
REMARK  status: ('A' for Active; 'I' for Inactive)
REMARK    1  A    between atoms: N_1  and  C_2
REMARK    2  A    between atoms: C_2  and  C_3
REMARK    3  A    between atoms: C_2  and  C_10
REMARK    4  A    between atoms: C_3  and  C_4
REMARK    5  A    between atoms: N_12  and  C_13
REMARK    6  A    between atoms: C_13  and  C_14
REMARK    7  A    between atoms: C_14  and  N_15
REMARK    8  A    between atoms: N_15  and  C_16
REMARK    9  A    between atoms: C_16  and  C_17
REMARK   10  A    between atoms: C_17  and  C_18
REMARK   11  A    between atoms: C_18  and  C_19
REMARK   12  A    between atoms: C_19  and  C_20
REMARK   13  A    between atoms: C_20  and  N_21
REMARK   14  A    between atoms: N_21  and  C_22
REMARK   15  A    between atoms: C_23  and  C_24
REMARK                            x       y       z     vdW  Elec       q    Type
REMARK                         _______ _______ _______ _____ _____    ______ ____
ROOT
ATOM      1  C   UNL     1     -11.616  -3.838  16.291  0.00  0.00    +0.000 C 
ATOM      2  H   UNL     1     -11.628  -3.308  15.333  0.00  0.00    +0.000 HD
ATOM      3  H   UNL     1     -12.609  -3.723  16.742  0.00  0.00    +0.000 HD
ENDROOT
BRANCH   1   4
ATOM      4  C   UNL     1     -10.553  -3.202  17.177  0.00  0.00    +0.000 C 
ATOM      5  H   UNL     1      -9.572  -3.635  16.951  0.00  0.00    +0.000 HD
ATOM      6  H   UNL     1     -10.522  -2.135  16.937  0.00  0.00    +0.000 HD
BRANCH   4   7
ATOM      7  N   UNL     1     -10.887  -3.412  18.582  0.00  0.00    +0.000 NA
ATOM      8  H   UNL     1     -11.532  -4.198  18.676  0.00  0.00    +0.000 HD
BRANCH   7   9
ATOM      9  C   UNL     1     -11.498  -2.222  19.188  0.00  0.00    +0.000 C 
ATOM     10  H   UNL     1     -10.961  -1.343  18.808  0.00  0.00    +0.000 HD
ATOM     11  H   UNL     1     -12.530  -2.116  18.834  0.00  0.00    +0.000 HD
BRANCH   9  12
ATOM     12  C   UNL     1     -11.466  -2.212  20.724  0.00  0.00    +0.000 C 
ATOM     13  H   UNL     1     -11.882  -1.285  21.127  0.00  0.00    +0.000 HD
ATOM     14  H   UNL     1     -12.056  -3.048  21.118  0.00  0.00    +0.000 HD
BRANCH  12  17
ATOM     15  C   UNL     1      -9.449  -1.195  21.714  0.00  0.00    +0.000 C 
ATOM     16  O   UNL     1      -9.964  -0.086  21.818  0.00  0.00    +0.000 OA
ATOM     17  N   UNL     1     -10.127  -2.296  21.248  0.00  0.00    +0.000 N 
ATOM     18  H   UNL     1      -9.590  -3.159  21.186  0.00  0.00    +0.000 HD
BRANCH  15  19
ATOM     19  C   UNL     1      -7.994  -1.507  22.118  0.00  0.00    +0.000 C 
ATOM     20  H   UNL     1      -7.365  -1.248  21.258  0.00  0.00    +0.000 HD
BRANCH  19  21
ATOM     21  N   UNL     1      -7.592  -0.631  23.257  0.00  0.00    +0.000 NA
ATOM     22  H   UNL     1      -8.437  -0.415  23.793  0.00  0.00    +0.000 HD
ATOM     23  H   UNL     1      -7.290   0.267  22.875  0.00  0.00    +0.000 HD
ENDBRANCH  19  21
BRANCH  19  24
ATOM     24  C   UNL     1      -7.891  -3.008  22.438  0.00  0.00    +0.000 C 
ATOM     25  H   UNL     1      -8.873  -3.484  22.320  0.00  0.00    +0.000 HD
ATOM     26  H   UNL     1      -7.636  -3.131  23.499  0.00  0.00    +0.000 HD
BRANCH  24  27
ATOM     27  C   UNL     1      -6.914  -3.783  21.587  0.00  0.00    +0.000 A 
ATOM     28  C   UNL     1      -7.386  -4.687  20.625  0.00  0.00    +0.000 A 
ATOM     29  C   UNL     1      -6.494  -5.356  19.785  0.00  0.00    +0.000 A 
ATOM     30  C   UNL     1      -5.125  -5.127  19.899  0.00  0.00    +0.000 A 
ATOM     31  C   UNL     1      -4.645  -4.236  20.856  0.00  0.00    +0.000 A 
ATOM     32  C   UNL     1      -5.535  -3.565  21.698  0.00  0.00    +0.000 A 
ATOM     33  H   UNL     1      -8.453  -4.862  20.508  0.00  0.00    +0.000 HD
ATOM     34  H   UNL     1      -6.871  -6.042  19.032  0.00  0.00    +0.000 HD
ATOM     35  H   UNL     1      -4.433  -5.636  19.233  0.00  0.00    +0.000 HD
ATOM     36  H   UNL     1      -3.576  -4.051  20.939  0.00  0.00    +0.000 HD
ATOM     37  H   UNL     1      -5.142  -2.857  22.424  0.00  0.00    +0.000 HD
ENDBRANCH  24  27
ENDBRANCH  19  24
ENDBRANCH  15  19
ENDBRANCH  12  17
ENDBRANCH   9  12
ENDBRANCH   7   9
ENDBRANCH   4   7
ENDBRANCH   1   4
BRANCH   1  38
ATOM     38  C   UNL     1     -11.310  -5.322  16.070  0.00  0.00    +0.000 C 
ATOM     39  H   UNL     1     -11.964  -5.710  15.279  0.00  0.00    +0.000 HD
ATOM     40  H   UNL     1     -11.545  -5.890  16.979  0.00  0.00    +0.000 HD
BRANCH  38  41
ATOM     41  C   UNL     1      -9.857  -5.580  15.675  0.00  0.00    +0.000 C 
ATOM     42  H   UNL     1      -9.196  -5.026  16.352  0.00  0.00    +0.000 HD
ATOM     43  H   UNL     1      -9.686  -5.174  14.671  0.00  0.00    +0.000 HD
BRANCH  41  44
ATOM     44  C   UNL     1      -9.497  -7.068  15.690  0.00  0.00    +0.000 C 
ATOM     45  H   UNL     1      -8.423  -7.190  15.862  0.00  0.00    +0.000 HD
ATOM     46  H   UNL     1      -9.738  -7.516  14.721  0.00  0.00    +0.000 HD
BRANCH  44  47
ATOM     47  N   UNL     1     -10.254  -7.762  16.733  0.00  0.00    +0.000 N 
ATOM     48  H   UNL     1     -10.709  -8.594  16.336  0.00  0.00    +0.000 HD
BRANCH  47  49
ATOM     49  C   UNL     1      -9.595  -8.170  17.889  0.00  0.00    +0.000 C 
ATOM     50  C   UNL     1      -8.999  -9.304  18.288  0.00  0.00    +0.000 C 
ATOM     51  C   UNL     1      -8.684  -9.147  19.734  0.00  0.00    +0.000 C 
ATOM     52  O   UNL     1      -8.295 -10.032  20.475  0.00  0.00    +0.000 OA
ATOM     53  N   UNL     1      -8.996  -7.889  20.093  0.00  0.00    +0.000 N 
ATOM     54  C   UNL     1      -9.639  -7.274  19.086  0.00  0.00    +0.000 C 
ATOM     55  O   UNL     1     -10.243  -6.217  19.132  0.00  0.00    +0.000 OA
ATOM     56  H   UNL     1      -8.993  -7.559  21.042  0.00  0.00    +0.000 HD
BRANCH  50  57
ATOM     57  C   UNL     1      -8.824 -10.503  17.553  0.00  0.00    +0.000 A 
ATOM     58  C   UNL     1      -8.683 -10.855  16.226  0.00  0.00    +0.000 A 
ATOM     59  C   UNL     1      -8.696 -12.280  16.139  0.00  0.00    +0.000 A 
ATOM     60  C   UNL     1      -8.660 -13.214  15.084  0.00  0.00    +0.000 A 
ATOM     61  C   UNL     1      -8.779 -14.582  15.373  0.00  0.00    +0.000 A 
ATOM     62  C   UNL     1      -8.905 -15.027  16.687  0.00  0.00    +0.000 A 
ATOM     63  C   UNL     1      -8.893 -14.124  17.752  0.00  0.00    +0.000 A 
ATOM     64  C   UNL     1      -8.793 -12.765  17.442  0.00  0.00    +0.000 A 
ATOM     65  N   UNL     1      -8.766 -11.675  18.275  0.00  0.00    +0.000 N 
ATOM     66  H   UNL     1      -8.628 -10.167  15.391  0.00  0.00    +0.000 HD
ATOM     67  H   UNL     1      -8.565 -12.883  14.054  0.00  0.00    +0.000 HD
ATOM     68  H   UNL     1      -8.784 -15.304  14.561  0.00  0.00    +0.000 HD
ATOM     69  H   UNL     1      -9.015 -16.090  16.892  0.00  0.00    +0.000 HD
ATOM     70  H   UNL     1      -8.980 -14.467  18.778  0.00  0.00    +0.000 HD
ATOM     71  H   UNL     1      -8.765 -11.731  19.287  0.00  0.00    +0.000 HD
ENDBRANCH  50  57
ENDBRANCH  47  49
ENDBRANCH  44  47
ENDBRANCH  41  44
ENDBRANCH  38  41
ENDBRANCH   1  38
TORSDOF 15
ENDMDL
MODEL 6
REMARK VINA RESULT:   -10.196      2.270      4.457
REMARK INTER + INTRA:         -21.438
REMARK INTER:                 -19.672
REMARK INTRA:                  -1.766
REMARK UNBOUND:                -2.600
REMARK  Name = 
REMARK  15 active torsions:
REMARK  status: ('A' for Active; 'I' for Inactive)
REMARK    1  A    between atoms: N_1  and  C_2
REMARK    2  A    between atoms: C_2  and  C_3
REMARK    3  A    between atoms: C_2  and  C_10
REMARK    4  A    between atoms: C_3  and  C_4
REMARK    5  A    between atoms: N_12  and  C_13
REMARK    6  A    between atoms: C_13  and  C_14
REMARK    7  A    between atoms: C_14  and  N_15
REMARK    8  A    between atoms: N_15  and  C_16
REMARK    9  A    between atoms: C_16  and  C_17
REMARK   10  A    between atoms: C_17  and  C_18
REMARK   11  A    between atoms: C_18  and  C_19
REMARK   12  A    between atoms: C_19  and  C_20
REMARK   13  A    between atoms: C_20  and  N_21
REMARK   14  A    between atoms: N_21  and  C_22
REMARK   15  A    between atoms: C_23  and  C_24
REMARK                            x       y       z     vdW  Elec       q    Type
REMARK                         _______ _______ _______ _____ _____    ______ ____
ROOT
ATOM      1  C   UNL     1     -11.344  -3.305  18.566  0.00  0.00    +0.000 C 
ATOM      2  H   UNL     1     -11.489  -3.181  19.645  0.00  0.00    +0.000 HD
ATOM      3  H   UNL     1     -12.323  -3.182  18.088  0.00  0.00    +0.000 HD
ENDROOT
BRANCH   1   4
ATOM      4  C   UNL     1     -10.801  -4.705  18.314  0.00  0.00    +0.000 C 
ATOM      5  H   UNL     1      -9.759  -4.646  17.978  0.00  0.00    +0.000 HD
ATOM      6  H   UNL     1     -10.824  -5.243  19.267  0.00  0.00    +0.000 HD
BRANCH   4   7
ATOM      7  N   UNL     1     -11.618  -5.382  17.312  0.00  0.00    +0.000 NA
ATOM      8  H   UNL     1     -12.039  -6.222  17.712  0.00  0.00    +0.000 HD
BRANCH   7   9
ATOM      9  C   UNL     1     -10.837  -5.760  16.127  0.00  0.00    +0.000 C 
ATOM     10  H   UNL     1     -11.513  -6.278  15.434  0.00  0.00    +0.000 HD
ATOM     11  H   UNL     1     -10.505  -4.858  15.600  0.00  0.00    +0.000 HD
BRANCH   9  12
ATOM     12  C   UNL     1      -9.632  -6.663  16.432  0.00  0.00    +0.000 C 
ATOM     13  H   UNL     1      -8.693  -6.106  16.384  0.00  0.00    +0.000 HD
ATOM     14  H   UNL     1      -9.724  -7.086  17.440  0.00  0.00    +0.000 HD
BRANCH  12  17
ATOM     15  C   UNL     1      -9.869  -9.028  15.775  0.00  0.00    +0.000 C 
ATOM     16  O   UNL     1     -10.438  -9.341  16.815  0.00  0.00    +0.000 OA
ATOM     17  N   UNL     1      -9.495  -7.738  15.483  0.00  0.00    +0.000 N 
ATOM     18  H   UNL     1      -9.011  -7.602  14.598  0.00  0.00    +0.000 HD
BRANCH  15  19
ATOM     19  C   UNL     1      -9.525 -10.026  14.650  0.00  0.00    +0.000 C 
ATOM     20  H   UNL     1     -10.385 -10.698  14.550  0.00  0.00    +0.000 HD
BRANCH  19  21
ATOM     21  N   UNL     1      -9.369  -9.290  13.360  0.00  0.00    +0.000 NA
ATOM     22  H   UNL     1      -8.520  -8.723  13.429  0.00  0.00    +0.000 HD
ATOM     23  H   UNL     1     -10.129  -8.613  13.288  0.00  0.00    +0.000 HD
ENDBRANCH  19  21
BRANCH  19  24
ATOM     24  C   UNL     1      -8.266 -10.807  15.062  0.00  0.00    +0.000 C 
ATOM     25  H   UNL     1      -7.668 -10.209  15.763  0.00  0.00    +0.000 HD
ATOM     26  H   UNL     1      -7.626 -10.945  14.181  0.00  0.00    +0.000 HD
BRANCH  24  27
ATOM     27  C   UNL     1      -8.523 -12.141  15.720  0.00  0.00    +0.000 A 
ATOM     28  C   UNL     1      -8.644 -13.297  14.938  0.00  0.00    +0.000 A 
ATOM     29  C   UNL     1      -8.810 -14.545  15.539  0.00  0.00    +0.000 A 
ATOM     30  C   UNL     1      -8.857 -14.649  16.927  0.00  0.00    +0.000 A 
ATOM     31  C   UNL     1      -8.745 -13.505  17.715  0.00  0.00    +0.000 A 
ATOM     32  C   UNL     1      -8.578 -12.255  17.116  0.00  0.00    +0.000 A 
ATOM     33  H   UNL     1      -8.589 -13.238  13.852  0.00  0.00    +0.000 HD
ATOM     34  H   UNL     1      -8.886 -15.437  14.924  0.00  0.00    +0.000 HD
ATOM     35  H   UNL     1      -8.969 -15.623  17.395  0.00  0.00    +0.000 HD
ATOM     36  H   UNL     1      -8.772 -13.587  18.799  0.00  0.00    +0.000 HD
ATOM     37  H   UNL     1      -8.469 -11.377  17.748  0.00  0.00    +0.000 HD
ENDBRANCH  24  27
ENDBRANCH  19  24
ENDBRANCH  15  19
ENDBRANCH  12  17
ENDBRANCH   9  12
ENDBRANCH   7   9
ENDBRANCH   4   7
ENDBRANCH   1   4
BRANCH   1  38
ATOM     38  C   UNL     1     -10.368  -2.249  18.040  0.00  0.00    +0.000 C 
ATOM     39  H   UNL     1     -10.935  -1.374  17.700  0.00  0.00    +0.000 HD
ATOM     40  H   UNL     1      -9.835  -2.639  17.164  0.00  0.00    +0.000 HD
BRANCH  38  41
ATOM     41  C   UNL     1      -9.353  -1.799  19.089  0.00  0.00    +0.000 C 
ATOM     42  H   UNL     1      -8.508  -1.311  18.587  0.00  0.00    +0.000 HD
ATOM     43  H   UNL     1      -8.947  -2.684  19.593  0.00  0.00    +0.000 HD
BRANCH  41  44
ATOM     44  C   UNL     1      -9.960  -0.855  20.130  0.00  0.00    +0.000 C 
ATOM     45  H   UNL     1     -10.779  -1.356  20.656  0.00  0.00    +0.000 HD
ATOM     46  H   UNL     1     -10.368   0.030  19.633  0.00  0.00    +0.000 HD
BRANCH  44  47
ATOM     47  N   UNL     1      -8.937  -0.430  21.087  0.00  0.00    +0.000 N 
ATOM     48  H   UNL     1      -9.030   0.578  21.269  0.00  0.00    +0.000 HD
BRANCH  47  49
ATOM     49  C   UNL     1      -8.861  -1.063  22.323  0.00  0.00    +0.000 C 
ATOM     50  C   UNL     1      -8.264  -2.174  22.782  0.00  0.00    +0.000 C 
ATOM     51  C   UNL     1      -8.767  -2.402  24.163  0.00  0.00    +0.000 C 
ATOM     52  O   UNL     1      -8.578  -3.404  24.831  0.00  0.00    +0.000 OA
ATOM     53  N   UNL     1      -9.541  -1.356  24.502  0.00  0.00    +0.000 N 
ATOM     54  C   UNL     1      -9.734  -0.567  23.431  0.00  0.00    +0.000 C 
ATOM     55  O   UNL     1     -10.539   0.341  23.318  0.00  0.00    +0.000 OA
ATOM     56  H   UNL     1     -10.101  -1.317  25.336  0.00  0.00    +0.000 HD
BRANCH  50  57
ATOM     57  C   UNL     1      -7.432  -3.074  22.071  0.00  0.00    +0.000 A 
ATOM     58  C   UNL     1      -6.075  -3.284  21.924  0.00  0.00    +0.000 A 
ATOM     59  C   UNL     1      -5.886  -4.284  20.923  0.00  0.00    +0.000 A 
ATOM     60  C   UNL     1      -4.765  -4.866  20.296  0.00  0.00    +0.000 A 
ATOM     61  C   UNL     1      -4.961  -5.792  19.259  0.00  0.00    +0.000 A 
ATOM     62  C   UNL     1      -6.245  -6.160  18.863  0.00  0.00    +0.000 A 
ATOM     63  C   UNL     1      -7.370  -5.636  19.503  0.00  0.00    +0.000 A 
ATOM     64  C   UNL     1      -7.153  -4.701  20.520  0.00  0.00    +0.000 A 
ATOM     65  N   UNL     1      -8.059  -4.028  21.299  0.00  0.00    +0.000 N 
ATOM     66  H   UNL     1      -5.291  -2.743  22.439  0.00  0.00    +0.000 HD
ATOM     67  H   UNL     1      -3.759  -4.587  20.590  0.00  0.00    +0.000 HD
ATOM     68  H   UNL     1      -4.102  -6.220  18.751  0.00  0.00    +0.000 HD
ATOM     69  H   UNL     1      -6.379  -6.866  18.046  0.00  0.00    +0.000 HD
ATOM     70  H   UNL     1      -8.372  -5.928  19.205  0.00  0.00    +0.000 HD
ATOM     71  H   UNL     1      -9.062  -4.175  21.265  0.00  0.00    +0.000 HD
ENDBRANCH  50  57
ENDBRANCH  47  49
ENDBRANCH  44  47
ENDBRANCH  41  44
ENDBRANCH  38  41
ENDBRANCH   1  38
TORSDOF 15
ENDMDL
MODEL 7
REMARK VINA RESULT:    -9.876      2.229      9.470
REMARK INTER + INTRA:         -20.847
REMARK INTER:                 -19.912
REMARK INTRA:                  -0.935
REMARK UNBOUND:                -2.600
REMARK  Name = 
REMARK  15 active torsions:
REMARK  status: ('A' for Active; 'I' for Inactive)
REMARK    1  A    between atoms: N_1  and  C_2
REMARK    2  A    between atoms: C_2  and  C_3
REMARK    3  A    between atoms: C_2  and  C_10
REMARK    4  A    between atoms: C_3  and  C_4
REMARK    5  A    between atoms: N_12  and  C_13
REMARK    6  A    between atoms: C_13  and  C_14
REMARK    7  A    between atoms: C_14  and  N_15
REMARK    8  A    between atoms: N_15  and  C_16
REMARK    9  A    between atoms: C_16  and  C_17
REMARK   10  A    between atoms: C_17  and  C_18
REMARK   11  A    between atoms: C_18  and  C_19
REMARK   12  A    between atoms: C_19  and  C_20
REMARK   13  A    between atoms: C_20  and  N_21
REMARK   14  A    between atoms: N_21  and  C_22
REMARK   15  A    between atoms: C_23  and  C_24
REMARK                            x       y       z     vdW  Elec       q    Type
REMARK                         _______ _______ _______ _____ _____    ______ ____
ROOT
ATOM      1  C   UNL     1      -5.662  -4.775  21.010  0.00  0.00    +0.000 C 
ATOM      2  H   UNL     1      -6.608  -4.441  20.571  0.00  0.00    +0.000 HD
ATOM      3  H   UNL     1      -5.889  -5.617  21.676  0.00  0.00    +0.000 HD
ENDROOT
BRANCH   1   4
ATOM      4  C   UNL     1      -5.066  -3.618  21.801  0.00  0.00    +0.000 C 
ATOM      5  H   UNL     1      -4.774  -3.959  22.800  0.00  0.00    +0.000 HD
ATOM      6  H   UNL     1      -4.166  -3.288  21.272  0.00  0.00    +0.000 HD
BRANCH   4   7
ATOM      7  N   UNL     1      -6.039  -2.533  21.901  0.00  0.00    +0.000 NA
ATOM      8  H   UNL     1      -5.815  -1.934  22.698  0.00  0.00    +0.000 HD
BRANCH   7   9
ATOM      9  C   UNL     1      -7.410  -3.034  22.054  0.00  0.00    +0.000 C 
ATOM     10  H   UNL     1      -7.353  -4.018  22.537  0.00  0.00    +0.000 HD
ATOM     11  H   UNL     1      -7.963  -2.392  22.750  0.00  0.00    +0.000 HD
BRANCH   9  12
ATOM     12  C   UNL     1      -8.183  -3.161  20.731  0.00  0.00    +0.000 C 
ATOM     13  H   UNL     1      -7.782  -2.490  19.968  0.00  0.00    +0.000 HD
ATOM     14  H   UNL     1      -8.111  -4.188  20.351  0.00  0.00    +0.000 HD
BRANCH  12  17
ATOM     15  C   UNL     1     -10.050  -1.562  20.545  0.00  0.00    +0.000 C 
ATOM     16  O   UNL     1      -9.358  -0.695  20.019  0.00  0.00    +0.000 OA
ATOM     17  N   UNL     1      -9.572  -2.809  20.869  0.00  0.00    +0.000 N 
ATOM     18  H   UNL     1     -10.233  -3.438  21.320  0.00  0.00    +0.000 HD
BRANCH  15  19
ATOM     19  C   UNL     1     -11.544  -1.380  20.882  0.00  0.00    +0.000 C 
ATOM     20  H   UNL     1     -11.998  -0.856  20.033  0.00  0.00    +0.000 HD
BRANCH  19  21
ATOM     21  N   UNL     1     -12.197  -2.718  20.994  0.00  0.00    +0.000 NA
ATOM     22  H   UNL     1     -13.187  -2.562  21.199  0.00  0.00    +0.000 HD
ATOM     23  H   UNL     1     -11.828  -3.182  21.825  0.00  0.00    +0.000 HD
ENDBRANCH  19  21
BRANCH  19  24
ATOM     24  C   UNL     1     -11.653  -0.540  22.165  0.00  0.00    +0.000 C 
ATOM     25  H   UNL     1     -12.699  -0.497  22.497  0.00  0.00    +0.000 HD
ATOM     26  H   UNL     1     -11.380   0.499  21.937  0.00  0.00    +0.000 HD
BRANCH  24  27
ATOM     27  C   UNL     1     -10.835  -1.037  23.332  0.00  0.00    +0.000 A 
ATOM     28  C   UNL     1     -11.158  -2.253  23.948  0.00  0.00    +0.000 A 
ATOM     29  C   UNL     1     -10.366  -2.757  24.981  0.00  0.00    +0.000 A 
ATOM     30  C   UNL     1      -9.245  -2.049  25.408  0.00  0.00    +0.000 A 
ATOM     31  C   UNL     1      -8.919  -0.835  24.807  0.00  0.00    +0.000 A 
ATOM     32  C   UNL     1      -9.709  -0.329  23.773  0.00  0.00    +0.000 A 
ATOM     33  H   UNL     1     -12.018  -2.831  23.614  0.00  0.00    +0.000 HD
ATOM     34  H   UNL     1     -10.616  -3.709  25.440  0.00  0.00    +0.000 HD
ATOM     35  H   UNL     1      -8.620  -2.450  26.200  0.00  0.00    +0.000 HD
ATOM     36  H   UNL     1      -8.038  -0.287  25.134  0.00  0.00    +0.000 HD
ATOM     37  H   UNL     1      -9.424   0.609  23.302  0.00  0.00    +0.000 HD
ENDBRANCH  24  27
ENDBRANCH  19  24
ENDBRANCH  15  19
ENDBRANCH  12  17
ENDBRANCH   9  12
ENDBRANCH   7   9
ENDBRANCH   4   7
ENDBRANCH   1   4
BRANCH   1  38
ATOM     38  C   UNL     1      -4.697  -5.223  19.909  0.00  0.00    +0.000 C 
ATOM     39  H   UNL     1      -4.008  -5.972  20.318  0.00  0.00    +0.000 HD
ATOM     40  H   UNL     1      -4.083  -4.373  19.584  0.00  0.00    +0.000 HD
BRANCH  38  41
ATOM     41  C   UNL     1      -5.410  -5.822  18.698  0.00  0.00    +0.000 C 
ATOM     42  H   UNL     1      -4.872  -6.720  18.371  0.00  0.00    +0.000 HD
ATOM     43  H   UNL     1      -5.359  -5.108  17.867  0.00  0.00    +0.000 HD
BRANCH  41  44
ATOM     44  C   UNL     1      -6.875  -6.163  18.985  0.00  0.00    +0.000 C 
ATOM     45  H   UNL     1      -7.309  -5.413  19.652  0.00  0.00    +0.000 HD
ATOM     46  H   UNL     1      -6.937  -7.136  19.482  0.00  0.00    +0.000 HD
BRANCH  44  47
ATOM     47  N   UNL     1      -7.635  -6.223  17.735  0.00  0.00    +0.000 N 
ATOM     48  H   UNL     1      -7.203  -6.904  17.098  0.00  0.00    +0.000 HD
BRANCH  47  49
ATOM     49  C   UNL     1      -8.994  -6.516  17.784  0.00  0.00    +0.000 C 
ATOM     50  C   UNL     1      -9.743  -7.588  17.481  0.00  0.00    +0.000 C 
ATOM     51  C   UNL     1     -11.167  -7.162  17.556  0.00  0.00    +0.000 C 
ATOM     52  O   UNL     1     -12.124  -7.817  17.182  0.00  0.00    +0.000 OA
ATOM     53  N   UNL     1     -11.199  -5.899  18.016  0.00  0.00    +0.000 N 
ATOM     54  C   UNL     1      -9.951  -5.405  18.079  0.00  0.00    +0.000 C 
ATOM     55  O   UNL     1      -9.625  -4.243  18.249  0.00  0.00    +0.000 OA
ATOM     56  H   UNL     1     -12.030  -5.333  18.048  0.00  0.00    +0.000 HD
BRANCH  50  57
ATOM     57  C   UNL     1      -9.306  -8.854  17.018  0.00  0.00    +0.000 A 
ATOM     58  C   UNL     1      -9.075  -9.451  15.795  0.00  0.00    +0.000 A 
ATOM     59  C   UNL     1      -8.781 -10.829  16.021  0.00  0.00    +0.000 A 
ATOM     60  C   UNL     1      -8.531 -11.943  15.193  0.00  0.00    +0.000 A 
ATOM     61  C   UNL     1      -8.359 -13.208  15.776  0.00  0.00    +0.000 A 
ATOM     62  C   UNL     1      -8.404 -13.369  17.159  0.00  0.00    +0.000 A 
ATOM     63  C   UNL     1      -8.600 -12.273  18.002  0.00  0.00    +0.000 A 
ATOM     64  C   UNL     1      -8.789 -11.026  17.401  0.00  0.00    +0.000 A 
ATOM     65  N   UNL     1      -9.008  -9.800  17.975  0.00  0.00    +0.000 N 
ATOM     66  H   UNL     1      -9.158  -8.968  14.829  0.00  0.00    +0.000 HD
ATOM     67  H   UNL     1      -8.496 -11.834  14.114  0.00  0.00    +0.000 HD
ATOM     68  H   UNL     1      -8.197 -14.075  15.141  0.00  0.00    +0.000 HD
ATOM     69  H   UNL     1      -8.286 -14.360  17.594  0.00  0.00    +0.000 HD
ATOM     70  H   UNL     1      -8.625 -12.393  19.080  0.00  0.00    +0.000 HD
ATOM     71  H   UNL     1      -9.008  -9.630  18.975  0.00  0.00    +0.000 HD
ENDBRANCH  50  57
ENDBRANCH  47  49
ENDBRANCH  44  47
ENDBRANCH  41  44
ENDBRANCH  38  41
ENDBRANCH   1  38
TORSDOF 15
ENDMDL
MODEL 8
REMARK VINA RESULT:    -9.606      2.319      8.833
REMARK INTER + INTRA:         -20.348
REMARK INTER:                 -17.714
REMARK INTRA:                  -2.633
REMARK UNBOUND:                -2.600
REMARK  Name = 
REMARK  15 active torsions:
REMARK  status: ('A' for Active; 'I' for Inactive)
REMARK    1  A    between atoms: N_1  and  C_2
REMARK    2  A    between atoms: C_2  and  C_3
REMARK    3  A    between atoms: C_2  and  C_10
REMARK    4  A    between atoms: C_3  and  C_4
REMARK    5  A    between atoms: N_12  and  C_13
REMARK    6  A    between atoms: C_13  and  C_14
REMARK    7  A    between atoms: C_14  and  N_15
REMARK    8  A    between atoms: N_15  and  C_16
REMARK    9  A    between atoms: C_16  and  C_17
REMARK   10  A    between atoms: C_17  and  C_18
REMARK   11  A    between atoms: C_18  and  C_19
REMARK   12  A    between atoms: C_19  and  C_20
REMARK   13  A    between atoms: C_20  and  N_21
REMARK   14  A    between atoms: N_21  and  C_22
REMARK   15  A    between atoms: C_23  and  C_24
REMARK                            x       y       z     vdW  Elec       q    Type
REMARK                         _______ _______ _______ _____ _____    ______ ____
ROOT
ATOM      1  C   UNL     1     -11.865  -2.057  16.565  0.00  0.00    +0.000 C 
ATOM      2  H   UNL     1     -12.563  -1.503  15.928  0.00  0.00    +0.000 HD
ATOM      3  H   UNL     1     -11.834  -1.548  17.536  0.00  0.00    +0.000 HD
ENDROOT
BRANCH   1   4
ATOM      4  C   UNL     1     -10.492  -2.031  15.907  0.00  0.00    +0.000 C 
ATOM      5  H   UNL     1     -10.214  -3.041  15.584  0.00  0.00    +0.000 HD
ATOM      6  H   UNL     1     -10.565  -1.394  15.020  0.00  0.00    +0.000 HD
BRANCH   4   7
ATOM      7  N   UNL     1      -9.501  -1.509  16.844  0.00  0.00    +0.000 NA
ATOM      8  H   UNL     1      -9.354  -2.174  17.605  0.00  0.00    +0.000 HD
BRANCH   7   9
ATOM      9  C   UNL     1      -9.908  -0.218  17.414  0.00  0.00    +0.000 C 
ATOM     10  H   UNL     1      -9.670   0.560  16.677  0.00  0.00    +0.000 HD
ATOM     11  H   UNL     1     -10.998  -0.193  17.532  0.00  0.00    +0.000 HD
BRANCH   9  12
ATOM     12  C   UNL     1      -9.227   0.121  18.749  0.00  0.00    +0.000 C 
ATOM     13  H   UNL     1      -8.149  -0.055  18.705  0.00  0.00    +0.000 HD
ATOM     14  H   UNL     1      -9.388   1.178  18.995  0.00  0.00    +0.000 HD
BRANCH  12  17
ATOM     15  C   UNL     1     -10.923  -0.466  20.440  0.00  0.00    +0.000 C 
ATOM     16  O   UNL     1     -11.727   0.368  20.037  0.00  0.00    +0.000 OA
ATOM     17  N   UNL     1      -9.710  -0.692  19.835  0.00  0.00    +0.000 N 
ATOM     18  H   UNL     1      -9.117  -1.396  20.271  0.00  0.00    +0.000 HD
BRANCH  15  19
ATOM     19  C   UNL     1     -11.176  -1.388  21.650  0.00  0.00    +0.000 C 
ATOM     20  H   UNL     1     -11.721  -0.793  22.392  0.00  0.00    +0.000 HD
BRANCH  19  21
ATOM     21  N   UNL     1     -12.057  -2.521  21.239  0.00  0.00    +0.000 NA
ATOM     22  H   UNL     1     -12.453  -2.929  22.089  0.00  0.00    +0.000 HD
ATOM     23  H   UNL     1     -11.466  -3.256  20.848  0.00  0.00    +0.000 HD
ENDBRANCH  19  21
BRANCH  19  24
ATOM     24  C   UNL     1      -9.817  -1.844  22.205  0.00  0.00    +0.000 C 
ATOM     25  H   UNL     1      -9.004  -1.411  21.607  0.00  0.00    +0.000 HD
ATOM     26  H   UNL     1      -9.723  -2.931  22.076  0.00  0.00    +0.000 HD
BRANCH  24  27
ATOM     27  C   UNL     1      -9.553  -1.478  23.646  0.00  0.00    +0.000 A 
ATOM     28  C   UNL     1      -9.593  -2.467  24.639  0.00  0.00    +0.000 A 
ATOM     29  C   UNL     1      -9.282  -2.153  25.962  0.00  0.00    +0.000 A 
ATOM     30  C   UNL     1      -8.929  -0.850  26.306  0.00  0.00    +0.000 A 
ATOM     31  C   UNL     1      -8.895   0.142  25.328  0.00  0.00    +0.000 A 
ATOM     32  C   UNL     1      -9.205  -0.169  24.003  0.00  0.00    +0.000 A 
ATOM     33  H   UNL     1      -9.846  -3.494  24.386  0.00  0.00    +0.000 HD
ATOM     34  H   UNL     1      -9.299  -2.930  26.722  0.00  0.00    +0.000 HD
ATOM     35  H   UNL     1      -8.671  -0.611  27.333  0.00  0.00    +0.000 HD
ATOM     36  H   UNL     1      -8.610   1.158  25.594  0.00  0.00    +0.000 HD
ATOM     37  H   UNL     1      -9.149   0.614  23.250  0.00  0.00    +0.000 HD
ENDBRANCH  24  27
ENDBRANCH  19  24
ENDBRANCH  15  19
ENDBRANCH  12  17
ENDBRANCH   9  12
ENDBRANCH   7   9
ENDBRANCH   4   7
ENDBRANCH   1   4
BRANCH   1  38
ATOM     38  C   UNL     1     -12.345  -3.499  16.745  0.00  0.00    +0.000 C 
ATOM     39  H   UNL     1     -13.399  -3.567  16.447  0.00  0.00    +0.000 HD
ATOM     40  H   UNL     1     -12.299  -3.778  17.805  0.00  0.00    +0.000 HD
BRANCH  38  41
ATOM     41  C   UNL     1     -11.538  -4.504  15.923  0.00  0.00    +0.000 C 
ATOM     42  H   UNL     1     -10.512  -4.134  15.809  0.00  0.00    +0.000 HD
ATOM     43  H   UNL     1     -11.964  -4.560  14.915  0.00  0.00    +0.000 HD
BRANCH  41  44
ATOM     44  C   UNL     1     -11.526  -5.901  16.548  0.00  0.00    +0.000 C 
ATOM     45  H   UNL     1     -10.810  -6.540  16.021  0.00  0.00    +0.000 HD
ATOM     46  H   UNL     1     -12.517  -6.356  16.456  0.00  0.00    +0.000 HD
BRANCH  44  47
ATOM     47  N   UNL     1     -11.174  -5.820  17.966  0.00  0.00    +0.000 N 
ATOM     48  H   UNL     1     -11.603  -6.603  18.476  0.00  0.00    +0.000 HD
BRANCH  47  49
ATOM     49  C   UNL     1      -9.831  -5.784  18.329  0.00  0.00    +0.000 C 
ATOM     50  C   UNL     1      -8.857  -6.700  18.447  0.00  0.00    +0.000 C 
ATOM     51  C   UNL     1      -7.700  -6.027  19.096  0.00  0.00    +0.000 C 
ATOM     52  O   UNL     1      -6.700  -6.582  19.516  0.00  0.00    +0.000 OA
ATOM     53  N   UNL     1      -7.995  -4.721  19.221  0.00  0.00    +0.000 N 
ATOM     54  C   UNL     1      -9.279  -4.510  18.886  0.00  0.00    +0.000 C 
ATOM     55  O   UNL     1      -9.936  -3.501  19.076  0.00  0.00    +0.000 OA
ATOM     56  H   UNL     1      -7.433  -4.064  19.734  0.00  0.00    +0.000 HD
BRANCH  50  57
ATOM     57  C   UNL     1      -8.928  -8.087  18.168  0.00  0.00    +0.000 A 
ATOM     58  C   UNL     1      -8.847  -9.261  18.890  0.00  0.00    +0.000 A 
ATOM     59  C   UNL     1      -8.848 -10.351  17.968  0.00  0.00    +0.000 A 
ATOM     60  C   UNL     1      -8.722 -11.751  18.081  0.00  0.00    +0.000 A 
ATOM     61  C   UNL     1      -8.681 -12.533  16.916  0.00  0.00    +0.000 A 
ATOM     62  C   UNL     1      -8.791 -11.947  15.657  0.00  0.00    +0.000 A 
ATOM     63  C   UNL     1      -8.967 -10.568  15.522  0.00  0.00    +0.000 A 
ATOM     64  C   UNL     1      -8.985  -9.805  16.693  0.00  0.00    +0.000 A 
ATOM     65  N   UNL     1      -9.132  -8.451  16.855  0.00  0.00    +0.000 N 
ATOM     66  H   UNL     1      -8.744  -9.338  19.965  0.00  0.00    +0.000 HD
ATOM     67  H   UNL     1      -8.632 -12.222  19.054  0.00  0.00    +0.000 HD
ATOM     68  H   UNL     1      -8.553 -13.609  16.995  0.00  0.00    +0.000 HD
ATOM     69  H   UNL     1      -8.740 -12.566  14.764  0.00  0.00    +0.000 HD
ATOM     70  H   UNL     1      -9.064 -10.109  14.544  0.00  0.00    +0.000 HD
ATOM     71  H   UNL     1      -9.307  -7.802  16.096  0.00  0.00    +0.000 HD
ENDBRANCH  50  57
ENDBRANCH  47  49
ENDBRANCH  44  47
ENDBRANCH  41  44
ENDBRANCH  38  41
ENDBRANCH   1  38
TORSDOF 15
ENDMDL
MODEL 9
REMARK VINA RESULT:    -9.388      2.367      5.292
REMARK INTER + INTRA:         -19.945
REMARK INTER:                 -18.021
REMARK INTRA:                  -1.925
REMARK UNBOUND:                -2.600
REMARK  Name = 
REMARK  15 active torsions:
REMARK  status: ('A' for Active; 'I' for Inactive)
REMARK    1  A    between atoms: N_1  and  C_2
REMARK    2  A    between atoms: C_2  and  C_3
REMARK    3  A    between atoms: C_2  and  C_10
REMARK    4  A    between atoms: C_3  and  C_4
REMARK    5  A    between atoms: N_12  and  C_13
REMARK    6  A    between atoms: C_13  and  C_14
REMARK    7  A    between atoms: C_14  and  N_15
REMARK    8  A    between atoms: N_15  and  C_16
REMARK    9  A    between atoms: C_16  and  C_17
REMARK   10  A    between atoms: C_17  and  C_18
REMARK   11  A    between atoms: C_18  and  C_19
REMARK   12  A    between atoms: C_19  and  C_20
REMARK   13  A    between atoms: C_20  and  N_21
REMARK   14  A    between atoms: N_21  and  C_22
REMARK   15  A    between atoms: C_23  and  C_24
REMARK                            x       y       z     vdW  Elec       q    Type
REMARK                         _______ _______ _______ _____ _____    ______ ____
ROOT
ATOM      1  C   UNL     1      -5.724  -3.623  21.529  0.00  0.00    +0.000 C 
ATOM      2  H   UNL     1      -5.315  -2.870  20.846  0.00  0.00    +0.000 HD
ATOM      3  H   UNL     1      -4.875  -4.113  22.021  0.00  0.00    +0.000 HD
ENDROOT
BRANCH   1   4
ATOM      4  C   UNL     1      -6.518  -4.631  20.709  0.00  0.00    +0.000 C 
ATOM      5  H   UNL     1      -6.937  -5.400  21.368  0.00  0.00    +0.000 HD
ATOM      6  H   UNL     1      -7.347  -4.092  20.239  0.00  0.00    +0.000 HD
BRANCH   4   7
ATOM      7  N   UNL     1      -5.656  -5.243  19.703  0.00  0.00    +0.000 NA
ATOM      8  H   UNL     1      -5.071  -4.531  19.262  0.00  0.00    +0.000 HD
BRANCH   7   9
ATOM      9  C   UNL     1      -6.428  -5.934  18.662  0.00  0.00    +0.000 C 
ATOM     10  H   UNL     1      -6.220  -5.434  17.706  0.00  0.00    +0.000 HD
ATOM     11  H   UNL     1      -6.059  -6.960  18.548  0.00  0.00    +0.000 HD
BRANCH   9  12
ATOM     12  C   UNL     1      -7.945  -5.946  18.909  0.00  0.00    +0.000 C 
ATOM     13  H   UNL     1      -8.175  -6.033  19.974  0.00  0.00    +0.000 HD
ATOM     14  H   UNL     1      -8.393  -5.015  18.540  0.00  0.00    +0.000 HD
BRANCH  12  17
ATOM     15  C   UNL     1      -9.422  -6.913  17.188  0.00  0.00    +0.000 C 
ATOM     16  O   UNL     1      -9.581  -5.842  16.611  0.00  0.00    +0.000 OA
ATOM     17  N   UNL     1      -8.596  -7.063  18.277  0.00  0.00    +0.000 N 
ATOM     18  H   UNL     1      -8.559  -7.995  18.685  0.00  0.00    +0.000 HD
BRANCH  15  19
ATOM     19  C   UNL     1     -10.095  -8.231  16.753  0.00  0.00    +0.000 C 
ATOM     20  H   UNL     1     -10.286  -8.804  17.668  0.00  0.00    +0.000 HD
BRANCH  19  21
ATOM     21  N   UNL     1     -11.413  -7.932  16.119  0.00  0.00    +0.000 NA
ATOM     22  H   UNL     1     -12.011  -7.509  16.833  0.00  0.00    +0.000 HD
ATOM     23  H   UNL     1     -11.864  -8.820  15.893  0.00  0.00    +0.000 HD
ENDBRANCH  19  21
BRANCH  19  24
ATOM     24  C   UNL     1      -9.129  -8.986  15.826  0.00  0.00    +0.000 C 
ATOM     25  H   UNL     1      -8.134  -8.524  15.866  0.00  0.00    +0.000 HD
ATOM     26  H   UNL     1      -9.463  -8.865  14.786  0.00  0.00    +0.000 HD
BRANCH  24  27
ATOM     27  C   UNL     1      -8.953 -10.453  16.136  0.00  0.00    +0.000 A 
ATOM     28  C   UNL     1      -8.677 -11.360  15.104  0.00  0.00    +0.000 A 
ATOM     29  C   UNL     1      -8.442 -12.706  15.388  0.00  0.00    +0.000 A 
ATOM     30  C   UNL     1      -8.481 -13.157  16.706  0.00  0.00    +0.000 A 
ATOM     31  C   UNL     1      -8.762 -12.265  17.739  0.00  0.00    +0.000 A 
ATOM     32  C   UNL     1      -8.997 -10.918  17.457  0.00  0.00    +0.000 A 
ATOM     33  H   UNL     1      -8.621 -11.022  14.071  0.00  0.00    +0.000 HD
ATOM     34  H   UNL     1      -8.212 -13.397  14.582  0.00  0.00    +0.000 HD
ATOM     35  H   UNL     1      -8.281 -14.202  16.927  0.00  0.00    +0.000 HD
ATOM     36  H   UNL     1      -8.783 -12.616  18.768  0.00  0.00    +0.000 HD
ATOM     37  H   UNL     1      -9.192 -10.234  18.280  0.00  0.00    +0.000 HD
ENDBRANCH  24  27
ENDBRANCH  19  24
ENDBRANCH  15  19
ENDBRANCH  12  17
ENDBRANCH   9  12
ENDBRANCH   7   9
ENDBRANCH   4   7
ENDBRANCH   1   4
BRANCH   1  38
ATOM     38  C   UNL     1      -6.623  -2.956  22.574  0.00  0.00    +0.000 C 
ATOM     39  H   UNL     1      -6.893  -1.951  22.226  0.00  0.00    +0.000 HD
ATOM     40  H   UNL     1      -6.070  -2.827  23.512  0.00  0.00    +0.000 HD
BRANCH  38  41
ATOM     41  C   UNL     1      -7.904  -3.741  22.847  0.00  0.00    +0.000 C 
ATOM     42  H   UNL     1      -7.827  -4.732  22.381  0.00  0.00    +0.000 HD
ATOM     43  H   UNL     1      -8.743  -3.232  22.359  0.00  0.00    +0.000 HD
BRANCH  41  44
ATOM     44  C   UNL     1      -8.199  -3.887  24.342  0.00  0.00    +0.000 C 
ATOM     45  H   UNL     1      -7.374  -3.469  24.928  0.00  0.00    +0.000 HD
ATOM     46  H   UNL     1      -8.295  -4.946  24.599  0.00  0.00    +0.000 HD
BRANCH  44  47
ATOM     47  N   UNL     1      -9.449  -3.204  24.681  0.00  0.00    +0.000 N 
ATOM     48  H   UNL     1      -9.799  -3.549  25.584  0.00  0.00    +0.000 HD
BRANCH  47  49
ATOM     49  C   UNL     1      -9.467  -1.815  24.741  0.00  0.00    +0.000 C 
ATOM     50  C   UNL     1      -9.685  -0.832  23.853  0.00  0.00    +0.000 C 
ATOM     51  C   UNL     1      -9.333   0.449  24.524  0.00  0.00    +0.000 C 
ATOM     52  O   UNL     1      -9.243   1.535  23.977  0.00  0.00    +0.000 OA
ATOM     53  N   UNL     1      -9.041   0.179  25.808  0.00  0.00    +0.000 N 
ATOM     54  C   UNL     1      -8.994  -1.151  25.995  0.00  0.00    +0.000 C 
ATOM     55  O   UNL     1      -8.561  -1.745  26.966  0.00  0.00    +0.000 OA
ATOM     56  H   UNL     1      -8.656   0.850  26.450  0.00  0.00    +0.000 HD
BRANCH  50  57
ATOM     57  C   UNL     1     -10.031  -0.954  22.485  0.00  0.00    +0.000 A 
ATOM     58  C   UNL     1     -10.875  -1.743  21.729  0.00  0.00    +0.000 A 
ATOM     59  C   UNL     1     -10.639  -1.454  20.351  0.00  0.00    +0.000 A 
ATOM     60  C   UNL     1     -11.124  -1.965  19.130  0.00  0.00    +0.000 A 
ATOM     61  C   UNL     1     -10.590  -1.484  17.924  0.00  0.00    +0.000 A 
ATOM     62  C   UNL     1      -9.610  -0.494  17.920  0.00  0.00    +0.000 A 
ATOM     63  C   UNL     1      -9.151   0.062  19.115  0.00  0.00    +0.000 A 
ATOM     64  C   UNL     1      -9.681  -0.443  20.306  0.00  0.00    +0.000 A 
ATOM     65  N   UNL     1      -9.410  -0.095  21.604  0.00  0.00    +0.000 N 
ATOM     66  H   UNL     1     -11.557  -2.490  22.115  0.00  0.00    +0.000 HD
ATOM     67  H   UNL     1     -11.885  -2.739  19.116  0.00  0.00    +0.000 HD
ATOM     68  H   UNL     1     -10.938  -1.897  16.980  0.00  0.00    +0.000 HD
ATOM     69  H   UNL     1      -9.195  -0.146  16.977  0.00  0.00    +0.000 HD
ATOM     70  H   UNL     1      -8.395   0.842  19.117  0.00  0.00    +0.000 HD
ATOM     71  H   UNL     1      -8.787   0.658  21.874  0.00  0.00    +0.000 HD
ENDBRANCH  50  57
ENDBRANCH  47  49
ENDBRANCH  44  47
ENDBRANCH  41  44
ENDBRANCH  38  41
ENDBRANCH   1  38
TORSDOF 15
ENDMDL
