MODEL 1
REMARK VINA RESULT:   -11.963      0.000      0.000
REMARK INTER + INTRA:         -13.987
REMARK INTER:                 -13.712
REMARK INTRA:                  -0.275
REMARK UNBOUND:                -0.275
REMARK  Name = 
REMARK  3 active torsions:
REMARK  status: ('A' for Active; 'I' for Inactive)
REMARK    1  A    between atoms: C_1  and  N_2
REMARK    2  A    between atoms: C_4  and  C_5
REMARK    3  A    between atoms: C_6  and  C_7
REMARK                            x       y       z     vdW  Elec       q    Type
REMARK                         _______ _______ _______ _____ _____    ______ ____
ROOT
ATOM      1  C   UNL     1      -9.153  -5.880  18.767  0.00  0.00    +0.000 C 
ATOM      2  C   UNL     1      -9.718  -7.084  18.593  0.00  0.00    +0.000 C 
ATOM      3  C   UNL     1     -10.982  -6.878  17.854  0.00  0.00    +0.000 C 
ATOM      4  O   UNL     1     -11.767  -7.737  17.495  0.00  0.00    +0.000 OA
ATOM      5  N   UNL     1     -11.105  -5.553  17.638  0.00  0.00    +0.000 N 
ATOM      6  C   UNL     1     -10.057  -4.880  18.159  0.00  0.00    +0.000 C 
ATOM      7  O   UNL     1      -9.906  -3.673  18.137  0.00  0.00    +0.000 OA
ATOM      8  H   UNL     1     -11.879  -5.123  17.160  0.00  0.00    +0.000 HD
ENDROOT
BRANCH   2   9
ATOM      9  C   UNL     1      -9.264  -8.357  19.013  0.00  0.00    +0.000 A 
ATOM     10  C   UNL     1      -8.888  -8.668  20.301  0.00  0.00    +0.000 A 
ATOM     11  N   UNL     1      -8.511  -9.986  20.313  0.00  0.00    +0.000 N 
ATOM     12  C   UNL     1      -8.614 -10.526  19.050  0.00  0.00    +0.000 A 
ATOM     13  C   UNL     1      -8.315 -11.816  18.594  0.00  0.00    +0.000 A 
ATOM     14  C   UNL     1      -8.496 -12.079  17.233  0.00  0.00    +0.000 A 
ATOM     15  C   UNL     1      -8.969 -11.096  16.367  0.00  0.00    +0.000 A 
ATOM     16  C   UNL     1      -9.277  -9.816  16.842  0.00  0.00    +0.000 A 
ATOM     17  C   UNL     1      -9.089  -9.519  18.208  0.00  0.00    +0.000 A 
ATOM     18  H   UNL     1      -8.848  -8.076  21.205  0.00  0.00    +0.000 HD
ATOM     19  H   UNL     1      -8.184 -10.490  21.126  0.00  0.00    +0.000 HD
ATOM     20  H   UNL     1      -7.946 -12.584  19.264  0.00  0.00    +0.000 HD
ATOM     21  H   UNL     1      -8.256 -13.066  16.844  0.00  0.00    +0.000 HD
ATOM     22  H   UNL     1      -9.094 -11.321  15.310  0.00  0.00    +0.000 HD
ATOM     23  H   UNL     1      -9.641  -9.057  16.156  0.00  0.00    +0.000 HD
ENDBRANCH   2   9
BRANCH   1  26
ATOM     24  N   UNL     1      -5.779  -5.549  19.936  0.00  0.00    +0.000 N 
ATOM     25  C   UNL     1      -6.715  -6.125  19.116  0.00  0.00    +0.000 A 
ATOM     26  C   UNL     1      -7.931  -5.545  19.402  0.00  0.00    +0.000 A 
ATOM     27  C   UNL     1      -7.729  -4.579  20.431  0.00  0.00    +0.000 A 
ATOM     28  C   UNL     1      -8.569  -3.679  21.120  0.00  0.00    +0.000 A 
ATOM     29  C   UNL     1      -8.032  -2.856  22.117  0.00  0.00    +0.000 A 
ATOM     30  C   UNL     1      -6.679  -2.919  22.435  0.00  0.00    +0.000 A 
ATOM     31  C   UNL     1      -5.824  -3.796  21.762  0.00  0.00    +0.000 A 
ATOM     32  C   UNL     1      -6.370  -4.613  20.760  0.00  0.00    +0.000 A 
ATOM     33  H   UNL     1      -6.441  -6.894  18.406  0.00  0.00    +0.000 HD
ATOM     34  H   UNL     1      -9.627  -3.622  20.886  0.00  0.00    +0.000 HD
ATOM     35  H   UNL     1      -8.680  -2.165  22.650  0.00  0.00    +0.000 HD
ATOM     36  H   UNL     1      -6.279  -2.280  23.219  0.00  0.00    +0.000 HD
ATOM     37  H   UNL     1      -4.770  -3.841  22.020  0.00  0.00    +0.000 HD
BRANCH  24  38
ATOM     38  C   UNL     1      -4.369  -5.872  19.932  0.00  0.00    +0.000 C 
ATOM     39  H   UNL     1      -3.943  -5.674  20.919  0.00  0.00    +0.000 HD
ATOM     40  H   UNL     1      -3.874  -5.248  19.182  0.00  0.00    +0.000 HD
ATOM     41  H   UNL     1      -4.260  -6.931  19.687  0.00  0.00    +0.000 HD
ENDBRANCH  24  38
ENDBRANCH   1  26
TORSDOF 3
ENDMDL
MODEL 2
REMARK VINA RESULT:   -11.137      1.061      6.372
REMARK INTER + INTRA:         -13.040
REMARK INTER:                 -12.359
REMARK INTRA:                  -0.681
REMARK UNBOUND:                -0.275
REMARK  Name = 
REMARK  3 active torsions:
REMARK  status: ('A' for Active; 'I' for Inactive)
REMARK    1  A    between atoms: C_1  and  N_2
REMARK    2  A    between atoms: C_4  and  C_5
REMARK    3  A    between atoms: C_6  and  C_7
REMARK                            x       y       z     vdW  Elec       q    Type
REMARK                         _______ _______ _______ _____ _____    ______ ____
ROOT
ATOM      1  C   UNL     1      -9.770  -7.054  18.160  0.00  0.00    +0.000 C 
ATOM      2  C   UNL     1      -9.052  -5.949  18.409  0.00  0.00    +0.000 C 
ATOM      3  C   UNL     1      -9.991  -4.807  18.433  0.00  0.00    +0.000 C 
ATOM      4  O   UNL     1      -9.717  -3.640  18.644  0.00  0.00    +0.000 OA
ATOM      5  N   UNL     1     -11.222  -5.299  18.185  0.00  0.00    +0.000 N 
ATOM      6  C   UNL     1     -11.179  -6.635  18.002  0.00  0.00    +0.000 C 
ATOM      7  O   UNL     1     -12.130  -7.348  17.741  0.00  0.00    +0.000 OA
ATOM      8  H   UNL     1     -12.059  -4.742  18.135  0.00  0.00    +0.000 HD
ENDROOT
BRANCH   2   9
ATOM      9  C   UNL     1      -7.658  -5.811  18.610  0.00  0.00    +0.000 A 
ATOM     10  C   UNL     1      -6.691  -6.328  17.776  0.00  0.00    +0.000 A 
ATOM     11  N   UNL     1      -5.471  -5.990  18.301  0.00  0.00    +0.000 N 
ATOM     12  C   UNL     1      -5.632  -5.284  19.473  0.00  0.00    +0.000 A 
ATOM     13  C   UNL     1      -4.673  -4.764  20.351  0.00  0.00    +0.000 A 
ATOM     14  C   UNL     1      -5.133  -4.103  21.494  0.00  0.00    +0.000 A 
ATOM     15  C   UNL     1      -6.496  -3.957  21.741  0.00  0.00    +0.000 A 
ATOM     16  C   UNL     1      -7.441  -4.470  20.845  0.00  0.00    +0.000 A 
ATOM     17  C   UNL     1      -7.005  -5.154  19.692  0.00  0.00    +0.000 A 
ATOM     18  H   UNL     1      -6.758  -6.908  16.866  0.00  0.00    +0.000 HD
ATOM     19  H   UNL     1      -4.577  -6.238  17.901  0.00  0.00    +0.000 HD
ATOM     20  H   UNL     1      -3.610  -4.876  20.163  0.00  0.00    +0.000 HD
ATOM     21  H   UNL     1      -4.413  -3.703  22.205  0.00  0.00    +0.000 HD
ATOM     22  H   UNL     1      -6.830  -3.446  22.641  0.00  0.00    +0.000 HD
ATOM     23  H   UNL     1      -8.501  -4.352  21.051  0.00  0.00    +0.000 HD
ENDBRANCH   2   9
BRANCH   1  26
ATOM     24  N   UNL     1      -8.533 -10.391  18.602  0.00  0.00    +0.000 N 
ATOM     25  C   UNL     1      -8.854  -9.154  19.097  0.00  0.00    +0.000 A 
ATOM     26  C   UNL     1      -9.337  -8.399  18.051  0.00  0.00    +0.000 A 
ATOM     27  C   UNL     1      -9.314  -9.207  16.876  0.00  0.00    +0.000 A 
ATOM     28  C   UNL     1      -9.685  -9.004  15.530  0.00  0.00    +0.000 A 
ATOM     29  C   UNL     1      -9.509 -10.036  14.601  0.00  0.00    +0.000 A 
ATOM     30  C   UNL     1      -8.970 -11.258  14.992  0.00  0.00    +0.000 A 
ATOM     31  C   UNL     1      -8.603 -11.487  16.320  0.00  0.00    +0.000 A 
ATOM     32  C   UNL     1      -8.788 -10.449  17.247  0.00  0.00    +0.000 A 
ATOM     33  H   UNL     1      -8.710  -8.915  20.143  0.00  0.00    +0.000 HD
ATOM     34  H   UNL     1     -10.102  -8.054  15.210  0.00  0.00    +0.000 HD
ATOM     35  H   UNL     1      -9.791  -9.878  13.563  0.00  0.00    +0.000 HD
ATOM     36  H   UNL     1      -8.832 -12.045  14.255  0.00  0.00    +0.000 HD
ATOM     37  H   UNL     1      -8.181 -12.443  16.615  0.00  0.00    +0.000 HD
BRANCH  24  38
ATOM     38  C   UNL     1      -8.008 -11.485  19.390  0.00  0.00    +0.000 C 
ATOM     39  H   UNL     1      -6.943 -11.611  19.181  0.00  0.00    +0.000 HD
ATOM     40  H   UNL     1      -8.549 -12.396  19.120  0.00  0.00    +0.000 HD
ATOM     41  H   UNL     1      -8.154 -11.247  20.446  0.00  0.00    +0.000 HD
ENDBRANCH  24  38
ENDBRANCH   1  26
TORSDOF 3
ENDMDL
MODEL 3
REMARK VINA RESULT:   -10.627      0.935      2.118
REMARK INTER + INTRA:         -12.455
REMARK INTER:                 -12.354
REMARK INTRA:                  -0.101
REMARK UNBOUND:                -0.275
REMARK  Name = 
REMARK  3 active torsions:
REMARK  status: ('A' for Active; 'I' for Inactive)
REMARK    1  A    between atoms: C_1  and  N_2
REMARK    2  A    between atoms: C_4  and  C_5
REMARK    3  A    between atoms: C_6  and  C_7
REMARK                            x       y       z     vdW  Elec       q    Type
REMARK                         _______ _______ _______ _____ _____    ______ ____
ROOT
ATOM      1  C   UNL     1      -9.454  -5.270  18.532  0.00  0.00    +0.000 C 
ATOM      2  C   UNL     1      -9.832  -6.523  18.241  0.00  0.00    +0.000 C 
ATOM      3  C   UNL     1     -10.825  -6.444  17.148  0.00  0.00    +0.000 C 
ATOM      4  O   UNL     1     -11.386  -7.377  16.602  0.00  0.00    +0.000 OA
ATOM      5  N   UNL     1     -10.992  -5.138  16.855  0.00  0.00    +0.000 N 
ATOM      6  C   UNL     1     -10.214  -4.365  17.642  0.00  0.00    +0.000 C 
ATOM      7  O   UNL     1     -10.169  -3.149  17.621  0.00  0.00    +0.000 OA
ATOM      8  H   UNL     1     -11.618  -4.788  16.150  0.00  0.00    +0.000 HD
ENDROOT
BRANCH   2   9
ATOM      9  C   UNL     1      -9.418  -7.743  18.827  0.00  0.00    +0.000 A 
ATOM     10  C   UNL     1      -9.157  -7.919  20.167  0.00  0.00    +0.000 A 
ATOM     11  N   UNL     1      -8.785  -9.226  20.346  0.00  0.00    +0.000 N 
ATOM     12  C   UNL     1      -8.777  -9.892  19.140  0.00  0.00    +0.000 A 
ATOM     13  C   UNL     1      -8.441 -11.219  18.845  0.00  0.00    +0.000 A 
ATOM     14  C   UNL     1      -8.502 -11.620  17.507  0.00  0.00    +0.000 A 
ATOM     15  C   UNL     1      -8.896 -10.733  16.508  0.00  0.00    +0.000 A 
ATOM     16  C   UNL     1      -9.243  -9.414  16.822  0.00  0.00    +0.000 A 
ATOM     17  C   UNL     1      -9.175  -8.979  18.161  0.00  0.00    +0.000 A 
ATOM     18  H   UNL     1      -9.196  -7.238  21.006  0.00  0.00    +0.000 HD
ATOM     19  H   UNL     1      -8.530  -9.643  21.231  0.00  0.00    +0.000 HD
ATOM     20  H   UNL     1      -8.133 -11.913  19.620  0.00  0.00    +0.000 HD
ATOM     21  H   UNL     1      -8.230 -12.640  17.243  0.00  0.00    +0.000 HD
ATOM     22  H   UNL     1      -8.928 -11.065  15.473  0.00  0.00    +0.000 HD
ATOM     23  H   UNL     1      -9.545  -8.732  16.033  0.00  0.00    +0.000 HD
ENDBRANCH   2   9
BRANCH   1  26
ATOM     24  N   UNL     1      -7.657  -3.754  21.240  0.00  0.00    +0.000 N 
ATOM     25  C   UNL     1      -8.815  -3.972  20.540  0.00  0.00    +0.000 A 
ATOM     26  C   UNL     1      -8.517  -4.815  19.492  0.00  0.00    +0.000 A 
ATOM     27  C   UNL     1      -7.127  -5.126  19.558  0.00  0.00    +0.000 A 
ATOM     28  C   UNL     1      -6.256  -5.926  18.789  0.00  0.00    +0.000 A 
ATOM     29  C   UNL     1      -4.900  -5.999  19.131  0.00  0.00    +0.000 A 
ATOM     30  C   UNL     1      -4.405  -5.289  20.220  0.00  0.00    +0.000 A 
ATOM     31  C   UNL     1      -5.247  -4.496  21.002  0.00  0.00    +0.000 A 
ATOM     32  C   UNL     1      -6.606  -4.433  20.656  0.00  0.00    +0.000 A 
ATOM     33  H   UNL     1      -9.747  -3.510  20.841  0.00  0.00    +0.000 HD
ATOM     34  H   UNL     1      -6.628  -6.482  17.934  0.00  0.00    +0.000 HD
ATOM     35  H   UNL     1      -4.229  -6.613  18.536  0.00  0.00    +0.000 HD
ATOM     36  H   UNL     1      -3.347  -5.350  20.465  0.00  0.00    +0.000 HD
ATOM     37  H   UNL     1      -4.851  -3.942  21.848  0.00  0.00    +0.000 HD
BRANCH  24  38
ATOM     38  C   UNL     1      -7.552  -2.936  22.428  0.00  0.00    +0.000 C 
ATOM     39  H   UNL     1      -6.736  -2.218  22.309  0.00  0.00    +0.000 HD
ATOM     40  H   UNL     1      -7.350  -3.589  23.281  0.00  0.00    +0.000 HD
ATOM     41  H   UNL     1      -8.497  -2.404  22.563  0.00  0.00    +0.000 HD
ENDBRANCH  24  38
ENDBRANCH   1  26
TORSDOF 3
ENDMDL
MODEL 4
REMARK VINA RESULT:   -10.539      1.188      5.871
REMARK INTER + INTRA:         -12.355
REMARK INTER:                 -12.376
REMARK INTRA:                   0.021
REMARK UNBOUND:                -0.275
REMARK  Name = 
REMARK  3 active torsions:
REMARK  status: ('A' for Active; 'I' for Inactive)
REMARK    1  A    between atoms: C_1  and  N_2
REMARK    2  A    between atoms: C_4  and  C_5
REMARK    3  A    between atoms: C_6  and  C_7
REMARK                            x       y       z     vdW  Elec       q    Type
REMARK                         _______ _______ _______ _____ _____    ______ ____
ROOT
ATOM      1  C   UNL     1      -9.871  -6.703  17.907  0.00  0.00    +0.000 C 
ATOM      2  C   UNL     1      -9.547  -5.434  18.196  0.00  0.00    +0.000 C 
ATOM      3  C   UNL     1     -10.259  -4.565  17.235  0.00  0.00    +0.000 C 
ATOM      4  O   UNL     1     -10.230  -3.349  17.188  0.00  0.00    +0.000 OA
ATOM      5  N   UNL     1     -10.963  -5.372  16.414  0.00  0.00    +0.000 N 
ATOM      6  C   UNL     1     -10.781  -6.669  16.742  0.00  0.00    +0.000 C 
ATOM      7  O   UNL     1     -11.271  -7.622  16.166  0.00  0.00    +0.000 OA
ATOM      8  H   UNL     1     -11.539  -5.050  15.655  0.00  0.00    +0.000 HD
ENDROOT
BRANCH   2   9
ATOM      9  C   UNL     1      -8.688  -4.936  19.203  0.00  0.00    +0.000 A 
ATOM     10  C   UNL     1      -9.074  -4.079  20.210  0.00  0.00    +0.000 A 
ATOM     11  N   UNL     1      -7.970  -3.825  20.981  0.00  0.00    +0.000 N 
ATOM     12  C   UNL     1      -6.870  -4.484  20.477  0.00  0.00    +0.000 A 
ATOM     13  C   UNL     1      -5.543  -4.495  20.923  0.00  0.00    +0.000 A 
ATOM     14  C   UNL     1      -4.620  -5.246  20.189  0.00  0.00    +0.000 A 
ATOM     15  C   UNL     1      -5.013  -5.968  19.065  0.00  0.00    +0.000 A 
ATOM     16  C   UNL     1      -6.346  -5.959  18.641  0.00  0.00    +0.000 A 
ATOM     17  C   UNL     1      -7.295  -5.196  19.354  0.00  0.00    +0.000 A 
ATOM     18  H   UNL     1     -10.026  -3.622  20.444  0.00  0.00    +0.000 HD
ATOM     19  H   UNL     1      -7.953  -3.224  21.794  0.00  0.00    +0.000 HD
ATOM     20  H   UNL     1      -5.233  -3.934  21.798  0.00  0.00    +0.000 HD
ATOM     21  H   UNL     1      -3.578  -5.261  20.499  0.00  0.00    +0.000 HD
ATOM     22  H   UNL     1      -4.276  -6.539  18.505  0.00  0.00    +0.000 HD
ATOM     23  H   UNL     1      -6.639  -6.523  17.761  0.00  0.00    +0.000 HD
ENDBRANCH   2   9
BRANCH   1  26
ATOM     24  N   UNL     1      -8.858  -9.330  20.128  0.00  0.00    +0.000 N 
ATOM     25  C   UNL     1      -9.252  -8.038  19.897  0.00  0.00    +0.000 A 
ATOM     26  C   UNL     1      -9.461  -7.902  18.543  0.00  0.00    +0.000 A 
ATOM     27  C   UNL     1      -9.189  -9.158  17.926  0.00  0.00    +0.000 A 
ATOM     28  C   UNL     1      -9.233  -9.637  16.600  0.00  0.00    +0.000 A 
ATOM     29  C   UNL     1      -8.875 -10.964  16.331  0.00  0.00    +0.000 A 
ATOM     30  C   UNL     1      -8.474 -11.812  17.359  0.00  0.00    +0.000 A 
ATOM     31  C   UNL     1      -8.429 -11.364  18.681  0.00  0.00    +0.000 A 
ATOM     32  C   UNL     1      -8.796 -10.034  18.943  0.00  0.00    +0.000 A 
ATOM     33  H   UNL     1      -9.347  -7.327  20.709  0.00  0.00    +0.000 HD
ATOM     34  H   UNL     1      -9.539  -8.986  15.787  0.00  0.00    +0.000 HD
ATOM     35  H   UNL     1      -8.906 -11.332  15.309  0.00  0.00    +0.000 HD
ATOM     36  H   UNL     1      -8.189 -12.836  17.131  0.00  0.00    +0.000 HD
ATOM     37  H   UNL     1      -8.111 -12.032  19.477  0.00  0.00    +0.000 HD
BRANCH  24  38
ATOM     38  C   UNL     1      -8.559  -9.882  21.432  0.00  0.00    +0.000 C 
ATOM     39  H   UNL     1      -7.549  -9.591  21.731  0.00  0.00    +0.000 HD
ATOM     40  H   UNL     1      -8.629 -10.971  21.371  0.00  0.00    +0.000 HD
ATOM     41  H   UNL     1      -9.285  -9.487  22.146  0.00  0.00    +0.000 HD
ENDBRANCH  24  38
ENDBRANCH   1  26
TORSDOF 3
ENDMDL
MODEL 5
REMARK VINA RESULT:    -9.473      2.165      4.886
REMARK INTER + INTRA:         -11.132
REMARK INTER:                 -10.119
REMARK INTRA:                  -1.013
REMARK UNBOUND:                -0.275
REMARK  Name = 
REMARK  3 active torsions:
REMARK  status: ('A' for Active; 'I' for Inactive)
REMARK    1  A    between atoms: C_1  and  N_2
REMARK    2  A    between atoms: C_4  and  C_5
REMARK    3  A    between atoms: C_6  and  C_7
REMARK                            x       y       z     vdW  Elec       q    Type
REMARK                         _______ _______ _______ _____ _____    ______ ____
ROOT
ATOM      1  C   UNL     1      -8.666  -7.395  18.848  0.00  0.00    +0.000 C 
ATOM      2  C   UNL     1      -9.213  -7.566  17.636  0.00  0.00    +0.000 C 
ATOM      3  C   UNL     1      -9.582  -8.993  17.513  0.00  0.00    +0.000 C 
ATOM      4  O   UNL     1     -10.118  -9.530  16.562  0.00  0.00    +0.000 OA
ATOM      5  N   UNL     1      -9.220  -9.598  18.663  0.00  0.00    +0.000 N 
ATOM      6  C   UNL     1      -8.657  -8.715  19.515  0.00  0.00    +0.000 C 
ATOM      7  O   UNL     1      -8.215  -8.976  20.619  0.00  0.00    +0.000 OA
ATOM      8  H   UNL     1      -9.346 -10.577  18.856  0.00  0.00    +0.000 HD
ENDROOT
BRANCH   2   9
ATOM      9  C   UNL     1      -9.424  -6.619  16.606  0.00  0.00    +0.000 A 
ATOM     10  C   UNL     1      -8.726  -6.582  15.420  0.00  0.00    +0.000 A 
ATOM     11  N   UNL     1      -9.212  -5.530  14.688  0.00  0.00    +0.000 N 
ATOM     12  C   UNL     1     -10.197  -4.871  15.390  0.00  0.00    +0.000 A 
ATOM     13  C   UNL     1     -10.947  -3.740  15.046  0.00  0.00    +0.000 A 
ATOM     14  C   UNL     1     -11.875  -3.270  15.980  0.00  0.00    +0.000 A 
ATOM     15  C   UNL     1     -12.055  -3.914  17.202  0.00  0.00    +0.000 A 
ATOM     16  C   UNL     1     -11.308  -5.053  17.524  0.00  0.00    +0.000 A 
ATOM     17  C   UNL     1     -10.354  -5.539  16.607  0.00  0.00    +0.000 A 
ATOM     18  H   UNL     1      -7.927  -7.199  15.033  0.00  0.00    +0.000 HD
ATOM     19  H   UNL     1      -8.885  -5.258  13.771  0.00  0.00    +0.000 HD
ATOM     20  H   UNL     1     -10.809  -3.234  14.097  0.00  0.00    +0.000 HD
ATOM     21  H   UNL     1     -12.461  -2.383  15.751  0.00  0.00    +0.000 HD
ATOM     22  H   UNL     1     -12.778  -3.526  17.916  0.00  0.00    +0.000 HD
ATOM     23  H   UNL     1     -11.456  -5.544  18.481  0.00  0.00    +0.000 HD
ENDBRANCH   2   9
BRANCH   1  26
ATOM     24  N   UNL     1      -8.104  -4.202  20.379  0.00  0.00    +0.000 N 
ATOM     25  C   UNL     1      -8.942  -5.154  19.861  0.00  0.00    +0.000 A 
ATOM     26  C   UNL     1      -8.165  -6.213  19.449  0.00  0.00    +0.000 A 
ATOM     27  C   UNL     1      -6.803  -5.897  19.730  0.00  0.00    +0.000 A 
ATOM     28  C   UNL     1      -5.576  -6.569  19.551  0.00  0.00    +0.000 A 
ATOM     29  C   UNL     1      -4.382  -5.945  19.934  0.00  0.00    +0.000 A 
ATOM     30  C   UNL     1      -4.396  -4.668  20.486  0.00  0.00    +0.000 A 
ATOM     31  C   UNL     1      -5.599  -3.984  20.680  0.00  0.00    +0.000 A 
ATOM     32  C   UNL     1      -6.791  -4.620  20.299  0.00  0.00    +0.000 A 
ATOM     33  H   UNL     1     -10.013  -4.999  19.827  0.00  0.00    +0.000 HD
ATOM     34  H   UNL     1      -5.549  -7.564  19.118  0.00  0.00    +0.000 HD
ATOM     35  H   UNL     1      -3.437  -6.462  19.793  0.00  0.00    +0.000 HD
ATOM     36  H   UNL     1      -3.459  -4.193  20.769  0.00  0.00    +0.000 HD
ATOM     37  H   UNL     1      -5.600  -2.986  21.109  0.00  0.00    +0.000 HD
BRANCH  24  38
ATOM     38  C   UNL     1      -8.535  -2.939  20.940  0.00  0.00    +0.000 C 
ATOM     39  H   UNL     1      -8.970  -2.317  20.155  0.00  0.00    +0.000 HD
ATOM     40  H   UNL     1      -7.665  -2.437  21.371  0.00  0.00    +0.000 HD
ATOM     41  H   UNL     1      -9.283  -3.144  21.709  0.00  0.00    +0.000 HD
ENDBRANCH  24  38
ENDBRANCH   1  26
TORSDOF 3
ENDMDL
MODEL 6
REMARK VINA RESULT:    -9.449      4.001      6.341
REMARK INTER + INTRA:         -11.106
REMARK INTER:                  -9.501
REMARK INTRA:                  -1.604
REMARK UNBOUND:                -0.275
REMARK  Name = 
REMARK  3 active torsions:
REMARK  status: ('A' for Active; 'I' for Inactive)
REMARK    1  A    between atoms: C_1  and  N_2
REMARK    2  A    between atoms: C_4  and  C_5
REMARK    3  A    between atoms: C_6  and  C_7
REMARK                            x       y       z     vdW  Elec       q    Type
REMARK                         _______ _______ _______ _____ _____    ______ ____
ROOT
ATOM      1  C   UNL     1      -9.511  -2.258  21.797  0.00  0.00    +0.000 C 
ATOM      2  C   UNL     1      -8.525  -2.935  22.405  0.00  0.00    +0.000 C 
ATOM      3  C   UNL     1      -8.995  -3.275  23.765  0.00  0.00    +0.000 C 
ATOM      4  O   UNL     1      -8.386  -3.901  24.613  0.00  0.00    +0.000 OA
ATOM      5  N   UNL     1     -10.239  -2.769  23.895  0.00  0.00    +0.000 N 
ATOM      6  C   UNL     1     -10.622  -2.138  22.766  0.00  0.00    +0.000 C 
ATOM      7  O   UNL     1     -11.683  -1.567  22.596  0.00  0.00    +0.000 OA
ATOM      8  H   UNL     1     -10.801  -2.846  24.726  0.00  0.00    +0.000 HD
ENDROOT
BRANCH   2   9
ATOM      9  C   UNL     1      -7.245  -3.287  21.916  0.00  0.00    +0.000 A 
ATOM     10  C   UNL     1      -6.079  -2.620  22.219  0.00  0.00    +0.000 A 
ATOM     11  N   UNL     1      -5.058  -3.254  21.560  0.00  0.00    +0.000 N 
ATOM     12  C   UNL     1      -5.547  -4.305  20.815  0.00  0.00    +0.000 A 
ATOM     13  C   UNL     1      -4.879  -5.203  19.975  0.00  0.00    +0.000 A 
ATOM     14  C   UNL     1      -5.647  -6.168  19.317  0.00  0.00    +0.000 A 
ATOM     15  C   UNL     1      -7.025  -6.240  19.503  0.00  0.00    +0.000 A 
ATOM     16  C   UNL     1      -7.677  -5.344  20.358  0.00  0.00    +0.000 A 
ATOM     17  C   UNL     1      -6.928  -4.351  21.022  0.00  0.00    +0.000 A 
ATOM     18  H   UNL     1      -5.882  -1.754  22.836  0.00  0.00    +0.000 HD
ATOM     19  H   UNL     1      -4.086  -2.982  21.594  0.00  0.00    +0.000 HD
ATOM     20  H   UNL     1      -3.805  -5.150  19.826  0.00  0.00    +0.000 HD
ATOM     21  H   UNL     1      -5.159  -6.870  18.643  0.00  0.00    +0.000 HD
ATOM     22  H   UNL     1      -7.603  -6.995  18.974  0.00  0.00    +0.000 HD
ATOM     23  H   UNL     1      -8.752  -5.409  20.492  0.00  0.00    +0.000 HD
ENDBRANCH   2   9
BRANCH   1  26
ATOM     24  N   UNL     1      -9.379  -0.298  18.797  0.00  0.00    +0.000 N 
ATOM     25  C   UNL     1      -9.187  -0.443  20.146  0.00  0.00    +0.000 A 
ATOM     26  C   UNL     1      -9.557  -1.725  20.485  0.00  0.00    +0.000 A 
ATOM     27  C   UNL     1      -9.986  -2.389  19.297  0.00  0.00    +0.000 A 
ATOM     28  C   UNL     1     -10.459  -3.686  19.006  0.00  0.00    +0.000 A 
ATOM     29  C   UNL     1     -10.820  -4.012  17.694  0.00  0.00    +0.000 A 
ATOM     30  C   UNL     1     -10.718  -3.070  16.675  0.00  0.00    +0.000 A 
ATOM     31  C   UNL     1     -10.245  -1.781  16.935  0.00  0.00    +0.000 A 
ATOM     32  C   UNL     1      -9.879  -1.464  18.253  0.00  0.00    +0.000 A 
ATOM     33  H   UNL     1      -8.810   0.374  20.749  0.00  0.00    +0.000 HD
ATOM     34  H   UNL     1     -10.548  -4.430  19.792  0.00  0.00    +0.000 HD
ATOM     35  H   UNL     1     -11.187  -5.010  17.470  0.00  0.00    +0.000 HD
ATOM     36  H   UNL     1     -11.011  -3.337  15.663  0.00  0.00    +0.000 HD
ATOM     37  H   UNL     1     -10.171  -1.051  16.135  0.00  0.00    +0.000 HD
BRANCH  24  38
ATOM     38  C   UNL     1      -9.088   0.904  18.046  0.00  0.00    +0.000 C 
ATOM     39  H   UNL     1      -9.937   1.589  18.106  0.00  0.00    +0.000 HD
ATOM     40  H   UNL     1      -8.910   0.626  17.004  0.00  0.00    +0.000 HD
ATOM     41  H   UNL     1      -8.202   1.372  18.478  0.00  0.00    +0.000 HD
ENDBRANCH  24  38
ENDBRANCH   1  26
TORSDOF 3
ENDMDL
MODEL 7
REMARK VINA RESULT:    -9.403      1.341      5.961
REMARK INTER + INTRA:         -11.052
REMARK INTER:                 -10.892
REMARK INTRA:                  -0.161
REMARK UNBOUND:                -0.275
REMARK  Name = 
REMARK  3 active torsions:
REMARK  status: ('A' for Active; 'I' for Inactive)
REMARK    1  A    between atoms: C_1  and  N_2
REMARK    2  A    between atoms: C_4  and  C_5
REMARK    3  A    between atoms: C_6  and  C_7
REMARK                            x       y       z     vdW  Elec       q    Type
REMARK                         _______ _______ _______ _____ _____    ______ ____
ROOT
ATOM      1  C   UNL     1      -9.822  -6.317  17.739  0.00  0.00    +0.000 C 
ATOM      2  C   UNL     1      -9.057  -5.358  18.283  0.00  0.00    +0.000 C 
ATOM      3  C   UNL     1      -9.889  -4.142  18.401  0.00  0.00    +0.000 C 
ATOM      4  O   UNL     1      -9.551  -3.067  18.864  0.00  0.00    +0.000 OA
ATOM      5  N   UNL     1     -11.107  -4.443  17.907  0.00  0.00    +0.000 N 
ATOM      6  C   UNL     1     -11.152  -5.722  17.481  0.00  0.00    +0.000 C 
ATOM      7  O   UNL     1     -12.111  -6.268  16.970  0.00  0.00    +0.000 OA
ATOM      8  H   UNL     1     -11.877  -3.797  17.855  0.00  0.00    +0.000 HD
ENDROOT
BRANCH   2   9
ATOM      9  C   UNL     1      -7.702  -5.414  18.685  0.00  0.00    +0.000 A 
ATOM     10  C   UNL     1      -6.710  -6.086  18.006  0.00  0.00    +0.000 A 
ATOM     11  N   UNL     1      -5.542  -5.909  18.701  0.00  0.00    +0.000 N 
ATOM     12  C   UNL     1      -5.766  -5.154  19.832  0.00  0.00    +0.000 A 
ATOM     13  C   UNL     1      -4.879  -4.749  20.836  0.00  0.00    +0.000 A 
ATOM     14  C   UNL     1      -5.398  -3.998  21.895  0.00  0.00    +0.000 A 
ATOM     15  C   UNL     1      -6.747  -3.654  21.938  0.00  0.00    +0.000 A 
ATOM     16  C   UNL     1      -7.618  -4.053  20.918  0.00  0.00    +0.000 A 
ATOM     17  C   UNL     1      -7.123  -4.825  19.847  0.00  0.00    +0.000 A 
ATOM     18  H   UNL     1      -6.727  -6.676  17.101  0.00  0.00    +0.000 HD
ATOM     19  H   UNL     1      -4.644  -6.292  18.439  0.00  0.00    +0.000 HD
ATOM     20  H   UNL     1      -3.828  -5.016  20.807  0.00  0.00    +0.000 HD
ATOM     21  H   UNL     1      -4.738  -3.683  22.700  0.00  0.00    +0.000 HD
ATOM     22  H   UNL     1      -7.130  -3.075  22.775  0.00  0.00    +0.000 HD
ATOM     23  H   UNL     1      -8.668  -3.781  20.965  0.00  0.00    +0.000 HD
ENDBRANCH   2   9
BRANCH   1  26
ATOM     24  N   UNL     1      -9.165  -9.526  16.280  0.00  0.00    +0.000 N 
ATOM     25  C   UNL     1      -9.540  -8.212  16.172  0.00  0.00    +0.000 A 
ATOM     26  C   UNL     1      -9.495  -7.661  17.434  0.00  0.00    +0.000 A 
ATOM     27  C   UNL     1      -9.073  -8.676  18.343  0.00  0.00    +0.000 A 
ATOM     28  C   UNL     1      -8.833  -8.718  19.733  0.00  0.00    +0.000 A 
ATOM     29  C   UNL     1      -8.431  -9.920  20.329  0.00  0.00    +0.000 A 
ATOM     30  C   UNL     1      -8.268 -11.071  19.564  0.00  0.00    +0.000 A 
ATOM     31  C   UNL     1      -8.492 -11.053  18.185  0.00  0.00    +0.000 A 
ATOM     32  C   UNL     1      -8.888  -9.843  17.595  0.00  0.00    +0.000 A 
ATOM     33  H   UNL     1      -9.809  -7.783  15.215  0.00  0.00    +0.000 HD
ATOM     34  H   UNL     1      -8.960  -7.830  20.343  0.00  0.00    +0.000 HD
ATOM     35  H   UNL     1      -8.249  -9.953  21.400  0.00  0.00    +0.000 HD
ATOM     36  H   UNL     1      -7.965 -11.998  20.045  0.00  0.00    +0.000 HD
ATOM     37  H   UNL     1      -8.365 -11.956  17.597  0.00  0.00    +0.000 HD
BRANCH  24  38
ATOM     38  C   UNL     1      -9.065 -10.450  15.171  0.00  0.00    +0.000 C 
ATOM     39  H   UNL     1      -9.317 -11.458  15.508  0.00  0.00    +0.000 HD
ATOM     40  H   UNL     1      -8.039 -10.429  14.796  0.00  0.00    +0.000 HD
ATOM     41  H   UNL     1      -9.767 -10.132  14.396  0.00  0.00    +0.000 HD
ENDBRANCH  24  38
ENDBRANCH   1  26
TORSDOF 3
ENDMDL
MODEL 8
REMARK VINA RESULT:    -9.196      2.504      7.230
REMARK INTER + INTRA:         -10.815
REMARK INTER:                 -10.406
REMARK INTRA:                  -0.409
REMARK UNBOUND:                -0.275
REMARK  Name = 
REMARK  3 active torsions:
REMARK  status: ('A' for Active; 'I' for Inactive)
REMARK    1  A    between atoms: C_1  and  N_2
REMARK    2  A    between atoms: C_4  and  C_5
REMARK    3  A    between atoms: C_6  and  C_7
REMARK                            x       y       z     vdW  Elec       q    Type
REMARK                         _______ _______ _______ _____ _____    ______ ____
ROOT
ATOM      1  C   UNL     1      -6.971  -4.876  20.023  0.00  0.00    +0.000 C 
ATOM      2  C   UNL     1      -7.065  -3.892  20.930  0.00  0.00    +0.000 C 
ATOM      3  C   UNL     1      -5.696  -3.589  21.398  0.00  0.00    +0.000 C 
ATOM      4  O   UNL     1      -5.372  -2.743  22.212  0.00  0.00    +0.000 OA
ATOM      5  N   UNL     1      -4.859  -4.422  20.747  0.00  0.00    +0.000 N 
ATOM      6  C   UNL     1      -5.540  -5.232  19.910  0.00  0.00    +0.000 C 
ATOM      7  O   UNL     1      -5.054  -6.099  19.209  0.00  0.00    +0.000 OA
ATOM      8  H   UNL     1      -3.861  -4.442  20.876  0.00  0.00    +0.000 HD
ENDROOT
BRANCH   2   9
ATOM      9  C   UNL     1      -8.216  -3.225  21.413  0.00  0.00    +0.000 A 
ATOM     10  C   UNL     1      -9.120  -2.551  20.622  0.00  0.00    +0.000 A 
ATOM     11  N   UNL     1     -10.089  -2.042  21.447  0.00  0.00    +0.000 N 
ATOM     12  C   UNL     1      -9.815  -2.354  22.760  0.00  0.00    +0.000 A 
ATOM     13  C   UNL     1     -10.510  -2.025  23.930  0.00  0.00    +0.000 A 
ATOM     14  C   UNL     1      -9.976  -2.464  25.146  0.00  0.00    +0.000 A 
ATOM     15  C   UNL     1      -8.803  -3.213  25.187  0.00  0.00    +0.000 A 
ATOM     16  C   UNL     1      -8.128  -3.548  24.007  0.00  0.00    +0.000 A 
ATOM     17  C   UNL     1      -8.636  -3.104  22.769  0.00  0.00    +0.000 A 
ATOM     18  H   UNL     1      -9.160  -2.381  19.555  0.00  0.00    +0.000 HD
ATOM     19  H   UNL     1     -10.884  -1.496  21.144  0.00  0.00    +0.000 HD
ATOM     20  H   UNL     1     -11.423  -1.440  23.903  0.00  0.00    +0.000 HD
ATOM     21  H   UNL     1     -10.483  -2.209  26.074  0.00  0.00    +0.000 HD
ATOM     22  H   UNL     1      -8.403  -3.537  26.145  0.00  0.00    +0.000 HD
ATOM     23  H   UNL     1      -7.213  -4.129  24.054  0.00  0.00    +0.000 HD
ENDBRANCH   2   9
BRANCH   1  26
ATOM     24  N   UNL     1      -9.696  -5.800  17.883  0.00  0.00    +0.000 N 
ATOM     25  C   UNL     1      -8.843  -4.862  18.404  0.00  0.00    +0.000 A 
ATOM     26  C   UNL     1      -7.995  -5.509  19.276  0.00  0.00    +0.000 A 
ATOM     27  C   UNL     1      -8.341  -6.892  19.283  0.00  0.00    +0.000 A 
ATOM     28  C   UNL     1      -7.843  -8.031  19.949  0.00  0.00    +0.000 A 
ATOM     29  C   UNL     1      -8.445  -9.277  19.734  0.00  0.00    +0.000 A 
ATOM     30  C   UNL     1      -9.530  -9.400  18.872  0.00  0.00    +0.000 A 
ATOM     31  C   UNL     1     -10.038  -8.289  18.195  0.00  0.00    +0.000 A 
ATOM     32  C   UNL     1      -9.424  -7.045  18.411  0.00  0.00    +0.000 A 
ATOM     33  H   UNL     1      -8.912  -3.820  18.116  0.00  0.00    +0.000 HD
ATOM     34  H   UNL     1      -7.000  -7.950  20.628  0.00  0.00    +0.000 HD
ATOM     35  H   UNL     1      -8.063 -10.154  20.250  0.00  0.00    +0.000 HD
ATOM     36  H   UNL     1      -9.992 -10.374  18.724  0.00  0.00    +0.000 HD
ATOM     37  H   UNL     1     -10.887  -8.394  17.527  0.00  0.00    +0.000 HD
BRANCH  24  38
ATOM     38  C   UNL     1     -10.729  -5.524  16.909  0.00  0.00    +0.000 C 
ATOM     39  H   UNL     1     -11.465  -4.839  17.337  0.00  0.00    +0.000 HD
ATOM     40  H   UNL     1     -11.213  -6.468  16.641  0.00  0.00    +0.000 HD
ATOM     41  H   UNL     1     -10.263  -5.067  16.033  0.00  0.00    +0.000 HD
ENDBRANCH  24  38
ENDBRANCH   1  26
TORSDOF 3
ENDMDL
MODEL 9
REMARK VINA RESULT:    -9.075      2.976      5.035
REMARK INTER + INTRA:         -10.676
REMARK INTER:                  -9.781
REMARK INTRA:                  -0.895
REMARK UNBOUND:                -0.275
REMARK  Name = 
REMARK  3 active torsions:
REMARK  status: ('A' for Active; 'I' for Inactive)
REMARK    1  A    between atoms: C_1  and  N_2
REMARK    2  A    between atoms: C_4  and  C_5
REMARK    3  A    between atoms: C_6  and  C_7
REMARK                            x       y       z     vdW  Elec       q    Type
REMARK                         _______ _______ _______ _____ _____    ______ ____
ROOT
ATOM      1  C   UNL     1      -7.027  -4.166  20.999  0.00  0.00    +0.000 C 
ATOM      2  C   UNL     1      -7.061  -5.277  20.249  0.00  0.00    +0.000 C 
ATOM      3  C   UNL     1      -5.662  -5.658  19.957  0.00  0.00    +0.000 C 
ATOM      4  O   UNL     1      -5.286  -6.622  19.316  0.00  0.00    +0.000 OA
ATOM      5  N   UNL     1      -4.869  -4.740  20.546  0.00  0.00    +0.000 N 
ATOM      6  C   UNL     1      -5.605  -3.806  21.185  0.00  0.00    +0.000 C 
ATOM      7  O   UNL     1      -5.165  -2.844  21.786  0.00  0.00    +0.000 OA
ATOM      8  H   UNL     1      -3.864  -4.746  20.506  0.00  0.00    +0.000 HD
ENDROOT
BRANCH   2   9
ATOM      9  C   UNL     1      -8.178  -6.004  19.773  0.00  0.00    +0.000 A 
ATOM     10  C   UNL     1      -8.514  -7.277  20.174  0.00  0.00    +0.000 A 
ATOM     11  N   UNL     1      -9.649  -7.638  19.495  0.00  0.00    +0.000 N 
ATOM     12  C   UNL     1     -10.039  -6.629  18.643  0.00  0.00    +0.000 A 
ATOM     13  C   UNL     1     -11.115  -6.569  17.748  0.00  0.00    +0.000 A 
ATOM     14  C   UNL     1     -11.255  -5.409  16.980  0.00  0.00    +0.000 A 
ATOM     15  C   UNL     1     -10.363  -4.348  17.113  0.00  0.00    +0.000 A 
ATOM     16  C   UNL     1      -9.302  -4.416  18.023  0.00  0.00    +0.000 A 
ATOM     17  C   UNL     1      -9.129  -5.581  18.798  0.00  0.00    +0.000 A 
ATOM     18  H   UNL     1      -8.050  -7.960  20.872  0.00  0.00    +0.000 HD
ATOM     19  H   UNL     1     -10.125  -8.525  19.587  0.00  0.00    +0.000 HD
ATOM     20  H   UNL     1     -11.811  -7.394  17.641  0.00  0.00    +0.000 HD
ATOM     21  H   UNL     1     -12.070  -5.339  16.263  0.00  0.00    +0.000 HD
ATOM     22  H   UNL     1     -10.487  -3.458  16.499  0.00  0.00    +0.000 HD
ATOM     23  H   UNL     1      -8.612  -3.583  18.114  0.00  0.00    +0.000 HD
ENDBRANCH   2   9
BRANCH   1  26
ATOM     24  N   UNL     1      -9.883  -2.107  21.682  0.00  0.00    +0.000 N 
ATOM     25  C   UNL     1      -9.008  -2.695  20.805  0.00  0.00    +0.000 A 
ATOM     26  C   UNL     1      -8.100  -3.419  21.546  0.00  0.00    +0.000 A 
ATOM     27  C   UNL     1      -8.437  -3.272  22.924  0.00  0.00    +0.000 A 
ATOM     28  C   UNL     1      -7.901  -3.769  24.130  0.00  0.00    +0.000 A 
ATOM     29  C   UNL     1      -8.484  -3.402  25.350  0.00  0.00    +0.000 A 
ATOM     30  C   UNL     1      -9.583  -2.551  25.381  0.00  0.00    +0.000 A 
ATOM     31  C   UNL     1     -10.138  -2.051  24.201  0.00  0.00    +0.000 A 
ATOM     32  C   UNL     1      -9.552  -2.429  22.982  0.00  0.00    +0.000 A 
ATOM     33  H   UNL     1      -9.101  -2.546  19.737  0.00  0.00    +0.000 HD
ATOM     34  H   UNL     1      -7.040  -4.431  24.121  0.00  0.00    +0.000 HD
ATOM     35  H   UNL     1      -8.068  -3.783  26.279  0.00  0.00    +0.000 HD
ATOM     36  H   UNL     1     -10.018  -2.268  26.338  0.00  0.00    +0.000 HD
ATOM     37  H   UNL     1     -10.994  -1.384  24.236  0.00  0.00    +0.000 HD
BRANCH  24  38
ATOM     38  C   UNL     1     -11.002  -1.275  21.297  0.00  0.00    +0.000 C 
ATOM     39  H   UNL     1     -11.168  -0.507  22.057  0.00  0.00    +0.000 HD
ATOM     40  H   UNL     1     -11.889  -1.908  21.209  0.00  0.00    +0.000 HD
ATOM     41  H   UNL     1     -10.767  -0.804  20.340  0.00  0.00    +0.000 HD
ENDBRANCH  24  38
ENDBRANCH   1  26
TORSDOF 3
ENDMDL
