
 OpenBabel01112422553D

 51 54  0  0  0  0  0  0  0  0999 V2000
   12.0094    2.9548   -1.9139 C   0  0  0  0  0  0  0  0  0  0  0  0
   10.7754    2.1421   -1.5594 C   0  0  0  0  0  0  0  0  0  0  0  0
   10.4449    2.2483   -0.0721 C   0  0  0  0  0  0  0  0  0  0  0  0
    9.2195    1.4775    0.2773 C   0  0  0  0  0  0  0  0  0  0  0  0
    9.1141    0.1150    0.1484 N   0  0  0  0  0  0  0  0  0  0  0  0
    7.8670   -0.2479    0.5685 C   0  0  0  0  0  0  0  0  0  0  0  0
    7.1708    0.7899    0.9719 N   0  0  0  0  0  0  0  0  0  0  0  0
    7.9969    1.8811    0.7838 C   0  0  0  0  0  0  0  0  0  0  0  0
    7.5644    3.2742    1.1435 C   0  0  0  0  0  0  0  0  0  0  0  0
    6.2074    3.4107    1.6706 N   0  0  0  0  0  0  0  0  0  0  0  0
    5.9521    4.4348    2.5815 C   0  0  0  0  0  0  0  0  0  0  0  0
    4.9581    4.2565    3.5353 C   0  0  0  0  0  0  0  0  0  0  0  0
    4.6472    5.2789    4.4338 C   0  0  0  0  0  0  0  0  0  0  0  0
    3.4292    4.9402    5.6248 Cl  0  0  0  0  0  0  0  0  0  0  0  0
    5.2710    6.5318    4.3889 C   0  0  0  0  0  0  0  0  0  0  0  0
    4.9313    7.4886    5.2766 N   0  0  0  0  0  0  0  0  0  0  0  0
    5.4903    8.7076    5.1772 C   0  0  0  0  0  0  0  0  0  0  0  0
    6.4287    9.0489    4.2258 C   0  0  0  0  0  0  0  0  0  0  0  0
    6.8417   10.4157    4.1695 C   0  0  0  0  0  0  0  0  0  0  0  0
    7.1484   11.5330    4.1583 N   0  0  0  0  0  0  0  0  0  0  0  0
    6.8749    8.0521    3.3421 C   0  0  0  0  0  0  0  0  0  0  0  0
    7.9028    8.2922    2.3815 N   0  0  0  0  0  0  0  0  0  0  0  0
    9.1344    8.9724    2.5277 C   0  0  0  0  0  0  0  0  0  0  0  0
    9.7283    9.1733    3.7855 C   0  0  0  0  0  0  0  0  0  0  0  0
   10.9674    9.8084    3.9136 C   0  0  0  0  0  0  0  0  0  0  0  0
   11.6483   10.2193    2.7772 C   0  0  0  0  0  0  0  0  0  0  0  0
   12.8555   10.7862    2.9166 F   0  0  0  0  0  0  0  0  0  0  0  0
   11.0889   10.0204    1.5183 C   0  0  0  0  0  0  0  0  0  0  0  0
   11.9394   10.5129    0.1017 Cl  0  0  0  0  0  0  0  0  0  0  0  0
    9.8378    9.4036    1.3918 C   0  0  0  0  0  0  0  0  0  0  0  0
    6.2492    6.7615    3.3936 C   0  0  0  0  0  0  0  0  0  0  0  0
    6.5646    5.6960    2.5062 C   0  0  0  0  0  0  0  0  0  0  0  0
   12.2401    2.8448   -2.9779 H   0  0  0  0  0  0  0  0  0  0  0  0
   12.8785    2.6174   -1.3403 H   0  0  0  0  0  0  0  0  0  0  0  0
   11.8518    4.0181   -1.7075 H   0  0  0  0  0  0  0  0  0  0  0  0
   10.9479    1.0946   -1.8338 H   0  0  0  0  0  0  0  0  0  0  0  0
    9.9263    2.4924   -2.1591 H   0  0  0  0  0  0  0  0  0  0  0  0
   10.3000    3.3040    0.1907 H   0  0  0  0  0  0  0  0  0  0  0  0
   11.2860    1.8893    0.5331 H   0  0  0  0  0  0  0  0  0  0  0  0
    9.8245   -0.5119   -0.2068 H   0  0  0  0  0  0  0  0  0  0  0  0
    7.5257   -1.2741    0.5522 H   0  0  0  0  0  0  0  0  0  0  0  0
    7.6504    3.9004    0.2476 H   0  0  0  0  0  0  0  0  0  0  0  0
    8.2925    3.6403    1.8795 H   0  0  0  0  0  0  0  0  0  0  0  0
    5.8657    2.4888    1.9517 H   0  0  0  0  0  0  0  0  0  0  0  0
    4.4260    3.3097    3.5974 H   0  0  0  0  0  0  0  0  0  0  0  0
    5.1323    9.4280    5.9101 H   0  0  0  0  0  0  0  0  0  0  0  0
    7.5696    8.2164    1.4215 H   0  0  0  0  0  0  0  0  0  0  0  0
    9.2387    8.8332    4.6942 H   0  0  0  0  0  0  0  0  0  0  0  0
   11.4059    9.9719    4.8932 H   0  0  0  0  0  0  0  0  0  0  0  0
    9.4212    9.2607    0.3982 H   0  0  0  0  0  0  0  0  0  0  0  0
    7.3057    5.8665    1.7288 H   0  0  0  0  0  0  0  0  0  0  0  0
  1  2  1  0  0  0  0
  1 33  1  0  0  0  0
  1 34  1  0  0  0  0
  1 35  1  0  0  0  0
  2  3  1  0  0  0  0
  2 36  1  0  0  0  0
  2 37  1  0  0  0  0
  3  4  1  0  0  0  0
  3 38  1  0  0  0  0
  3 39  1  0  0  0  0
  4  5  1  0  0  0  0
  4  8  2  0  0  0  0
  5  6  1  0  0  0  0
  5 40  1  0  0  0  0
  6  7  2  0  0  0  0
  6 41  1  0  0  0  0
  7  8  1  0  0  0  0
  8  9  1  0  0  0  0
  9 10  1  0  0  0  0
  9 42  1  0  0  0  0
  9 43  1  0  0  0  0
 10 11  1  0  0  0  0
 10 44  1  0  0  0  0
 11 12  1  0  0  0  0
 11 32  2  0  0  0  0
 12 13  2  0  0  0  0
 12 45  1  0  0  0  0
 13 14  1  0  0  0  0
 13 15  1  0  0  0  0
 15 16  1  0  0  0  0
 15 31  2  0  0  0  0
 16 17  2  0  0  0  0
 17 18  1  0  0  0  0
 17 46  1  0  0  0  0
 18 19  1  0  0  0  0
 18 21  2  0  0  0  0
 19 20  3  0  0  0  0
 21 22  1  0  0  0  0
 21 31  1  0  0  0  0
 22 23  1  0  0  0  0
 22 47  1  0  0  0  0
 23 24  1  0  0  0  0
 23 30  2  0  0  0  0
 24 25  2  0  0  0  0
 24 48  1  0  0  0  0
 25 26  1  0  0  0  0
 25 49  1  0  0  0  0
 26 27  1  0  0  0  0
 26 28  2  0  0  0  0
 28 29  1  0  0  0  0
 28 30  1  0  0  0  0
 30 50  1  0  0  0  0
 31 32  1  0  0  0  0
 32 51  1  0  0  0  0
M  END
$$$$
