REMARK  Name = 
REMARK  6 active torsions:
REMARK  status: ('A' for Active; 'I' for Inactive)
REMARK    1  A    between atoms: C_2  and  C_3
REMARK    2  A    between atoms: C_7  and  N_8
REMARK    3  A    between atoms: C_15  and  O_16
REMARK    4  A    between atoms: C_17  and  O_18
REMARK    5  A    between atoms: C_24  and  O_25
REMARK    6  A    between atoms: C_26  and  O_27
REMARK                            x       y       z     vdW  Elec       q    Type
REMARK                         _______ _______ _______ _____ _____    ______ ____
ROOT
ATOM      1  O   UNL     1      -0.143   2.253  -1.555  0.00  0.00    +0.000 OA
ATOM      2  C   UNL     1      -0.333   1.373  -0.720  0.00  0.00    +0.000 C 
ATOM      3  N   UNL     1       0.665   0.428  -0.491  0.00  0.00    +0.000 N 
ATOM      4  C   UNL     1       0.859  -0.279   0.689  0.00  0.00    +0.000 A 
ATOM      5  C   UNL     1       0.333  -0.169   1.979  0.00  0.00    +0.000 A 
ATOM      6  C   UNL     1       0.216  -1.375   2.650  0.00  0.00    +0.000 A 
ATOM      7  C   UNL     1       0.650  -2.565   2.072  0.00  0.00    +0.000 A 
ATOM      8  C   UNL     1       1.514  -2.560   0.976  0.00  0.00    +0.000 A 
ATOM      9  C   UNL     1       1.704  -1.326   0.331  0.00  0.00    +0.000 A 
ATOM     10  C   UNL     1       2.552  -0.713  -0.623  0.00  0.00    +0.000 A 
ATOM     11  C   UNL     1       3.910  -0.711  -1.005  0.00  0.00    +0.000 A 
ATOM     12  C   UNL     1       4.275  -0.062  -2.198  0.00  0.00    +0.000 A 
ATOM     13  C   UNL     1       3.283   0.327  -3.090  0.00  0.00    +0.000 A 
ATOM     14  C   UNL     1       1.944   0.341  -2.708  0.00  0.00    +0.000 A 
ATOM     15  C   UNL     1       1.673   0.069  -1.369  0.00  0.00    +0.000 A 
ATOM     16  H   UNL     1      -0.094   0.752   2.356  0.00  0.00    +0.000 HD
ATOM     17  H   UNL     1       1.897  -3.486   0.559  0.00  0.00    +0.000 HD
ATOM     18  H   UNL     1       4.672  -1.090  -0.329  0.00  0.00    +0.000 HD
ATOM     19  H   UNL     1       5.325   0.078  -2.432  0.00  0.00    +0.000 HD
ENDROOT
BRANCH   2  20
ATOM     20  C   UNL     1      -1.630   1.445  -0.002  0.00  0.00    +0.000 A 
ATOM     21  C   UNL     1      -2.141   2.723   0.245  0.00  0.00    +0.000 A 
ATOM     22  C   UNL     1      -3.439   2.881   0.708  0.00  0.00    +0.000 A 
ATOM     23  C   UNL     1      -4.234   1.759   0.922  0.00  0.00    +0.000 A 
ATOM     24  C   UNL     1      -3.706   0.472   0.711  0.00  0.00    +0.000 A 
ATOM     25  C   UNL     1      -2.388   0.301   0.264  0.00  0.00    +0.000 A 
ATOM     26  H   UNL     1      -1.533   3.599   0.016  0.00  0.00    +0.000 HD
ATOM     27  H   UNL     1      -3.842   3.879   0.848  0.00  0.00    +0.000 HD
ATOM     28  H   UNL     1      -5.271   1.897   1.225  0.00  0.00    +0.000 HD
ATOM     29  H   UNL     1      -1.998  -0.694   0.073  0.00  0.00    +0.000 HD
BRANCH  24  30
ATOM     30  N   UNL     1      -4.545  -0.694   0.892  0.00  0.00    +0.000 N 
ATOM     31  O   UNL     1      -5.769  -0.533   0.928  0.00  0.00    +0.000 OA
ATOM     32  O   UNL     1      -4.007  -1.801   0.995  0.00  0.00    +0.000 OA
ENDBRANCH  24  30
ENDBRANCH   2  20
BRANCH   6  33
ATOM     33  O   UNL     1      -0.414  -1.433   3.861  0.00  0.00    +0.000 OA
ATOM     34  H   UNL     1      -0.179  -0.616   4.339  0.00  0.00    +0.000 HD
ENDBRANCH   6  33
BRANCH   7  35
ATOM     35  O   UNL     1       0.204  -3.751   2.581  0.00  0.00    +0.000 OA
ATOM     36  H   UNL     1      -0.506  -3.497   3.207  0.00  0.00    +0.000 HD
ENDBRANCH   7  35
BRANCH  13  37
ATOM     37  O   UNL     1       3.574   0.738  -4.362  0.00  0.00    +0.000 OA
ATOM     38  H   UNL     1       4.540   0.815  -4.442  0.00  0.00    +0.000 HD
ENDBRANCH  13  37
BRANCH  14  39
ATOM     39  O   UNL     1       0.959   0.591  -3.622  0.00  0.00    +0.000 OA
ATOM     40  H   UNL     1       1.423   0.633  -4.481  0.00  0.00    +0.000 HD
ENDBRANCH  14  39
TORSDOF 6
