MODEL 1
REMARK VINA RESULT:   -12.338      0.000      0.000
REMARK INTER + INTRA:         -13.059
REMARK INTER:                 -13.059
REMARK INTRA:                   0.000
REMARK UNBOUND:                 0.000
REMARK  Name = 
REMARK  2 active torsions:
REMARK  status: ('A' for Active; 'I' for Inactive)
REMARK    1  A    between atoms: C_1  and  C_2
REMARK    2  A    between atoms: N_14  and  C_15
REMARK                            x       y       z     vdW  Elec       q    Type
REMARK                         _______ _______ _______ _____ _____    ______ ____
ROOT
ATOM      1  C   UNL     1     -10.426  -3.923  17.933  0.00  0.00    +0.000 A 
ATOM      2  C   UNL     1     -10.849  -3.782  16.612  0.00  0.00    +0.000 A 
ATOM      3  C   UNL     1     -10.850  -4.866  15.747  0.00  0.00    +0.000 A 
ATOM      4  C   UNL     1     -10.413  -6.098  16.243  0.00  0.00    +0.000 A 
ATOM      5  N   UNL     1     -10.304  -7.279  15.548  0.00  0.00    +0.000 N 
ATOM      6  C   UNL     1      -9.813  -8.286  16.339  0.00  0.00    +0.000 A 
ATOM      7  C   UNL     1      -9.467  -9.617  16.043  0.00  0.00    +0.000 A 
ATOM      8  C   UNL     1      -9.569  -9.970  14.699  0.00  0.00    +0.000 A 
ATOM      9  C   UNL     1      -9.129 -11.205  14.289  0.00  0.00    +0.000 A 
ATOM     10  C   UNL     1      -8.791 -12.157  15.253  0.00  0.00    +0.000 A 
ATOM     11  C   UNL     1      -8.379 -13.493  15.069  0.00  0.00    +0.000 A 
ATOM     12  C   UNL     1      -8.819 -14.105  16.201  0.00  0.00    +0.000 A 
ATOM     13  N   UNL     1      -8.682 -13.145  17.193  0.00  0.00    +0.000 N 
ATOM     14  C   UNL     1      -8.837 -11.873  16.648  0.00  0.00    +0.000 A 
ATOM     15  C   UNL     1      -9.018 -10.510  17.086  0.00  0.00    +0.000 A 
ATOM     16  C   UNL     1      -8.837  -9.872  18.334  0.00  0.00    +0.000 A 
ATOM     17  C   UNL     1      -9.171  -8.484  18.626  0.00  0.00    +0.000 A 
ATOM     18  C   UNL     1      -9.676  -7.700  17.558  0.00  0.00    +0.000 A 
ATOM     19  C   UNL     1      -9.993  -6.317  17.564  0.00  0.00    +0.000 A 
ATOM     20  C   UNL     1     -10.001  -5.189  18.416  0.00  0.00    +0.000 A 
ATOM     21  C   UNL     1      -8.854  -8.177  19.978  0.00  0.00    +0.000 C 
ATOM     22  O   UNL     1      -8.863  -7.158  20.666  0.00  0.00    +0.000 OA
ATOM     23  N   UNL     1      -8.390  -9.373  20.465  0.00  0.00    +0.000 N 
ATOM     24  C   UNL     1      -8.191 -10.358  19.520  0.00  0.00    +0.000 C 
ATOM     25  O   UNL     1      -7.442 -11.299  19.762  0.00  0.00    +0.000 OA
ATOM     26  H   UNL     1     -11.177  -2.817  16.234  0.00  0.00    +0.000 HD
ATOM     27  H   UNL     1     -11.172  -4.751  14.715  0.00  0.00    +0.000 HD
ATOM     28  H   UNL     1     -10.544  -7.373  14.577  0.00  0.00    +0.000 HD
ATOM     29  H   UNL     1      -9.934  -9.293  13.935  0.00  0.00    +0.000 HD
ATOM     30  H   UNL     1      -9.147 -11.475  13.238  0.00  0.00    +0.000 HD
ATOM     31  H   UNL     1      -8.077 -13.980  14.155  0.00  0.00    +0.000 HD
ATOM     32  H   UNL     1      -8.995 -15.150  16.432  0.00  0.00    +0.000 HD
ATOM     33  H   UNL     1      -9.668  -5.270  19.452  0.00  0.00    +0.000 HD
ATOM     34  H   UNL     1      -7.949  -9.420  21.351  0.00  0.00    +0.000 HD
ENDROOT
BRANCH   1  35
ATOM     35  C   UNL     1     -10.421  -2.709  18.821  0.00  0.00    +0.000 C 
ATOM     36  H   UNL     1      -9.531  -2.694  19.463  0.00  0.00    +0.000 HD
ATOM     37  H   UNL     1     -11.296  -2.714  19.476  0.00  0.00    +0.000 HD
ATOM     38  H   UNL     1     -10.406  -1.796  18.220  0.00  0.00    +0.000 HD
ENDBRANCH   1  35
BRANCH  13  39
ATOM     39  C   UNL     1      -8.288 -13.642  18.492  0.00  0.00    +0.000 C 
ATOM     40  H   UNL     1      -7.963 -12.846  19.146  0.00  0.00    +0.000 HD
ATOM     41  H   UNL     1      -7.536 -14.417  18.306  0.00  0.00    +0.000 HD
ATOM     42  H   UNL     1      -9.154 -14.124  18.960  0.00  0.00    +0.000 HD
ENDBRANCH  13  39
TORSDOF 2
ENDMDL
MODEL 2
REMARK VINA RESULT:   -11.881      2.157      7.400
REMARK INTER + INTRA:         -12.575
REMARK INTER:                 -12.575
REMARK INTRA:                   0.000
REMARK UNBOUND:                 0.000
REMARK  Name = 
REMARK  2 active torsions:
REMARK  status: ('A' for Active; 'I' for Inactive)
REMARK    1  A    between atoms: C_1  and  C_2
REMARK    2  A    between atoms: N_14  and  C_15
REMARK                            x       y       z     vdW  Elec       q    Type
REMARK                         _______ _______ _______ _____ _____    ______ ____
ROOT
ATOM      1  C   UNL     1      -8.643 -13.794  16.087  0.00  0.00    +0.000 A 
ATOM      2  C   UNL     1      -8.481 -14.156  17.424  0.00  0.00    +0.000 A 
ATOM      3  C   UNL     1      -8.501 -13.198  18.427  0.00  0.00    +0.000 A 
ATOM      4  C   UNL     1      -8.685 -11.864  18.051  0.00  0.00    +0.000 A 
ATOM      5  N   UNL     1      -8.700 -10.766  18.878  0.00  0.00    +0.000 N 
ATOM      6  C   UNL     1      -8.876  -9.605  18.170  0.00  0.00    +0.000 A 
ATOM      7  C   UNL     1      -8.878  -8.258  18.578  0.00  0.00    +0.000 A 
ATOM      8  C   UNL     1      -8.582  -8.046  19.922  0.00  0.00    +0.000 A 
ATOM      9  C   UNL     1      -8.429  -6.763  20.388  0.00  0.00    +0.000 A 
ATOM     10  C   UNL     1      -8.785  -5.696  19.559  0.00  0.00    +0.000 A 
ATOM     11  C   UNL     1      -8.773  -4.315  19.842  0.00  0.00    +0.000 A 
ATOM     12  C   UNL     1      -9.767  -3.834  19.048  0.00  0.00    +0.000 A 
ATOM     13  N   UNL     1      -9.714  -4.619  17.907  0.00  0.00    +0.000 N 
ATOM     14  C   UNL     1      -9.252  -5.893  18.227  0.00  0.00    +0.000 A 
ATOM     15  C   UNL     1      -9.148  -7.203  17.629  0.00  0.00    +0.000 A 
ATOM     16  C   UNL     1      -9.252  -7.658  16.296  0.00  0.00    +0.000 A 
ATOM     17  C   UNL     1      -9.220  -9.053  15.877  0.00  0.00    +0.000 A 
ATOM     18  C   UNL     1      -9.024 -10.028  16.888  0.00  0.00    +0.000 A 
ATOM     19  C   UNL     1      -8.873 -11.431  16.730  0.00  0.00    +0.000 A 
ATOM     20  C   UNL     1      -8.843 -12.434  15.734  0.00  0.00    +0.000 A 
ATOM     21  C   UNL     1      -9.346  -9.145  14.464  0.00  0.00    +0.000 C 
ATOM     22  O   UNL     1      -9.291 -10.057  13.641  0.00  0.00    +0.000 OA
ATOM     23  N   UNL     1      -9.493  -7.835  14.082  0.00  0.00    +0.000 N 
ATOM     24  C   UNL     1      -9.275  -6.902  15.075  0.00  0.00    +0.000 C 
ATOM     25  O   UNL     1      -9.002  -5.743  14.780  0.00  0.00    +0.000 OA
ATOM     26  H   UNL     1      -8.328 -15.196  17.704  0.00  0.00    +0.000 HD
ATOM     27  H   UNL     1      -8.365 -13.482  19.467  0.00  0.00    +0.000 HD
ATOM     28  H   UNL     1      -8.581 -10.822  19.874  0.00  0.00    +0.000 HD
ATOM     29  H   UNL     1      -8.408  -8.853  20.625  0.00  0.00    +0.000 HD
ATOM     30  H   UNL     1      -8.141  -6.580  21.418  0.00  0.00    +0.000 HD
ATOM     31  H   UNL     1      -8.322  -3.807  20.681  0.00  0.00    +0.000 HD
ATOM     32  H   UNL     1     -10.331  -2.908  19.084  0.00  0.00    +0.000 HD
ATOM     33  H   UNL     1      -8.959 -12.177  14.680  0.00  0.00    +0.000 HD
ATOM     34  H   UNL     1      -9.448  -7.581  13.124  0.00  0.00    +0.000 HD
ENDROOT
BRANCH   1  35
ATOM     35  C   UNL     1      -8.588 -14.871  15.038  0.00  0.00    +0.000 C 
ATOM     36  H   UNL     1      -9.055 -14.535  14.104  0.00  0.00    +0.000 HD
ATOM     37  H   UNL     1      -9.133 -15.757  15.375  0.00  0.00    +0.000 HD
ATOM     38  H   UNL     1      -7.551 -15.131  14.811  0.00  0.00    +0.000 HD
ENDBRANCH   1  35
BRANCH  13  39
ATOM     39  C   UNL     1     -10.003  -3.938  16.665  0.00  0.00    +0.000 C 
ATOM     40  H   UNL     1     -10.573  -3.033  16.826  0.00  0.00    +0.000 HD
ATOM     41  H   UNL     1     -10.490  -4.677  16.019  0.00  0.00    +0.000 HD
ATOM     42  H   UNL     1      -9.056  -3.654  16.193  0.00  0.00    +0.000 HD
ENDBRANCH  13  39
TORSDOF 2
ENDMDL
MODEL 3
REMARK VINA RESULT:   -11.051      2.216      4.225
REMARK INTER + INTRA:         -11.697
REMARK INTER:                 -11.697
REMARK INTRA:                   0.000
REMARK UNBOUND:                 0.000
REMARK  Name = 
REMARK  2 active torsions:
REMARK  status: ('A' for Active; 'I' for Inactive)
REMARK    1  A    between atoms: C_1  and  C_2
REMARK    2  A    between atoms: N_14  and  C_15
REMARK                            x       y       z     vdW  Elec       q    Type
REMARK                         _______ _______ _______ _____ _____    ______ ____
ROOT
ATOM      1  C   UNL     1      -9.421  -2.015  19.731  0.00  0.00    +0.000 A 
ATOM      2  C   UNL     1      -8.623  -2.211  20.857  0.00  0.00    +0.000 A 
ATOM      3  C   UNL     1      -8.124  -3.469  21.163  0.00  0.00    +0.000 A 
ATOM      4  C   UNL     1      -8.450  -4.526  20.309  0.00  0.00    +0.000 A 
ATOM      5  N   UNL     1      -8.091  -5.846  20.450  0.00  0.00    +0.000 N 
ATOM      6  C   UNL     1      -8.608  -6.619  19.442  0.00  0.00    +0.000 A 
ATOM      7  C   UNL     1      -8.569  -8.009  19.223  0.00  0.00    +0.000 A 
ATOM      8  C   UNL     1      -7.962  -8.750  20.234  0.00  0.00    +0.000 A 
ATOM      9  C   UNL     1      -7.992 -10.123  20.177  0.00  0.00    +0.000 A 
ATOM     10  C   UNL     1      -8.435 -10.741  19.005  0.00  0.00    +0.000 A 
ATOM     11  C   UNL     1      -8.494 -12.117  18.700  0.00  0.00    +0.000 A 
ATOM     12  C   UNL     1      -8.340 -12.134  17.349  0.00  0.00    +0.000 A 
ATOM     13  N   UNL     1      -8.982 -10.986  16.910  0.00  0.00    +0.000 N 
ATOM     14  C   UNL     1      -8.909  -9.997  17.887  0.00  0.00    +0.000 A 
ATOM     15  C   UNL     1      -9.153  -8.582  18.033  0.00  0.00    +0.000 A 
ATOM     16  C   UNL     1      -9.856  -7.644  17.243  0.00  0.00    +0.000 A 
ATOM     17  C   UNL     1      -9.916  -6.210  17.493  0.00  0.00    +0.000 A 
ATOM     18  C   UNL     1      -9.251  -5.725  18.647  0.00  0.00    +0.000 A 
ATOM     19  C   UNL     1      -9.231  -4.398  19.150  0.00  0.00    +0.000 A 
ATOM     20  C   UNL     1      -9.725  -3.103  18.871  0.00  0.00    +0.000 A 
ATOM     21  C   UNL     1     -10.715  -5.573  16.503  0.00  0.00    +0.000 C 
ATOM     22  O   UNL     1     -11.132  -4.430  16.324  0.00  0.00    +0.000 OA
ATOM     23  N   UNL     1     -11.069  -6.610  15.678  0.00  0.00    +0.000 N 
ATOM     24  C   UNL     1     -10.749  -7.870  16.142  0.00  0.00    +0.000 C 
ATOM     25  O   UNL     1     -11.336  -8.853  15.703  0.00  0.00    +0.000 OA
ATOM     26  H   UNL     1      -8.385  -1.383  21.520  0.00  0.00    +0.000 HD
ATOM     27  H   UNL     1      -7.510  -3.621  22.047  0.00  0.00    +0.000 HD
ATOM     28  H   UNL     1      -7.531  -6.188  21.210  0.00  0.00    +0.000 HD
ATOM     29  H   UNL     1      -7.506  -8.299  21.108  0.00  0.00    +0.000 HD
ATOM     30  H   UNL     1      -7.576 -10.717  20.983  0.00  0.00    +0.000 HD
ATOM     31  H   UNL     1      -8.376 -12.956  19.368  0.00  0.00    +0.000 HD
ATOM     32  H   UNL     1      -8.050 -12.927  16.668  0.00  0.00    +0.000 HD
ATOM     33  H   UNL     1     -10.359  -2.923  18.001  0.00  0.00    +0.000 HD
ATOM     34  H   UNL     1     -11.760  -6.484  14.978  0.00  0.00    +0.000 HD
ENDROOT
BRANCH   1  35
ATOM     35  C   UNL     1      -9.957  -0.635  19.460  0.00  0.00    +0.000 C 
ATOM     36  H   UNL     1     -10.784  -0.668  18.739  0.00  0.00    +0.000 HD
ATOM     37  H   UNL     1      -9.175  -0.002  19.032  0.00  0.00    +0.000 HD
ATOM     38  H   UNL     1     -10.342  -0.188  20.380  0.00  0.00    +0.000 HD
ENDBRANCH   1  35
BRANCH  13  39
ATOM     39  C   UNL     1      -9.677 -11.103  15.648  0.00  0.00    +0.000 C 
ATOM     40  H   UNL     1     -10.529 -11.764  15.717  0.00  0.00    +0.000 HD
ATOM     41  H   UNL     1      -8.923 -11.404  14.912  0.00  0.00    +0.000 HD
ATOM     42  H   UNL     1     -10.047 -10.113  15.358  0.00  0.00    +0.000 HD
ENDBRANCH  13  39
TORSDOF 2
ENDMDL
MODEL 4
REMARK VINA RESULT:   -11.035      2.174      7.366
REMARK INTER + INTRA:         -11.681
REMARK INTER:                 -11.681
REMARK INTRA:                   0.000
REMARK UNBOUND:                 0.000
REMARK  Name = 
REMARK  2 active torsions:
REMARK  status: ('A' for Active; 'I' for Inactive)
REMARK    1  A    between atoms: C_1  and  C_2
REMARK    2  A    between atoms: N_14  and  C_15
REMARK                            x       y       z     vdW  Elec       q    Type
REMARK                         _______ _______ _______ _____ _____    ______ ____
ROOT
ATOM      1  C   UNL     1      -9.061 -10.644  17.443  0.00  0.00    +0.000 A 
ATOM      2  C   UNL     1      -9.774 -10.776  16.252  0.00  0.00    +0.000 A 
ATOM      3  C   UNL     1     -10.321  -9.667  15.624  0.00  0.00    +0.000 A 
ATOM      4  C   UNL     1     -10.135  -8.419  16.226  0.00  0.00    +0.000 A 
ATOM      5  N   UNL     1     -10.622  -7.209  15.791  0.00  0.00    +0.000 N 
ATOM      6  C   UNL     1     -10.272  -6.190  16.640  0.00  0.00    +0.000 A 
ATOM      7  C   UNL     1     -10.606  -4.823  16.639  0.00  0.00    +0.000 A 
ATOM      8  C   UNL     1     -11.505  -4.434  15.650  0.00  0.00    +0.000 A 
ATOM      9  C   UNL     1     -11.995  -3.151  15.647  0.00  0.00    +0.000 A 
ATOM     10  C   UNL     1     -11.420  -2.206  16.501  0.00  0.00    +0.000 A 
ATOM     11  C   UNL     1     -11.715  -0.833  16.625  0.00  0.00    +0.000 A 
ATOM     12  C   UNL     1     -10.528  -0.304  17.028  0.00  0.00    +0.000 A 
ATOM     13  N   UNL     1      -9.966  -1.281  17.835  0.00  0.00    +0.000 N 
ATOM     14  C   UNL     1     -10.379  -2.542  17.413  0.00  0.00    +0.000 A 
ATOM     15  C   UNL     1     -10.052  -3.931  17.631  0.00  0.00    +0.000 A 
ATOM     16  C   UNL     1      -9.301  -4.594  18.628  0.00  0.00    +0.000 A 
ATOM     17  C   UNL     1      -8.983  -6.016  18.637  0.00  0.00    +0.000 A 
ATOM     18  C   UNL     1      -9.509  -6.803  17.582  0.00  0.00    +0.000 A 
ATOM     19  C   UNL     1      -9.414  -8.209  17.412  0.00  0.00    +0.000 A 
ATOM     20  C   UNL     1      -8.874  -9.363  18.026  0.00  0.00    +0.000 A 
ATOM     21  C   UNL     1      -8.216  -6.340  19.790  0.00  0.00    +0.000 C 
ATOM     22  O   UNL     1      -7.788  -7.379  20.288  0.00  0.00    +0.000 OA
ATOM     23  N   UNL     1      -8.058  -5.124  20.407  0.00  0.00    +0.000 N 
ATOM     24  C   UNL     1      -8.807  -4.092  19.880  0.00  0.00    +0.000 C 
ATOM     25  O   UNL     1      -9.042  -3.096  20.556  0.00  0.00    +0.000 OA
ATOM     26  H   UNL     1      -9.921 -11.753  15.798  0.00  0.00    +0.000 HD
ATOM     27  H   UNL     1     -10.884  -9.775  14.701  0.00  0.00    +0.000 HD
ATOM     28  H   UNL     1     -11.175  -7.103  14.959  0.00  0.00    +0.000 HD
ATOM     29  H   UNL     1     -11.890  -5.114  14.898  0.00  0.00    +0.000 HD
ATOM     30  H   UNL     1     -12.739  -2.846  14.919  0.00  0.00    +0.000 HD
ATOM     31  H   UNL     1     -12.551  -0.288  16.217  0.00  0.00    +0.000 HD
ATOM     32  H   UNL     1     -10.149   0.712  17.006  0.00  0.00    +0.000 HD
ATOM     33  H   UNL     1      -8.319  -9.289  18.962  0.00  0.00    +0.000 HD
ATOM     34  H   UNL     1      -7.689  -5.069  21.325  0.00  0.00    +0.000 HD
ENDROOT
BRANCH   1  35
ATOM     35  C   UNL     1      -8.511 -11.884  18.094  0.00  0.00    +0.000 C 
ATOM     36  H   UNL     1      -8.020 -12.531  17.356  0.00  0.00    +0.000 HD
ATOM     37  H   UNL     1      -9.317 -12.462  18.552  0.00  0.00    +0.000 HD
ATOM     38  H   UNL     1      -7.762 -11.620  18.846  0.00  0.00    +0.000 HD
ENDBRANCH   1  35
BRANCH  13  39
ATOM     39  C   UNL     1      -9.220  -0.797  18.975  0.00  0.00    +0.000 C 
ATOM     40  H   UNL     1      -9.465  -1.339  19.877  0.00  0.00    +0.000 HD
ATOM     41  H   UNL     1      -9.405   0.282  19.024  0.00  0.00    +0.000 HD
ATOM     42  H   UNL     1      -8.151  -0.942  18.781  0.00  0.00    +0.000 HD
ENDBRANCH  13  39
TORSDOF 2
ENDMDL
MODEL 5
REMARK VINA RESULT:   -10.556      1.820      3.060
REMARK INTER + INTRA:         -11.173
REMARK INTER:                 -11.173
REMARK INTRA:                   0.000
REMARK UNBOUND:                 0.000
REMARK  Name = 
REMARK  2 active torsions:
REMARK  status: ('A' for Active; 'I' for Inactive)
REMARK    1  A    between atoms: C_1  and  C_2
REMARK    2  A    between atoms: N_14  and  C_15
REMARK                            x       y       z     vdW  Elec       q    Type
REMARK                         _______ _______ _______ _____ _____    ______ ____
ROOT
ATOM      1  C   UNL     1     -11.322  -1.814  15.638  0.00  0.00    +0.000 A 
ATOM      2  C   UNL     1     -11.942  -2.336  14.504  0.00  0.00    +0.000 A 
ATOM      3  C   UNL     1     -11.949  -3.703  14.264  0.00  0.00    +0.000 A 
ATOM      4  C   UNL     1     -11.315  -4.532  15.194  0.00  0.00    +0.000 A 
ATOM      5  N   UNL     1     -11.178  -5.898  15.127  0.00  0.00    +0.000 N 
ATOM      6  C   UNL     1     -10.473  -6.387  16.197  0.00  0.00    +0.000 A 
ATOM      7  C   UNL     1     -10.031  -7.688  16.503  0.00  0.00    +0.000 A 
ATOM      8  C   UNL     1     -10.286  -8.645  15.525  0.00  0.00    +0.000 A 
ATOM      9  C   UNL     1      -9.777  -9.913  15.670  0.00  0.00    +0.000 A 
ATOM     10  C   UNL     1      -9.204 -10.275  16.892  0.00  0.00    +0.000 A 
ATOM     11  C   UNL     1      -8.680 -11.523  17.286  0.00  0.00    +0.000 A 
ATOM     12  C   UNL     1      -8.885 -11.527  18.630  0.00  0.00    +0.000 A 
ATOM     13  N   UNL     1      -8.712 -10.206  19.014  0.00  0.00    +0.000 N 
ATOM     14  C   UNL     1      -9.080  -9.357  17.974  0.00  0.00    +0.000 A 
ATOM     15  C   UNL     1      -9.344  -7.957  17.745  0.00  0.00    +0.000 A 
ATOM     16  C   UNL     1      -9.057  -6.793  18.493  0.00  0.00    +0.000 A 
ATOM     17  C   UNL     1      -9.494  -5.445  18.154  0.00  0.00    +0.000 A 
ATOM     18  C   UNL     1     -10.228  -5.285  16.952  0.00  0.00    +0.000 A 
ATOM     19  C   UNL     1     -10.689  -4.078  16.365  0.00  0.00    +0.000 A 
ATOM     20  C   UNL     1     -10.698  -2.679  16.574  0.00  0.00    +0.000 A 
ATOM     21  C   UNL     1      -9.022  -4.517  19.124  0.00  0.00    +0.000 C 
ATOM     22  O   UNL     1      -9.043  -3.294  19.242  0.00  0.00    +0.000 OA
ATOM     23  N   UNL     1      -8.367  -5.319  20.024  0.00  0.00    +0.000 N 
ATOM     24  C   UNL     1      -8.198  -6.632  19.633  0.00  0.00    +0.000 C 
ATOM     25  O   UNL     1      -7.325  -7.320  20.151  0.00  0.00    +0.000 OA
ATOM     26  H   UNL     1     -12.423  -1.681  13.782  0.00  0.00    +0.000 HD
ATOM     27  H   UNL     1     -12.425  -4.106  13.374  0.00  0.00    +0.000 HD
ATOM     28  H   UNL     1     -11.543  -6.454  14.374  0.00  0.00    +0.000 HD
ATOM     29  H   UNL     1     -10.827  -8.429  14.611  0.00  0.00    +0.000 HD
ATOM     30  H   UNL     1      -9.916 -10.655  14.892  0.00  0.00    +0.000 HD
ATOM     31  H   UNL     1      -8.460 -12.382  16.671  0.00  0.00    +0.000 HD
ATOM     32  H   UNL     1      -8.912 -12.337  19.352  0.00  0.00    +0.000 HD
ATOM     33  H   UNL     1     -10.213  -2.243  17.450  0.00  0.00    +0.000 HD
ATOM     34  H   UNL     1      -7.801  -4.922  20.735  0.00  0.00    +0.000 HD
ENDROOT
BRANCH   1  35
ATOM     35  C   UNL     1     -11.322  -0.322  15.836  0.00  0.00    +0.000 C 
ATOM     36  H   UNL     1     -12.298   0.027  16.195  0.00  0.00    +0.000 HD
ATOM     37  H   UNL     1     -11.121   0.186  14.889  0.00  0.00    +0.000 HD
ATOM     38  H   UNL     1     -10.577  -0.036  16.583  0.00  0.00    +0.000 HD
ENDBRANCH   1  35
BRANCH  13  39
ATOM     39  C   UNL     1      -8.085 -10.007  20.301  0.00  0.00    +0.000 C 
ATOM     40  H   UNL     1      -8.502 -10.655  21.058  0.00  0.00    +0.000 HD
ATOM     41  H   UNL     1      -8.170  -8.936  20.518  0.00  0.00    +0.000 HD
ATOM     42  H   UNL     1      -7.019 -10.244  20.212  0.00  0.00    +0.000 HD
ENDBRANCH  13  39
TORSDOF 2
ENDMDL
MODEL 6
REMARK VINA RESULT:   -10.249      2.343      7.679
REMARK INTER + INTRA:         -10.848
REMARK INTER:                 -10.848
REMARK INTRA:                   0.000
REMARK UNBOUND:                 0.000
REMARK  Name = 
REMARK  2 active torsions:
REMARK  status: ('A' for Active; 'I' for Inactive)
REMARK    1  A    between atoms: C_1  and  C_2
REMARK    2  A    between atoms: N_14  and  C_15
REMARK                            x       y       z     vdW  Elec       q    Type
REMARK                         _______ _______ _______ _____ _____    ______ ____
ROOT
ATOM      1  C   UNL     1      -8.808 -12.087  17.654  0.00  0.00    +0.000 A 
ATOM      2  C   UNL     1      -8.006 -12.213  18.788  0.00  0.00    +0.000 A 
ATOM      3  C   UNL     1      -7.732 -11.114  19.590  0.00  0.00    +0.000 A 
ATOM      4  C   UNL     1      -8.282  -9.884  19.221  0.00  0.00    +0.000 A 
ATOM      5  N   UNL     1      -8.106  -8.675  19.852  0.00  0.00    +0.000 N 
ATOM      6  C   UNL     1      -8.770  -7.666  19.203  0.00  0.00    +0.000 A 
ATOM      7  C   UNL     1      -8.812  -6.279  19.438  0.00  0.00    +0.000 A 
ATOM      8  C   UNL     1      -7.983  -5.826  20.461  0.00  0.00    +0.000 A 
ATOM      9  C   UNL     1      -7.853  -4.476  20.679  0.00  0.00    +0.000 A 
ATOM     10  C   UNL     1      -8.714  -3.599  20.017  0.00  0.00    +0.000 A 
ATOM     11  C   UNL     1      -8.804  -2.196  20.131  0.00  0.00    +0.000 A 
ATOM     12  C   UNL     1     -10.113  -1.953  19.852  0.00  0.00    +0.000 A 
ATOM     13  N   UNL     1     -10.449  -2.900  18.898  0.00  0.00    +0.000 N 
ATOM     14  C   UNL     1      -9.689  -4.052  19.083  0.00  0.00    +0.000 A 
ATOM     15  C   UNL     1      -9.649  -5.422  18.630  0.00  0.00    +0.000 A 
ATOM     16  C   UNL     1     -10.264  -6.092  17.549  0.00  0.00    +0.000 A 
ATOM     17  C   UNL     1     -10.193  -7.526  17.296  0.00  0.00    +0.000 A 
ATOM     18  C   UNL     1      -9.406  -8.301  18.184  0.00  0.00    +0.000 A 
ATOM     19  C   UNL     1      -9.112  -9.688  18.106  0.00  0.00    +0.000 A 
ATOM     20  C   UNL     1      -9.367 -10.828  17.310  0.00  0.00    +0.000 A 
ATOM     21  C   UNL     1     -10.923  -7.854  16.120  0.00  0.00    +0.000 C 
ATOM     22  O   UNL     1     -11.092  -8.874  15.457  0.00  0.00    +0.000 OA
ATOM     23  N   UNL     1     -11.439  -6.643  15.731  0.00  0.00    +0.000 N 
ATOM     24  C   UNL     1     -10.957  -5.547  16.415  0.00  0.00    +0.000 C 
ATOM     25  O   UNL     1     -11.041  -4.428  15.921  0.00  0.00    +0.000 OA
ATOM     26  H   UNL     1      -7.574 -13.173  19.060  0.00  0.00    +0.000 HD
ATOM     27  H   UNL     1      -7.098 -11.214  20.467  0.00  0.00    +0.000 HD
ATOM     28  H   UNL     1      -7.545  -8.559  20.678  0.00  0.00    +0.000 HD
ATOM     29  H   UNL     1      -7.382  -6.489  21.073  0.00  0.00    +0.000 HD
ATOM     30  H   UNL     1      -7.168  -4.104  21.433  0.00  0.00    +0.000 HD
ATOM     31  H   UNL     1      -8.116  -1.517  20.611  0.00  0.00    +0.000 HD
ATOM     32  H   UNL     1     -10.746  -1.097  20.061  0.00  0.00    +0.000 HD
ATOM     33  H   UNL     1      -9.984 -10.756  16.413  0.00  0.00    +0.000 HD
ATOM     34  H   UNL     1     -11.871  -6.542  14.844  0.00  0.00    +0.000 HD
ENDROOT
BRANCH   1  35
ATOM     35  C   UNL     1      -9.052 -13.306  16.807  0.00  0.00    +0.000 C 
ATOM     36  H   UNL     1      -8.167 -13.551  16.206  0.00  0.00    +0.000 HD
ATOM     37  H   UNL     1      -9.879 -13.127  16.115  0.00  0.00    +0.000 HD
ATOM     38  H   UNL     1      -9.270 -14.172  17.437  0.00  0.00    +0.000 HD
ENDBRANCH   1  35
BRANCH  13  39
ATOM     39  C   UNL     1     -11.373  -2.458  17.877  0.00  0.00    +0.000 C 
ATOM     40  H   UNL     1     -10.927  -2.479  16.893  0.00  0.00    +0.000 HD
ATOM     41  H   UNL     1     -11.731  -1.474  18.197  0.00  0.00    +0.000 HD
ATOM     42  H   UNL     1     -12.233  -3.137  17.866  0.00  0.00    +0.000 HD
ENDBRANCH  13  39
TORSDOF 2
ENDMDL
MODEL 7
REMARK VINA RESULT:    -9.406      2.147      7.051
REMARK INTER + INTRA:          -9.956
REMARK INTER:                  -9.956
REMARK INTRA:                   0.000
REMARK UNBOUND:                 0.000
REMARK  Name = 
REMARK  2 active torsions:
REMARK  status: ('A' for Active; 'I' for Inactive)
REMARK    1  A    between atoms: C_1  and  C_2
REMARK    2  A    between atoms: N_14  and  C_15
REMARK                            x       y       z     vdW  Elec       q    Type
REMARK                         _______ _______ _______ _____ _____    ______ ____
ROOT
ATOM      1  C   UNL     1      -8.696 -11.501  16.767  0.00  0.00    +0.000 A 
ATOM      2  C   UNL     1      -8.497 -11.688  15.400  0.00  0.00    +0.000 A 
ATOM      3  C   UNL     1      -8.590 -10.623  14.516  0.00  0.00    +0.000 A 
ATOM      4  C   UNL     1      -8.891  -9.363  15.041  0.00  0.00    +0.000 A 
ATOM      5  N   UNL     1      -9.062  -8.193  14.340  0.00  0.00    +0.000 N 
ATOM      6  C   UNL     1      -9.377  -7.149  15.172  0.00  0.00    +0.000 A 
ATOM      7  C   UNL     1      -9.711  -5.809  14.898  0.00  0.00    +0.000 A 
ATOM      8  C   UNL     1      -9.811  -5.489  13.546  0.00  0.00    +0.000 A 
ATOM      9  C   UNL     1     -10.261  -4.245  13.177  0.00  0.00    +0.000 A 
ATOM     10  C   UNL     1     -10.400  -3.259  14.157  0.00  0.00    +0.000 A 
ATOM     11  C   UNL     1     -10.781  -1.909  14.004  0.00  0.00    +0.000 A 
ATOM     12  C   UNL     1     -10.139  -1.295  15.034  0.00  0.00    +0.000 A 
ATOM     13  N   UNL     1     -10.154  -2.226  16.061  0.00  0.00    +0.000 N 
ATOM     14  C   UNL     1     -10.142  -3.515  15.534  0.00  0.00    +0.000 A 
ATOM     15  C   UNL     1      -9.949  -4.876  15.974  0.00  0.00    +0.000 A 
ATOM     16  C   UNL     1      -9.953  -5.480  17.252  0.00  0.00    +0.000 A 
ATOM     17  C   UNL     1      -9.634  -6.875  17.525  0.00  0.00    +0.000 A 
ATOM     18  C   UNL     1      -9.340  -7.702  16.412  0.00  0.00    +0.000 A 
ATOM     19  C   UNL     1      -9.083  -9.098  16.406  0.00  0.00    +0.000 A 
ATOM     20  C   UNL     1      -8.985 -10.208  17.277  0.00  0.00    +0.000 A 
ATOM     21  C   UNL     1      -9.742  -7.139  18.919  0.00  0.00    +0.000 C 
ATOM     22  O   UNL     1      -9.664  -8.143  19.624  0.00  0.00    +0.000 OA
ATOM     23  N   UNL     1     -10.071  -5.913  19.440  0.00  0.00    +0.000 N 
ATOM     24  C   UNL     1     -10.380  -4.940  18.513  0.00  0.00    +0.000 C 
ATOM     25  O   UNL     1     -11.040  -3.962  18.845  0.00  0.00    +0.000 OA
ATOM     26  H   UNL     1      -8.274 -12.675  15.000  0.00  0.00    +0.000 HD
ATOM     27  H   UNL     1      -8.444 -10.774  13.449  0.00  0.00    +0.000 HD
ATOM     28  H   UNL     1      -8.977  -8.129  13.341  0.00  0.00    +0.000 HD
ATOM     29  H   UNL     1      -9.603  -6.197  12.753  0.00  0.00    +0.000 HD
ATOM     30  H   UNL     1     -10.400  -3.997  12.131  0.00  0.00    +0.000 HD
ATOM     31  H   UNL     1     -11.205  -1.427  13.138  0.00  0.00    +0.000 HD
ATOM     32  H   UNL     1      -9.886  -0.254  15.205  0.00  0.00    +0.000 HD
ATOM     33  H   UNL     1      -9.144 -10.091  18.350  0.00  0.00    +0.000 HD
ATOM     34  H   UNL     1     -10.362  -5.829  20.384  0.00  0.00    +0.000 HD
ENDROOT
BRANCH   1  35
ATOM     35  C   UNL     1      -8.608 -12.695  17.677  0.00  0.00    +0.000 C 
ATOM     36  H   UNL     1      -8.304 -13.592  17.122  0.00  0.00    +0.000 HD
ATOM     37  H   UNL     1      -9.583 -12.903  18.125  0.00  0.00    +0.000 HD
ATOM     38  H   UNL     1      -7.863 -12.526  18.458  0.00  0.00    +0.000 HD
ENDBRANCH   1  35
BRANCH  13  39
ATOM     39  C   UNL     1     -10.314  -1.686  17.392  0.00  0.00    +0.000 C 
ATOM     40  H   UNL     1     -10.005  -2.389  18.152  0.00  0.00    +0.000 HD
ATOM     41  H   UNL     1     -11.357  -1.361  17.466  0.00  0.00    +0.000 HD
ATOM     42  H   UNL     1      -9.681  -0.796  17.487  0.00  0.00    +0.000 HD
ENDBRANCH  13  39
TORSDOF 2
ENDMDL
