
 OpenBabel01112422493D

 62 69  0  0  1  0  0  0  0  0999 V2000
    2.0018   -3.8407    3.1857 C   0  0  0  0  0  0  0  0  0  0  0  0
    2.1855   -3.3009    1.8499 N   0  0  0  0  0  0  0  0  0  0  0  0
    2.2648   -1.8260    1.7985 C   0  0  2  0  0  0  0  0  0  0  0  0
    0.9645   -1.2336    2.3414 C   0  0  0  0  0  0  0  0  0  0  0  0
    0.8425    0.2558    2.1214 C   0  0  1  0  0  0  0  0  0  0  0  0
    1.6919    0.7515    1.0845 O   0  0  0  0  0  0  0  0  0  0  0  0
    1.7821   -0.1236   -0.0772 C   0  0  1  0  0  0  0  0  0  0  0  0
    2.4136    0.8052   -1.1439 C   0  0  0  0  0  0  0  0  0  0  0  0
    2.7106   -1.2827    0.3740 C   0  0  2  0  0  0  0  0  0  0  0  0
    2.9535   -2.3721   -0.5318 O   0  0  0  0  0  0  0  0  0  0  0  0
    3.5125   -2.0357   -1.7927 C   0  0  0  0  0  0  0  0  0  0  0  0
    0.4318   -0.5140   -0.5069 N   0  0  0  0  0  0  0  0  0  0  0  0
    0.0548   -1.2218   -1.6599 C   0  0  0  0  0  0  0  0  0  0  0  0
    0.2999   -2.5651   -1.9761 C   0  0  0  0  0  0  0  0  0  0  0  0
   -0.0095   -3.0092   -3.2552 C   0  0  0  0  0  0  0  0  0  0  0  0
   -0.5603   -2.1405   -4.1932 C   0  0  0  0  0  0  0  0  0  0  0  0
   -0.9785   -0.8477   -3.8332 C   0  0  0  0  0  0  0  0  0  0  0  0
   -0.7735   -0.3906   -2.5140 C   0  0  0  0  0  0  0  0  0  0  0  0
   -1.2684    0.6614   -1.6879 C   0  0  0  0  0  0  0  0  0  0  0  0
   -2.3435    1.5418   -1.8764 C   0  0  0  0  0  0  0  0  0  0  0  0
   -2.8349    2.1481   -0.6749 C   0  0  0  0  0  0  0  0  0  0  0  0
   -2.1115    1.8077    0.4879 C   0  0  0  0  0  0  0  0  0  0  0  0
   -2.2324    2.2149    1.8444 C   0  0  0  0  0  0  0  0  0  0  0  0
   -2.7932    3.2874    2.5599 C   0  0  0  0  0  0  0  0  0  0  0  0
   -2.7114    3.3021    3.9638 C   0  0  0  0  0  0  0  0  0  0  0  0
   -2.2147    2.2181    4.6792 C   0  0  0  0  0  0  0  0  0  0  0  0
   -1.5775    1.1733    4.0216 C   0  0  0  0  0  0  0  0  0  0  0  0
   -1.4362    1.2904    2.6388 C   0  0  0  0  0  0  0  0  0  0  0  0
   -0.5203    0.6417    1.8183 N   0  0  0  0  0  0  0  0  0  0  0  0
   -1.0324    0.9509    0.6260 C   0  0  0  0  0  0  0  0  0  0  0  0
   -0.5640    0.3873   -0.5336 C   0  0  0  0  0  0  0  0  0  0  0  0
   -4.0049    2.8919   -0.9886 C   0  0  0  0  0  0  0  0  0  0  0  0
   -4.8274    3.4885   -0.3096 O   0  0  0  0  0  0  0  0  0  0  0  0
   -4.0614    2.8310   -2.3810 N   0  0  0  0  0  0  0  0  0  0  0  0
   -3.1172    1.9583   -3.0356 C   0  0  1  0  0  0  0  0  0  0  0  0
   -2.3810    2.7573   -3.9265 O   0  0  0  0  0  0  0  0  0  0  0  0
    2.7593   -3.4725    3.8851 H   0  0  0  0  0  0  0  0  0  0  0  0
    1.0042   -3.5988    3.5788 H   0  0  0  0  0  0  0  0  0  0  0  0
    2.0627   -4.9298    3.1566 H   0  0  0  0  0  0  0  0  0  0  0  0
    3.0126   -3.6944    1.3963 H   0  0  0  0  0  0  0  0  0  0  0  0
    3.0707   -1.5131    2.4814 H   0  0  0  0  0  0  0  0  0  0  0  0
    0.8707   -1.4142    3.4197 H   0  0  0  0  0  0  0  0  0  0  0  0
    0.1057   -1.7584    1.8930 H   0  0  0  0  0  0  0  0  0  0  0  0
    1.1314    0.7976    3.0283 H   0  0  0  0  0  0  0  0  0  0  0  0
    1.8790    1.7647   -1.1867 H   0  0  0  0  0  0  0  0  0  0  0  0
    2.3901    0.3947   -2.1553 H   0  0  0  0  0  0  0  0  0  0  0  0
    3.4479    1.0562   -0.8862 H   0  0  0  0  0  0  0  0  0  0  0  0
    3.7059   -0.8418    0.5516 H   0  0  0  0  0  0  0  0  0  0  0  0
    3.9221   -2.9469   -2.2349 H   0  0  0  0  0  0  0  0  0  0  0  0
    2.7439   -1.6754   -2.4808 H   0  0  0  0  0  0  0  0  0  0  0  0
    4.3084   -1.2941   -1.7037 H   0  0  0  0  0  0  0  0  0  0  0  0
    0.7307   -3.2428   -1.2406 H   0  0  0  0  0  0  0  0  0  0  0  0
    0.2061   -4.0425   -3.5192 H   0  0  0  0  0  0  0  0  0  0  0  0
   -0.7201   -2.4955   -5.2076 H   0  0  0  0  0  0  0  0  0  0  0  0
   -1.4815   -0.2255   -4.5673 H   0  0  0  0  0  0  0  0  0  0  0  0
   -3.2169    4.1354    2.0303 H   0  0  0  0  0  0  0  0  0  0  0  0
   -3.0527    4.1772    4.5116 H   0  0  0  0  0  0  0  0  0  0  0  0
   -2.2634    2.1983    5.7616 H   0  0  0  0  0  0  0  0  0  0  0  0
   -1.1546    0.3352    4.5642 H   0  0  0  0  0  0  0  0  0  0  0  0
   -4.6580    3.4640   -2.8881 H   0  0  0  0  0  0  0  0  0  0  0  0
   -3.6296    1.1428   -3.5507 H   0  0  0  0  0  0  0  0  0  0  0  0
   -1.8074    3.3174   -3.3773 H   0  0  0  0  0  0  0  0  0  0  0  0
  1  2  1  0  0  0  0
  1 37  1  0  0  0  0
  1 38  1  0  0  0  0
  1 39  1  0  0  0  0
  2  3  1  0  0  0  0
  2 40  1  0  0  0  0
  3  4  1  0  0  0  0
  3  9  1  0  0  0  0
  3 41  1  1  0  0  0
  4  5  1  0  0  0  0
  4 42  1  0  0  0  0
  4 43  1  0  0  0  0
  5  6  1  0  0  0  0
  5 29  1  0  0  0  0
  5 44  1  1  0  0  0
  6  7  1  0  0  0  0
  7  8  1  6  0  0  0
  7  9  1  0  0  0  0
  7 12  1  0  0  0  0
  8 45  1  0  0  0  0
  8 46  1  0  0  0  0
  8 47  1  0  0  0  0
  9 10  1  0  0  0  0
  9 48  1  1  0  0  0
 10 11  1  0  0  0  0
 11 49  1  0  0  0  0
 11 50  1  0  0  0  0
 11 51  1  0  0  0  0
 12 13  1  0  0  0  0
 12 31  1  0  0  0  0
 13 14  1  0  0  0  0
 13 18  2  0  0  0  0
 14 15  2  0  0  0  0
 14 52  1  0  0  0  0
 15 16  1  0  0  0  0
 15 53  1  0  0  0  0
 16 17  2  0  0  0  0
 16 54  1  0  0  0  0
 17 18  1  0  0  0  0
 17 55  1  0  0  0  0
 18 19  1  0  0  0  0
 19 20  1  0  0  0  0
 19 31  2  0  0  0  0
 20 21  2  0  0  0  0
 20 35  1  0  0  0  0
 21 22  1  0  0  0  0
 21 32  1  0  0  0  0
 22 23  1  0  0  0  0
 22 30  2  0  0  0  0
 23 24  1  0  0  0  0
 23 28  2  0  0  0  0
 24 25  2  0  0  0  0
 24 56  1  0  0  0  0
 25 26  1  0  0  0  0
 25 57  1  0  0  0  0
 26 27  2  0  0  0  0
 26 58  1  0  0  0  0
 27 28  1  0  0  0  0
 27 59  1  0  0  0  0
 28 29  1  0  0  0  0
 29 30  1  0  0  0  0
 30 31  1  0  0  0  0
 32 33  2  0  0  0  0
 32 34  1  0  0  0  0
 34 35  1  0  0  0  0
 34 60  1  0  0  0  0
 35 36  1  0  0  0  0
 35 61  1  6  0  0  0
 36 62  1  0  0  0  0
M  END
$$$$
