REMARK  Name = 
REMARK  6 active torsions:
REMARK  status: ('A' for Active; 'I' for Inactive)
REMARK    1  A    between atoms: C_1  and  C_2
REMARK    2  A    between atoms: C_2  and  N_3
REMARK    3  A    between atoms: N_8  and  C_9
REMARK    4  A    between atoms: N_18  and  C_19
REMARK    5  A    between atoms: C_19  and  C_20
REMARK    6  A    between atoms: C_20  and  N_21
REMARK                            x       y       z     vdW  Elec       q    Type
REMARK                         _______ _______ _______ _____ _____    ______ ____
ROOT
ATOM      1  N   UNL     1      -1.758   0.287  -2.135  0.00  0.00    +0.000 N 
ATOM      2  C   UNL     1      -1.867  -1.074  -2.047  0.00  0.00    +0.000 A 
ATOM      3  N   UNL     1      -1.472  -1.517  -0.877  0.00  0.00    +0.000 NA
ATOM      4  C   UNL     1      -1.096  -0.388  -0.176  0.00  0.00    +0.000 A 
ATOM      5  C   UNL     1      -0.627  -0.193   1.135  0.00  0.00    +0.000 A 
ATOM      6  N   UNL     1      -0.428  -1.241   2.041  0.00  0.00    +0.000 N 
ATOM      7  N   UNL     1      -0.401   1.085   1.543  0.00  0.00    +0.000 NA
ATOM      8  C   UNL     1      -0.545   2.107   0.671  0.00  0.00    +0.000 A 
ATOM      9  N   UNL     1      -0.196   3.390   1.061  0.00  0.00    +0.000 N 
ATOM     10  N   UNL     1      -0.971   2.010  -0.601  0.00  0.00    +0.000 NA
ATOM     11  C   UNL     1      -1.252   0.746  -0.951  0.00  0.00    +0.000 A 
ATOM     12  H   UNL     1      -2.243  -1.690  -2.855  0.00  0.00    +0.000 HD
ATOM     13  H   UNL     1      -0.475  -0.949   3.006  0.00  0.00    +0.000 HD
ATOM     14  H   UNL     1      -0.077   3.951   0.226  0.00  0.00    +0.000 HD
ENDROOT
BRANCH   6  15
ATOM     15  C   UNL     1       0.073  -2.529   1.786  0.00  0.00    +0.000 A 
ATOM     16  C   UNL     1      -0.356  -3.602   2.577  0.00  0.00    +0.000 A 
ATOM     17  C   UNL     1       0.049  -4.911   2.293  0.00  0.00    +0.000 A 
ATOM     18  C   UNL     1       0.899  -5.162   1.218  0.00  0.00    +0.000 A 
ATOM     19  C   UNL     1       1.335  -4.105   0.428  0.00  0.00    +0.000 A 
ATOM     20 CL   UNL     1       2.385  -4.405  -0.904  0.00  0.00    +0.000 Cl
ATOM     21  C   UNL     1       0.923  -2.801   0.703  0.00  0.00    +0.000 A 
ATOM     22  H   UNL     1      -1.046  -3.429   3.398  0.00  0.00    +0.000 HD
ATOM     23  H   UNL     1      -0.315  -5.735   2.901  0.00  0.00    +0.000 HD
ATOM     24  H   UNL     1       1.207  -6.180   0.993  0.00  0.00    +0.000 HD
ATOM     25  H   UNL     1       1.272  -1.994   0.065  0.00  0.00    +0.000 HD
ENDBRANCH   6  15
BRANCH   1  26
ATOM     26  C   UNL     1      -2.172   1.084  -3.266  0.00  0.00    +0.000 C 
ATOM     27  H   UNL     1      -3.045   0.592  -3.711  0.00  0.00    +0.000 HD
ATOM     28  H   UNL     1      -2.497   2.062  -2.898  0.00  0.00    +0.000 HD
BRANCH  26  29
ATOM     29  C   UNL     1      -1.070   1.232  -4.298  0.00  0.00    +0.000 C 
ATOM     30  H   UNL     1      -1.427   1.814  -5.153  0.00  0.00    +0.000 HD
ATOM     31  H   UNL     1      -0.738   0.255  -4.665  0.00  0.00    +0.000 HD
ATOM     32  H   UNL     1      -0.199   1.742  -3.873  0.00  0.00    +0.000 HD
ENDBRANCH  26  29
ENDBRANCH   1  26
BRANCH   9  33
ATOM     33  C   UNL     1       0.876   3.523   2.042  0.00  0.00    +0.000 C 
ATOM     34  H   UNL     1       0.607   3.030   2.983  0.00  0.00    +0.000 HD
ATOM     35  H   UNL     1       0.977   4.591   2.276  0.00  0.00    +0.000 HD
BRANCH  33  36
ATOM     36  C   UNL     1       2.237   3.000   1.536  0.00  0.00    +0.000 C 
ATOM     37  H   UNL     1       2.195   1.919   1.366  0.00  0.00    +0.000 HD
ATOM     38  H   UNL     1       2.992   3.174   2.310  0.00  0.00    +0.000 HD
BRANCH  36  39
ATOM     39  N   UNL     1       2.677   3.652   0.294  0.00  0.00    +0.000 NA
ATOM     40  H   UNL     1       2.010   3.427  -0.444  0.00  0.00    +0.000 HD
ATOM     41  H   UNL     1       3.560   3.233   0.002  0.00  0.00    +0.000 HD
ENDBRANCH  36  39
ENDBRANCH  33  36
ENDBRANCH   9  33
TORSDOF 6
