
 OpenBabel01112422213D

 76 83  0  0  1  0  0  0  0  0999 V2000
    0.1712   -0.7841    2.7429 C   0  0  0  0  0  0  0  0  0  0  0  0
    0.4215   -0.6753    1.3445 O   0  0  0  0  0  0  0  0  0  0  0  0
    0.8514    0.6363    0.9419 C   0  0  1  0  0  0  0  0  0  0  0  0
    1.5225    0.5120   -0.4718 C   0  0  1  0  0  0  0  0  0  0  0  0
    2.5882   -0.5020   -0.5733 N   0  0  0  0  0  0  0  0  0  0  0  0
    2.2370   -1.8318   -1.0599 C   0  0  0  0  0  0  0  0  0  0  0  0
    3.9189   -0.1073   -0.5384 C   0  0  0  0  0  0  0  0  0  0  0  0
    4.2975    0.9888   -0.1667 O   0  0  0  0  0  0  0  0  0  0  0  0
    4.7250   -1.0817   -1.0367 O   0  0  0  0  0  0  0  0  0  0  0  0
    6.1403   -0.8835   -1.2637 C   0  0  0  0  0  0  0  0  0  0  0  0
    6.8841   -0.7624    0.0661 C   0  0  0  0  0  0  0  0  0  0  0  0
    6.5960   -2.1677   -1.9735 C   0  0  0  0  0  0  0  0  0  0  0  0
    6.4059    0.3075   -2.1902 C   0  0  0  0  0  0  0  0  0  0  0  0
    0.5280    0.3626   -1.6385 C   0  0  0  0  0  0  0  0  0  0  0  0
   -0.8875    0.6780   -1.2497 C   0  0  2  0  0  0  0  0  0  0  0  0
   -0.7315    1.9176   -0.5052 O   0  0  0  0  0  0  0  0  0  0  0  0
   -0.2976    1.7136    0.8822 C   0  0  2  0  0  0  0  0  0  0  0  0
    0.2838    3.1014    1.2406 C   0  0  0  0  0  0  0  0  0  0  0  0
   -1.5522    1.4412    1.6505 N   0  0  0  0  0  0  0  0  0  0  0  0
   -2.0611    2.2760    2.6853 C   0  0  0  0  0  0  0  0  0  0  0  0
   -1.5948    2.4346    3.9935 C   0  0  0  0  0  0  0  0  0  0  0  0
   -2.2173    3.3884    4.8013 C   0  0  0  0  0  0  0  0  0  0  0  0
   -3.2227    4.2074    4.2983 C   0  0  0  0  0  0  0  0  0  0  0  0
   -3.7004    4.0625    2.9834 C   0  0  0  0  0  0  0  0  0  0  0  0
   -3.1933    3.0319    2.1754 C   0  0  0  0  0  0  0  0  0  0  0  0
   -3.6332    2.4048    0.9690 C   0  0  0  0  0  0  0  0  0  0  0  0
   -4.2735    2.9399   -0.1626 C   0  0  0  0  0  0  0  0  0  0  0  0
   -4.4711    2.0223   -1.2387 C   0  0  0  0  0  0  0  0  0  0  0  0
   -3.9367    0.7430   -0.9822 C   0  0  0  0  0  0  0  0  0  0  0  0
   -3.5713   -0.1768   -2.0588 C   0  0  0  0  0  0  0  0  0  0  0  0
   -4.3985   -0.7564   -3.0337 C   0  0  0  0  0  0  0  0  0  0  0  0
   -5.2590   -1.7112   -2.5083 C   0  0  0  0  0  0  0  0  0  0  0  0
   -4.9098   -2.3615   -1.3235 C   0  0  0  0  0  0  0  0  0  0  0  0
   -3.6210   -2.1879   -0.7515 C   0  0  0  0  0  0  0  0  0  0  0  0
   -2.8067   -1.1189   -1.2621 C   0  0  0  0  0  0  0  0  0  0  0  0
   -1.8386   -0.2589   -0.5697 N   0  0  0  0  0  0  0  0  0  0  0  0
   -2.8738    0.4704   -0.0766 C   0  0  0  0  0  0  0  0  0  0  0  0
   -2.7177    1.3377    0.9541 C   0  0  0  0  0  0  0  0  0  0  0  0
   -4.5273    2.6877   -2.5072 C   0  0  0  0  0  0  0  0  0  0  0  0
   -4.6259    2.3283   -3.6764 O   0  0  0  0  0  0  0  0  0  0  0  0
   -4.1152    3.9926   -2.1739 N   0  0  0  0  0  0  0  0  0  0  0  0
   -4.1206    4.2973   -0.7364 C   0  0  0  0  0  0  0  0  0  0  0  0
    0.5321   -1.7556    3.0877 H   0  0  0  0  0  0  0  0  0  0  0  0
   -0.9061   -0.7464    2.9158 H   0  0  0  0  0  0  0  0  0  0  0  0
    0.6693   -0.0023    3.3273 H   0  0  0  0  0  0  0  0  0  0  0  0
    1.6267    0.9617    1.6488 H   0  0  0  0  0  0  0  0  0  0  0  0
    2.0140    1.4870   -0.6245 H   0  0  0  0  0  0  0  0  0  0  0  0
    1.2044   -2.0747   -0.8078 H   0  0  0  0  0  0  0  0  0  0  0  0
    2.8929   -2.5873   -0.6238 H   0  0  0  0  0  0  0  0  0  0  0  0
    2.3698   -1.8382   -2.1484 H   0  0  0  0  0  0  0  0  0  0  0  0
    6.7156   -1.6508    0.6847 H   0  0  0  0  0  0  0  0  0  0  0  0
    6.5327    0.0931    0.6522 H   0  0  0  0  0  0  0  0  0  0  0  0
    7.9618   -0.6482   -0.0893 H   0  0  0  0  0  0  0  0  0  0  0  0
    6.0625   -2.3005   -2.9225 H   0  0  0  0  0  0  0  0  0  0  0  0
    6.3656   -3.0520   -1.3678 H   0  0  0  0  0  0  0  0  0  0  0  0
    7.6712   -2.1595   -2.1790 H   0  0  0  0  0  0  0  0  0  0  0  0
    5.7199    0.2986   -3.0460 H   0  0  0  0  0  0  0  0  0  0  0  0
    7.4332    0.2955   -2.5695 H   0  0  0  0  0  0  0  0  0  0  0  0
    6.2615    1.2632   -1.6766 H   0  0  0  0  0  0  0  0  0  0  0  0
    0.5833   -0.5407   -2.2440 H   0  0  0  0  0  0  0  0  0  0  0  0
    0.8239    1.1640   -2.3400 H   0  0  0  0  0  0  0  0  0  0  0  0
   -1.3793    0.9693   -2.1818 H   0  0  0  0  0  0  0  0  0  0  0  0
    1.2136    3.2884    0.6916 H   0  0  0  0  0  0  0  0  0  0  0  0
    0.5077    3.1982    2.3062 H   0  0  0  0  0  0  0  0  0  0  0  0
   -0.3999    3.9100    0.9503 H   0  0  0  0  0  0  0  0  0  0  0  0
   -0.7985    1.8138    4.3893 H   0  0  0  0  0  0  0  0  0  0  0  0
   -1.9087    3.4850    5.8420 H   0  0  0  0  0  0  0  0  0  0  0  0
   -3.6814    4.9454    4.9545 H   0  0  0  0  0  0  0  0  0  0  0  0
   -4.5500    4.6576    2.6580 H   0  0  0  0  0  0  0  0  0  0  0  0
   -4.5786   -0.2728   -3.9855 H   0  0  0  0  0  0  0  0  0  0  0  0
   -6.2019   -1.9124   -3.0103 H   0  0  0  0  0  0  0  0  0  0  0  0
   -5.6600   -2.9739   -0.8240 H   0  0  0  0  0  0  0  0  0  0  0  0
   -3.4002   -2.6492    0.2093 H   0  0  0  0  0  0  0  0  0  0  0  0
   -3.2566    4.1864   -2.6845 H   0  0  0  0  0  0  0  0  0  0  0  0
   -4.9769    4.9320   -0.5349 H   0  0  0  0  0  0  0  0  0  0  0  0
   -3.1664    4.7555   -0.4717 H   0  0  0  0  0  0  0  0  0  0  0  0
  1  2  1  0  0  0  0
  1 43  1  0  0  0  0
  1 44  1  0  0  0  0
  1 45  1  0  0  0  0
  3  4  1  0  0  0  0
  3 17  1  0  0  0  0
  3  2  1  0  0  0  0
  3 46  1  1  0  0  0
  4 14  1  0  0  0  0
  4  5  1  0  0  0  0
  4 47  1  6  0  0  0
  5  6  1  0  0  0  0
  5  7  1  0  0  0  0
  6 48  1  0  0  0  0
  6 49  1  0  0  0  0
  6 50  1  0  0  0  0
  7  8  2  0  0  0  0
  7  9  1  0  0  0  0
  9 10  1  0  0  0  0
 10 11  1  0  0  0  0
 10 12  1  0  0  0  0
 10 13  1  0  0  0  0
 11 51  1  0  0  0  0
 11 52  1  0  0  0  0
 11 53  1  0  0  0  0
 12 54  1  0  0  0  0
 12 55  1  0  0  0  0
 12 56  1  0  0  0  0
 13 57  1  0  0  0  0
 13 58  1  0  0  0  0
 13 59  1  0  0  0  0
 14 15  1  0  0  0  0
 14 60  1  0  0  0  0
 14 61  1  0  0  0  0
 15 16  1  0  0  0  0
 15 36  1  0  0  0  0
 15 62  1  6  0  0  0
 16 17  1  0  0  0  0
 17 19  1  0  0  0  0
 17 18  1  1  0  0  0
 18 63  1  0  0  0  0
 18 64  1  0  0  0  0
 18 65  1  0  0  0  0
 19 20  1  0  0  0  0
 19 38  1  0  0  0  0
 20 21  1  0  0  0  0
 20 25  2  0  0  0  0
 21 22  2  0  0  0  0
 21 66  1  0  0  0  0
 22 23  1  0  0  0  0
 22 67  1  0  0  0  0
 23 24  2  0  0  0  0
 23 68  1  0  0  0  0
 24 25  1  0  0  0  0
 24 69  1  0  0  0  0
 25 26  1  0  0  0  0
 26 27  1  0  0  0  0
 26 38  2  0  0  0  0
 27 28  2  0  0  0  0
 27 42  1  0  0  0  0
 28 29  1  0  0  0  0
 28 39  1  0  0  0  0
 29 30  1  0  0  0  0
 29 37  2  0  0  0  0
 30 31  1  0  0  0  0
 30 35  2  0  0  0  0
 31 32  2  0  0  0  0
 31 70  1  0  0  0  0
 32 33  1  0  0  0  0
 32 71  1  0  0  0  0
 33 34  2  0  0  0  0
 33 72  1  0  0  0  0
 34 35  1  0  0  0  0
 34 73  1  0  0  0  0
 35 36  1  0  0  0  0
 36 37  1  0  0  0  0
 37 38  1  0  0  0  0
 39 41  1  0  0  0  0
 39 40  2  0  0  0  0
 41 42  1  0  0  0  0
 41 74  1  0  0  0  0
 42 75  1  0  0  0  0
 42 76  1  0  0  0  0
M  END
$$$$
