MODEL 1
REMARK VINA RESULT:   -10.163      0.000      0.000
REMARK INTER + INTRA:         -13.905
REMARK INTER:                 -13.430
REMARK INTRA:                  -0.475
REMARK UNBOUND:                -0.475
REMARK  Name = 
REMARK  7 active torsions:
REMARK  status: ('A' for Active; 'I' for Inactive)
REMARK    1  A    between atoms: C_1  and  N_2
REMARK    2  A    between atoms: N_2  and  C_3
REMARK    3  A    between atoms: N_2  and  C_4
REMARK    4  A    between atoms: C_4  and  C_5
REMARK    5  A    between atoms: C_10  and  C_11
REMARK    6  A    between atoms: C_12  and  C_13
REMARK    7  A    between atoms: N_15  and  C_16
REMARK                            x       y       z     vdW  Elec       q    Type
REMARK                         _______ _______ _______ _____ _____    ______ ____
ROOT
ATOM      1  C   UNL     1      -8.822  -2.134  22.712  0.00  0.00    +0.000 C 
ATOM      2  C   UNL     1      -7.349  -1.701  22.793  0.00  0.00    +0.000 C 
ATOM      3  C   UNL     1      -6.421  -2.848  22.409  0.00  0.00    +0.000 C 
ATOM      4  N   UNL     1      -6.865  -3.539  21.207  0.00  0.00    +0.000 N 
ATOM      5  C   UNL     1      -8.131  -3.425  20.668  0.00  0.00    +0.000 A 
ATOM      6  C   UNL     1      -8.183  -4.279  19.581  0.00  0.00    +0.000 A 
ATOM      7  C   UNL     1      -6.924  -4.937  19.471  0.00  0.00    +0.000 A 
ATOM      8  C   UNL     1      -6.382  -5.899  18.594  0.00  0.00    +0.000 A 
ATOM      9  C   UNL     1      -5.102  -6.410  18.827  0.00  0.00    +0.000 A 
ATOM     10  C   UNL     1      -4.350  -5.972  19.913  0.00  0.00    +0.000 A 
ATOM     11  C   UNL     1      -4.849  -5.001  20.782  0.00  0.00    +0.000 A 
ATOM     12  C   UNL     1      -6.133  -4.489  20.533  0.00  0.00    +0.000 A 
ATOM     13  C   UNL     1      -9.153  -2.506  21.256  0.00  0.00    +0.000 C 
ATOM     14  H   UNL     1      -9.444  -1.266  22.956  0.00  0.00    +0.000 HD
ATOM     15  H   UNL     1      -7.101  -1.338  23.795  0.00  0.00    +0.000 HD
ATOM     16  H   UNL     1      -7.189  -0.861  22.107  0.00  0.00    +0.000 HD
ATOM     17  H   UNL     1      -6.374  -3.600  23.206  0.00  0.00    +0.000 HD
ATOM     18  H   UNL     1      -5.410  -2.470  22.230  0.00  0.00    +0.000 HD
ATOM     19  H   UNL     1      -6.961  -6.261  17.748  0.00  0.00    +0.000 HD
ATOM     20  H   UNL     1      -4.696  -7.167  18.160  0.00  0.00    +0.000 HD
ATOM     21  H   UNL     1      -3.361  -6.390  20.088  0.00  0.00    +0.000 HD
ATOM     22  H   UNL     1      -4.258  -4.666  21.630  0.00  0.00    +0.000 HD
ATOM     23  H   UNL     1     -10.151  -2.956  21.195  0.00  0.00    +0.000 HD
ATOM     24  H   UNL     1      -9.186  -1.588  20.654  0.00  0.00    +0.000 HD
ENDROOT
BRANCH   6  25
ATOM     25  C   UNL     1      -9.331  -4.481  18.767  0.00  0.00    +0.000 C 
ATOM     26  C   UNL     1      -9.927  -5.624  18.411  0.00  0.00    +0.000 C 
ATOM     27  C   UNL     1     -11.069  -5.279  17.534  0.00  0.00    +0.000 C 
ATOM     28  O   UNL     1     -11.824  -6.054  16.970  0.00  0.00    +0.000 OA
ATOM     29  N   UNL     1     -11.102  -3.934  17.442  0.00  0.00    +0.000 N 
ATOM     30  C   UNL     1     -10.083  -3.380  18.141  0.00  0.00    +0.000 C 
ATOM     31  O   UNL     1      -9.840  -2.184  18.208  0.00  0.00    +0.000 OA
ATOM     32  H   UNL     1     -11.772  -3.419  16.895  0.00  0.00    +0.000 HD
BRANCH  26  33
ATOM     33  C   UNL     1      -9.595  -6.957  18.760  0.00  0.00    +0.000 A 
ATOM     34  C   UNL     1      -9.302  -7.377  20.034  0.00  0.00    +0.000 A 
ATOM     35  N   UNL     1      -8.955  -8.703  19.962  0.00  0.00    +0.000 N 
ATOM     36  C   UNL     1      -9.032  -9.151  18.658  0.00  0.00    +0.000 A 
ATOM     37  C   UNL     1      -8.748 -10.405  18.096  0.00  0.00    +0.000 A 
ATOM     38  C   UNL     1      -8.896 -10.555  16.713  0.00  0.00    +0.000 A 
ATOM     39  C   UNL     1      -9.316  -9.493  15.919  0.00  0.00    +0.000 A 
ATOM     40  C   UNL     1      -9.602  -8.247  16.489  0.00  0.00    +0.000 A 
ATOM     41  C   UNL     1      -9.450  -8.065  17.879  0.00  0.00    +0.000 A 
ATOM     42  H   UNL     1      -9.276  -6.843  20.974  0.00  0.00    +0.000 HD
ATOM     43  H   UNL     1      -8.410 -11.238  18.704  0.00  0.00    +0.000 HD
ATOM     44  H   UNL     1      -8.675 -11.515  16.252  0.00  0.00    +0.000 HD
ATOM     45  H   UNL     1      -9.418  -9.627  14.844  0.00  0.00    +0.000 HD
ATOM     46  H   UNL     1      -9.919  -7.426  15.856  0.00  0.00    +0.000 HD
BRANCH  35  47
ATOM     47  C   UNL     1      -8.512  -9.493  21.089  0.00  0.00    +0.000 C 
ATOM     48  H   UNL     1      -9.339  -9.622  21.793  0.00  0.00    +0.000 HD
ATOM     49  H   UNL     1      -7.691  -8.966  21.582  0.00  0.00    +0.000 HD
ATOM     50  H   UNL     1      -8.185 -10.468  20.721  0.00  0.00    +0.000 HD
ENDBRANCH  35  47
ENDBRANCH  26  33
ENDBRANCH   6  25
BRANCH   1  51
ATOM     51  C   UNL     1      -9.160  -3.297  23.688  0.00  0.00    +0.000 C 
ATOM     52  H   UNL     1      -9.553  -4.145  23.110  0.00  0.00    +0.000 HD
ATOM     53  H   UNL     1      -8.241  -3.653  24.166  0.00  0.00    +0.000 HD
BRANCH  51  54
ATOM     54  N   UNL     1     -10.137  -2.921  24.733  0.00  0.00    +0.000 NA
BRANCH  54  55
ATOM     55  C   UNL     1      -9.618  -1.808  25.533  0.00  0.00    +0.000 C 
ATOM     56  H   UNL     1      -8.843  -2.153  26.225  0.00  0.00    +0.000 HD
ATOM     57  H   UNL     1     -10.409  -1.309  26.105  0.00  0.00    +0.000 HD
ATOM     58  H   UNL     1      -9.130  -1.065  24.899  0.00  0.00    +0.000 HD
ENDBRANCH  54  55
BRANCH  54  59
ATOM     59  C   UNL     1     -11.417  -2.531  24.129  0.00  0.00    +0.000 C 
ATOM     60  H   UNL     1     -11.559  -1.447  24.200  0.00  0.00    +0.000 HD
ATOM     61  H   UNL     1     -12.260  -2.986  24.662  0.00  0.00    +0.000 HD
ATOM     62  H   UNL     1     -11.484  -2.811  23.071  0.00  0.00    +0.000 HD
ENDBRANCH  54  59
ENDBRANCH  51  54
ENDBRANCH   1  51
TORSDOF 7
ENDMDL
MODEL 2
REMARK VINA RESULT:    -8.811      2.415      4.782
REMARK INTER + INTRA:         -12.119
REMARK INTER:                 -10.922
REMARK INTRA:                  -1.197
REMARK UNBOUND:                -0.475
REMARK  Name = 
REMARK  7 active torsions:
REMARK  status: ('A' for Active; 'I' for Inactive)
REMARK    1  A    between atoms: C_1  and  N_2
REMARK    2  A    between atoms: N_2  and  C_3
REMARK    3  A    between atoms: N_2  and  C_4
REMARK    4  A    between atoms: C_4  and  C_5
REMARK    5  A    between atoms: C_10  and  C_11
REMARK    6  A    between atoms: C_12  and  C_13
REMARK    7  A    between atoms: N_15  and  C_16
REMARK                            x       y       z     vdW  Elec       q    Type
REMARK                         _______ _______ _______ _____ _____    ______ ____
ROOT
ATOM      1  C   UNL     1     -11.707  -1.120  22.431  0.00  0.00    +0.000 C 
ATOM      2  C   UNL     1     -12.061   0.321  22.028  0.00  0.00    +0.000 C 
ATOM      3  C   UNL     1     -11.044   0.877  21.037  0.00  0.00    +0.000 C 
ATOM      4  N   UNL     1     -10.730  -0.072  19.979  0.00  0.00    +0.000 N 
ATOM      5  C   UNL     1     -11.023  -1.421  20.030  0.00  0.00    +0.000 A 
ATOM      6  C   UNL     1     -10.510  -1.988  18.879  0.00  0.00    +0.000 A 
ATOM      7  C   UNL     1      -9.876  -0.961  18.120  0.00  0.00    +0.000 A 
ATOM      8  C   UNL     1      -9.185  -0.920  16.892  0.00  0.00    +0.000 A 
ATOM      9  C   UNL     1      -8.595   0.274  16.465  0.00  0.00    +0.000 A 
ATOM     10  C   UNL     1      -8.692   1.428  17.236  0.00  0.00    +0.000 A 
ATOM     11  C   UNL     1      -9.393   1.424  18.443  0.00  0.00    +0.000 A 
ATOM     12  C   UNL     1      -9.988   0.221  18.857  0.00  0.00    +0.000 A 
ATOM     13  C   UNL     1     -11.767  -2.016  21.183  0.00  0.00    +0.000 C 
ATOM     14  H   UNL     1     -12.487  -1.483  23.108  0.00  0.00    +0.000 HD
ATOM     15  H   UNL     1     -12.122   0.972  22.906  0.00  0.00    +0.000 HD
ATOM     16  H   UNL     1     -13.055   0.325  21.565  0.00  0.00    +0.000 HD
ATOM     17  H   UNL     1     -10.098   1.116  21.537  0.00  0.00    +0.000 HD
ATOM     18  H   UNL     1     -11.431   1.788  20.573  0.00  0.00    +0.000 HD
ATOM     19  H   UNL     1      -9.090  -1.815  16.283  0.00  0.00    +0.000 HD
ATOM     20  H   UNL     1      -8.046   0.296  15.527  0.00  0.00    +0.000 HD
ATOM     21  H   UNL     1      -8.216   2.345  16.897  0.00  0.00    +0.000 HD
ATOM     22  H   UNL     1      -9.462   2.328  19.042  0.00  0.00    +0.000 HD
ATOM     23  H   UNL     1     -11.379  -3.015  21.412  0.00  0.00    +0.000 HD
ATOM     24  H   UNL     1     -12.817  -2.148  20.890  0.00  0.00    +0.000 HD
ENDROOT
BRANCH   6  25
ATOM     25  C   UNL     1     -10.574  -3.373  18.563  0.00  0.00    +0.000 C 
ATOM     26  C   UNL     1      -9.760  -4.365  18.937  0.00  0.00    +0.000 C 
ATOM     27  C   UNL     1     -10.259  -5.612  18.313  0.00  0.00    +0.000 C 
ATOM     28  O   UNL     1      -9.755  -6.721  18.378  0.00  0.00    +0.000 OA
ATOM     29  N   UNL     1     -11.369  -5.288  17.620  0.00  0.00    +0.000 N 
ATOM     30  C   UNL     1     -11.618  -3.960  17.706  0.00  0.00    +0.000 C 
ATOM     31  O   UNL     1     -12.536  -3.375  17.149  0.00  0.00    +0.000 OA
ATOM     32  H   UNL     1     -11.913  -5.942  17.080  0.00  0.00    +0.000 HD
BRANCH  26  33
ATOM     33  C   UNL     1      -8.614  -4.323  19.770  0.00  0.00    +0.000 A 
ATOM     34  C   UNL     1      -8.531  -3.615  20.943  0.00  0.00    +0.000 A 
ATOM     35  N   UNL     1      -7.252  -3.752  21.419  0.00  0.00    +0.000 N 
ATOM     36  C   UNL     1      -6.506  -4.550  20.574  0.00  0.00    +0.000 A 
ATOM     37  C   UNL     1      -5.160  -4.945  20.627  0.00  0.00    +0.000 A 
ATOM     38  C   UNL     1      -4.670  -5.751  19.595  0.00  0.00    +0.000 A 
ATOM     39  C   UNL     1      -5.494  -6.153  18.548  0.00  0.00    +0.000 A 
ATOM     40  C   UNL     1      -6.835  -5.760  18.506  0.00  0.00    +0.000 A 
ATOM     41  C   UNL     1      -7.353  -4.937  19.528  0.00  0.00    +0.000 A 
ATOM     42  H   UNL     1      -9.257  -3.001  21.459  0.00  0.00    +0.000 HD
ATOM     43  H   UNL     1      -4.506  -4.629  21.433  0.00  0.00    +0.000 HD
ATOM     44  H   UNL     1      -3.628  -6.063  19.608  0.00  0.00    +0.000 HD
ATOM     45  H   UNL     1      -5.092  -6.774  17.750  0.00  0.00    +0.000 HD
ATOM     46  H   UNL     1      -7.463  -6.073  17.679  0.00  0.00    +0.000 HD
BRANCH  35  47
ATOM     47  C   UNL     1      -6.747  -3.096  22.605  0.00  0.00    +0.000 C 
ATOM     48  H   UNL     1      -7.547  -3.012  23.345  0.00  0.00    +0.000 HD
ATOM     49  H   UNL     1      -6.398  -2.098  22.328  0.00  0.00    +0.000 HD
ATOM     50  H   UNL     1      -5.930  -3.697  23.011  0.00  0.00    +0.000 HD
ENDBRANCH  35  47
ENDBRANCH  26  33
ENDBRANCH   6  25
BRANCH   1  51
ATOM     51  C   UNL     1     -10.326  -1.221  23.141  0.00  0.00    +0.000 C 
ATOM     52  H   UNL     1      -9.534  -1.222  22.380  0.00  0.00    +0.000 HD
ATOM     53  H   UNL     1     -10.161  -0.327  23.752  0.00  0.00    +0.000 HD
BRANCH  51  54
ATOM     54  N   UNL     1     -10.191  -2.423  23.992  0.00  0.00    +0.000 NA
BRANCH  54  55
ATOM     55  C   UNL     1      -9.308  -2.141  25.128  0.00  0.00    +0.000 C 
ATOM     56  H   UNL     1      -9.296  -2.981  25.830  0.00  0.00    +0.000 HD
ATOM     57  H   UNL     1      -9.605  -1.233  25.665  0.00  0.00    +0.000 HD
ATOM     58  H   UNL     1      -8.273  -2.024  24.799  0.00  0.00    +0.000 HD
ENDBRANCH  54  55
BRANCH  54  59
ATOM     59  C   UNL     1     -11.503  -2.853  24.492  0.00  0.00    +0.000 C 
ATOM     60  H   UNL     1     -12.074  -1.994  24.860  0.00  0.00    +0.000 HD
ATOM     61  H   UNL     1     -11.396  -3.536  25.343  0.00  0.00    +0.000 HD
ATOM     62  H   UNL     1     -12.102  -3.351  23.721  0.00  0.00    +0.000 HD
ENDBRANCH  54  59
ENDBRANCH  51  54
ENDBRANCH   1  51
TORSDOF 7
ENDMDL
MODEL 3
REMARK VINA RESULT:    -8.797      2.577      7.268
REMARK INTER + INTRA:         -12.100
REMARK INTER:                 -10.129
REMARK INTRA:                  -1.971
REMARK UNBOUND:                -0.475
REMARK  Name = 
REMARK  7 active torsions:
REMARK  status: ('A' for Active; 'I' for Inactive)
REMARK    1  A    between atoms: C_1  and  N_2
REMARK    2  A    between atoms: N_2  and  C_3
REMARK    3  A    between atoms: N_2  and  C_4
REMARK    4  A    between atoms: C_4  and  C_5
REMARK    5  A    between atoms: C_10  and  C_11
REMARK    6  A    between atoms: C_12  and  C_13
REMARK    7  A    between atoms: N_15  and  C_16
REMARK                            x       y       z     vdW  Elec       q    Type
REMARK                         _______ _______ _______ _____ _____    ______ ____
ROOT
ATOM      1  C   UNL     1     -11.530  -4.750  16.638  0.00  0.00    +0.000 C 
ATOM      2  C   UNL     1     -11.071  -6.105  17.203  0.00  0.00    +0.000 C 
ATOM      3  C   UNL     1      -9.684  -5.994  17.828  0.00  0.00    +0.000 C 
ATOM      4  N   UNL     1      -9.554  -4.819  18.677  0.00  0.00    +0.000 N 
ATOM      5  C   UNL     1     -10.424  -3.747  18.662  0.00  0.00    +0.000 A 
ATOM      6  C   UNL     1      -9.928  -2.813  19.552  0.00  0.00    +0.000 A 
ATOM      7  C   UNL     1      -8.718  -3.324  20.107  0.00  0.00    +0.000 A 
ATOM      8  C   UNL     1      -7.775  -2.845  21.038  0.00  0.00    +0.000 A 
ATOM      9  C   UNL     1      -6.619  -3.586  21.302  0.00  0.00    +0.000 A 
ATOM     10  C   UNL     1      -6.393  -4.800  20.661  0.00  0.00    +0.000 A 
ATOM     11  C   UNL     1      -7.322  -5.313  19.754  0.00  0.00    +0.000 A 
ATOM     12  C   UNL     1      -8.483  -4.564  19.504  0.00  0.00    +0.000 A 
ATOM     13  C   UNL     1     -11.642  -3.740  17.793  0.00  0.00    +0.000 C 
ATOM     14  H   UNL     1     -12.542  -4.875  16.241  0.00  0.00    +0.000 HD
ATOM     15  H   UNL     1     -11.071  -6.876  16.426  0.00  0.00    +0.000 HD
ATOM     16  H   UNL     1     -11.786  -6.430  17.968  0.00  0.00    +0.000 HD
ATOM     17  H   UNL     1      -8.910  -5.912  17.056  0.00  0.00    +0.000 HD
ATOM     18  H   UNL     1      -9.474  -6.879  18.436  0.00  0.00    +0.000 HD
ATOM     19  H   UNL     1      -7.931  -1.893  21.539  0.00  0.00    +0.000 HD
ATOM     20  H   UNL     1      -5.885  -3.203  22.006  0.00  0.00    +0.000 HD
ATOM     21  H   UNL     1      -5.482  -5.358  20.867  0.00  0.00    +0.000 HD
ATOM     22  H   UNL     1      -7.138  -6.260  19.255  0.00  0.00    +0.000 HD
ATOM     23  H   UNL     1     -11.825  -2.733  17.402  0.00  0.00    +0.000 HD
ATOM     24  H   UNL     1     -12.513  -4.000  18.410  0.00  0.00    +0.000 HD
ENDROOT
BRANCH   6  25
ATOM     25  C   UNL     1     -10.520  -1.546  19.806  0.00  0.00    +0.000 C 
ATOM     26  C   UNL     1     -11.010  -1.054  20.949  0.00  0.00    +0.000 C 
ATOM     27  C   UNL     1     -11.534   0.301  20.665  0.00  0.00    +0.000 C 
ATOM     28  O   UNL     1     -12.103   1.049  21.443  0.00  0.00    +0.000 OA
ATOM     29  N   UNL     1     -11.295   0.550  19.361  0.00  0.00    +0.000 N 
ATOM     30  C   UNL     1     -10.704  -0.515  18.770  0.00  0.00    +0.000 C 
ATOM     31  O   UNL     1     -10.404  -0.592  17.587  0.00  0.00    +0.000 OA
ATOM     32  H   UNL     1     -11.559   1.398  18.887  0.00  0.00    +0.000 HD
BRANCH  26  33
ATOM     33  C   UNL     1     -11.061  -1.648  22.234  0.00  0.00    +0.000 A 
ATOM     34  C   UNL     1     -12.014  -2.551  22.637  0.00  0.00    +0.000 A 
ATOM     35  N   UNL     1     -11.782  -2.835  23.959  0.00  0.00    +0.000 N 
ATOM     36  C   UNL     1     -10.683  -2.136  24.417  0.00  0.00    +0.000 A 
ATOM     37  C   UNL     1     -10.089  -2.080  25.687  0.00  0.00    +0.000 A 
ATOM     38  C   UNL     1      -8.979  -1.246  25.858  0.00  0.00    +0.000 A 
ATOM     39  C   UNL     1      -8.476  -0.497  24.799  0.00  0.00    +0.000 A 
ATOM     40  C   UNL     1      -9.071  -0.563  23.535  0.00  0.00    +0.000 A 
ATOM     41  C   UNL     1     -10.199  -1.387  23.336  0.00  0.00    +0.000 A 
ATOM     42  H   UNL     1     -12.852  -2.987  22.110  0.00  0.00    +0.000 HD
ATOM     43  H   UNL     1     -10.478  -2.652  26.523  0.00  0.00    +0.000 HD
ATOM     44  H   UNL     1      -8.505  -1.179  26.835  0.00  0.00    +0.000 HD
ATOM     45  H   UNL     1      -7.617   0.152  24.953  0.00  0.00    +0.000 HD
ATOM     46  H   UNL     1      -8.675   0.033  22.720  0.00  0.00    +0.000 HD
BRANCH  35  47
ATOM     47  C   UNL     1     -12.616  -3.697  24.767  0.00  0.00    +0.000 C 
ATOM     48  H   UNL     1     -12.675  -4.686  24.306  0.00  0.00    +0.000 HD
ATOM     49  H   UNL     1     -13.616  -3.259  24.825  0.00  0.00    +0.000 HD
ATOM     50  H   UNL     1     -12.168  -3.779  25.760  0.00  0.00    +0.000 HD
ENDBRANCH  35  47
ENDBRANCH  26  33
ENDBRANCH   6  25
BRANCH   1  51
ATOM     51  C   UNL     1     -10.598  -4.224  15.509  0.00  0.00    +0.000 C 
ATOM     52  H   UNL     1      -9.657  -3.876  15.957  0.00  0.00    +0.000 HD
ATOM     53  H   UNL     1     -10.330  -5.050  14.841  0.00  0.00    +0.000 HD
BRANCH  51  54
ATOM     54  N   UNL     1     -11.198  -3.132  14.714  0.00  0.00    +0.000 NA
BRANCH  54  55
ATOM     55  C   UNL     1     -10.173  -2.150  14.348  0.00  0.00    +0.000 C 
ATOM     56  H   UNL     1      -9.999  -1.443  15.166  0.00  0.00    +0.000 HD
ATOM     57  H   UNL     1     -10.443  -1.590  13.445  0.00  0.00    +0.000 HD
ATOM     58  H   UNL     1      -9.210  -2.636  14.176  0.00  0.00    +0.000 HD
ENDBRANCH  54  55
BRANCH  54  59
ATOM     59  C   UNL     1     -11.821  -3.661  13.494  0.00  0.00    +0.000 C 
ATOM     60  H   UNL     1     -11.467  -3.114  12.614  0.00  0.00    +0.000 HD
ATOM     61  H   UNL     1     -12.909  -3.531  13.519  0.00  0.00    +0.000 HD
ATOM     62  H   UNL     1     -11.603  -4.725  13.340  0.00  0.00    +0.000 HD
ENDBRANCH  54  59
ENDBRANCH  51  54
ENDBRANCH   1  51
TORSDOF 7
ENDMDL
MODEL 4
REMARK VINA RESULT:    -8.696      3.041      5.678
REMARK INTER + INTRA:         -11.968
REMARK INTER:                  -9.834
REMARK INTRA:                  -2.133
REMARK UNBOUND:                -0.475
REMARK  Name = 
REMARK  7 active torsions:
REMARK  status: ('A' for Active; 'I' for Inactive)
REMARK    1  A    between atoms: C_1  and  N_2
REMARK    2  A    between atoms: N_2  and  C_3
REMARK    3  A    between atoms: N_2  and  C_4
REMARK    4  A    between atoms: C_4  and  C_5
REMARK    5  A    between atoms: C_10  and  C_11
REMARK    6  A    between atoms: C_12  and  C_13
REMARK    7  A    between atoms: N_15  and  C_16
REMARK                            x       y       z     vdW  Elec       q    Type
REMARK                         _______ _______ _______ _____ _____    ______ ____
ROOT
ATOM      1  C   UNL     1      -7.479  -2.306  22.882  0.00  0.00    +0.000 C 
ATOM      2  C   UNL     1      -6.385  -3.237  22.333  0.00  0.00    +0.000 C 
ATOM      3  C   UNL     1      -6.989  -4.341  21.472  0.00  0.00    +0.000 C 
ATOM      4  N   UNL     1      -7.985  -3.832  20.541  0.00  0.00    +0.000 N 
ATOM      5  C   UNL     1      -8.578  -2.589  20.639  0.00  0.00    +0.000 A 
ATOM      6  C   UNL     1      -9.509  -2.506  19.619  0.00  0.00    +0.000 A 
ATOM      7  C   UNL     1      -9.489  -3.735  18.897  0.00  0.00    +0.000 A 
ATOM      8  C   UNL     1     -10.195  -4.244  17.788  0.00  0.00    +0.000 A 
ATOM      9  C   UNL     1      -9.986  -5.563  17.375  0.00  0.00    +0.000 A 
ATOM     10  C   UNL     1      -9.078  -6.379  18.043  0.00  0.00    +0.000 A 
ATOM     11  C   UNL     1      -8.345  -5.895  19.127  0.00  0.00    +0.000 A 
ATOM     12  C   UNL     1      -8.558  -4.565  19.527  0.00  0.00    +0.000 A 
ATOM     13  C   UNL     1      -8.184  -1.615  21.703  0.00  0.00    +0.000 C 
ATOM     14  H   UNL     1      -6.991  -1.512  23.456  0.00  0.00    +0.000 HD
ATOM     15  H   UNL     1      -5.797  -3.675  23.146  0.00  0.00    +0.000 HD
ATOM     16  H   UNL     1      -5.689  -2.646  21.726  0.00  0.00    +0.000 HD
ATOM     17  H   UNL     1      -7.492  -5.092  22.092  0.00  0.00    +0.000 HD
ATOM     18  H   UNL     1      -6.205  -4.838  20.894  0.00  0.00    +0.000 HD
ATOM     19  H   UNL     1     -10.916  -3.623  17.262  0.00  0.00    +0.000 HD
ATOM     20  H   UNL     1     -10.547  -5.957  16.532  0.00  0.00    +0.000 HD
ATOM     21  H   UNL     1      -8.937  -7.408  17.718  0.00  0.00    +0.000 HD
ATOM     22  H   UNL     1      -7.640  -6.538  19.646  0.00  0.00    +0.000 HD
ATOM     23  H   UNL     1      -9.061  -1.060  22.055  0.00  0.00    +0.000 HD
ATOM     24  H   UNL     1      -7.501  -0.876  21.264  0.00  0.00    +0.000 HD
ENDROOT
BRANCH   6  25
ATOM     25  C   UNL     1     -10.360  -1.390  19.392  0.00  0.00    +0.000 C 
ATOM     26  C   UNL     1     -10.356  -0.514  18.381  0.00  0.00    +0.000 C 
ATOM     27  C   UNL     1     -11.433   0.469  18.637  0.00  0.00    +0.000 C 
ATOM     28  O   UNL     1     -11.710   1.449  17.966  0.00  0.00    +0.000 OA
ATOM     29  N   UNL     1     -12.039   0.099  19.783  0.00  0.00    +0.000 N 
ATOM     30  C   UNL     1     -11.445  -0.999  20.308  0.00  0.00    +0.000 C 
ATOM     31  O   UNL     1     -11.756  -1.538  21.360  0.00  0.00    +0.000 OA
ATOM     32  H   UNL     1     -12.804   0.597  20.208  0.00  0.00    +0.000 HD
BRANCH  26  33
ATOM     33  C   UNL     1      -9.516  -0.461  17.241  0.00  0.00    +0.000 A 
ATOM     34  C   UNL     1      -8.329   0.226  17.180  0.00  0.00    +0.000 A 
ATOM     35  N   UNL     1      -7.849   0.110  15.900  0.00  0.00    +0.000 N 
ATOM     36  C   UNL     1      -8.704  -0.654  15.132  0.00  0.00    +0.000 A 
ATOM     37  C   UNL     1      -8.652  -1.017  13.777  0.00  0.00    +0.000 A 
ATOM     38  C   UNL     1      -9.697  -1.792  13.263  0.00  0.00    +0.000 A 
ATOM     39  C   UNL     1     -10.756  -2.193  14.071  0.00  0.00    +0.000 A 
ATOM     40  C   UNL     1     -10.798  -1.830  15.421  0.00  0.00    +0.000 A 
ATOM     41  C   UNL     1      -9.763  -1.040  15.964  0.00  0.00    +0.000 A 
ATOM     42  H   UNL     1      -7.805   0.812  17.923  0.00  0.00    +0.000 HD
ATOM     43  H   UNL     1      -7.836  -0.701  13.135  0.00  0.00    +0.000 HD
ATOM     44  H   UNL     1      -9.683  -2.079  12.214  0.00  0.00    +0.000 HD
ATOM     45  H   UNL     1     -11.563  -2.788  13.651  0.00  0.00    +0.000 HD
ATOM     46  H   UNL     1     -11.634  -2.142  16.038  0.00  0.00    +0.000 HD
BRANCH  35  47
ATOM     47  C   UNL     1      -6.647   0.754  15.418  0.00  0.00    +0.000 C 
ATOM     48  H   UNL     1      -5.808   0.496  16.067  0.00  0.00    +0.000 HD
ATOM     49  H   UNL     1      -6.803   1.837  15.434  0.00  0.00    +0.000 HD
ATOM     50  H   UNL     1      -6.451   0.404  14.403  0.00  0.00    +0.000 HD
ENDBRANCH  35  47
ENDBRANCH  26  33
ENDBRANCH   6  25
BRANCH   1  51
ATOM     51  C   UNL     1      -8.494  -3.049  23.798  0.00  0.00    +0.000 C 
ATOM     52  H   UNL     1      -9.112  -3.714  23.179  0.00  0.00    +0.000 HD
ATOM     53  H   UNL     1      -7.952  -3.697  24.496  0.00  0.00    +0.000 HD
BRANCH  51  54
ATOM     54  N   UNL     1      -9.371  -2.137  24.563  0.00  0.00    +0.000 NA
BRANCH  54  55
ATOM     55  C   UNL     1     -10.764  -2.585  24.481  0.00  0.00    +0.000 C 
ATOM     56  H   UNL     1     -11.013  -2.898  23.461  0.00  0.00    +0.000 HD
ATOM     57  H   UNL     1     -11.466  -1.805  24.794  0.00  0.00    +0.000 HD
ATOM     58  H   UNL     1     -10.929  -3.467  25.102  0.00  0.00    +0.000 HD
ENDBRANCH  54  55
BRANCH  54  59
ATOM     59  C   UNL     1      -8.960  -2.086  25.972  0.00  0.00    +0.000 C 
ATOM     60  H   UNL     1      -8.729  -3.091  26.341  0.00  0.00    +0.000 HD
ATOM     61  H   UNL     1      -9.770  -1.707  26.606  0.00  0.00    +0.000 HD
ATOM     62  H   UNL     1      -8.075  -1.458  26.129  0.00  0.00    +0.000 HD
ENDBRANCH  54  59
ENDBRANCH  51  54
ENDBRANCH   1  51
TORSDOF 7
ENDMDL
MODEL 5
REMARK VINA RESULT:    -8.515      3.266      6.232
REMARK INTER + INTRA:         -11.727
REMARK INTER:                  -9.945
REMARK INTRA:                  -1.782
REMARK UNBOUND:                -0.475
REMARK  Name = 
REMARK  7 active torsions:
REMARK  status: ('A' for Active; 'I' for Inactive)
REMARK    1  A    between atoms: C_1  and  N_2
REMARK    2  A    between atoms: N_2  and  C_3
REMARK    3  A    between atoms: N_2  and  C_4
REMARK    4  A    between atoms: C_4  and  C_5
REMARK    5  A    between atoms: C_10  and  C_11
REMARK    6  A    between atoms: C_12  and  C_13
REMARK    7  A    between atoms: N_15  and  C_16
REMARK                            x       y       z     vdW  Elec       q    Type
REMARK                         _______ _______ _______ _____ _____    ______ ____
ROOT
ATOM      1  C   UNL     1      -7.524  -2.222  22.917  0.00  0.00    +0.000 C 
ATOM      2  C   UNL     1      -6.437  -3.130  22.317  0.00  0.00    +0.000 C 
ATOM      3  C   UNL     1      -7.055  -4.218  21.446  0.00  0.00    +0.000 C 
ATOM      4  N   UNL     1      -8.079  -3.695  20.553  0.00  0.00    +0.000 N 
ATOM      5  C   UNL     1      -8.680  -2.461  20.697  0.00  0.00    +0.000 A 
ATOM      6  C   UNL     1      -9.637  -2.361  19.704  0.00  0.00    +0.000 A 
ATOM      7  C   UNL     1      -9.627  -3.572  18.951  0.00  0.00    +0.000 A 
ATOM      8  C   UNL     1     -10.357  -4.060  17.849  0.00  0.00    +0.000 A 
ATOM      9  C   UNL     1     -10.148  -5.367  17.399  0.00  0.00    +0.000 A 
ATOM     10  C   UNL     1      -9.217  -6.191  18.023  0.00  0.00    +0.000 A 
ATOM     11  C   UNL     1      -8.460  -5.727  19.099  0.00  0.00    +0.000 A 
ATOM     12  C   UNL     1      -8.672  -4.409  19.537  0.00  0.00    +0.000 A 
ATOM     13  C   UNL     1      -8.265  -1.509  21.774  0.00  0.00    +0.000 C 
ATOM     14  H   UNL     1      -7.027  -1.438  23.497  0.00  0.00    +0.000 HD
ATOM     15  H   UNL     1      -5.825  -3.583  23.103  0.00  0.00    +0.000 HD
ATOM     16  H   UNL     1      -5.763  -2.519  21.707  0.00  0.00    +0.000 HD
ATOM     17  H   UNL     1      -7.536  -4.989  22.060  0.00  0.00    +0.000 HD
ATOM     18  H   UNL     1      -6.282  -4.695  20.835  0.00  0.00    +0.000 HD
ATOM     19  H   UNL     1     -11.097  -3.433  17.358  0.00  0.00    +0.000 HD
ATOM     20  H   UNL     1     -10.728  -5.745  16.561  0.00  0.00    +0.000 HD
ATOM     21  H   UNL     1      -9.076  -7.210  17.669  0.00  0.00    +0.000 HD
ATOM     22  H   UNL     1      -7.736  -6.377  19.584  0.00  0.00    +0.000 HD
ATOM     23  H   UNL     1      -9.137  -0.970  22.162  0.00  0.00    +0.000 HD
ATOM     24  H   UNL     1      -7.600  -0.754  21.335  0.00  0.00    +0.000 HD
ENDROOT
BRANCH   6  25
ATOM     25  C   UNL     1     -10.503  -1.248  19.526  0.00  0.00    +0.000 C 
ATOM     26  C   UNL     1     -10.575  -0.385  18.506  0.00  0.00    +0.000 C 
ATOM     27  C   UNL     1     -11.629   0.602  18.829  0.00  0.00    +0.000 C 
ATOM     28  O   UNL     1     -11.956   1.573  18.167  0.00  0.00    +0.000 OA
ATOM     29  N   UNL     1     -12.148   0.248  20.022  0.00  0.00    +0.000 N 
ATOM     30  C   UNL     1     -11.516  -0.843  20.515  0.00  0.00    +0.000 C 
ATOM     31  O   UNL     1     -11.747  -1.367  21.595  0.00  0.00    +0.000 OA
ATOM     32  H   UNL     1     -12.878   0.753  20.497  0.00  0.00    +0.000 HD
BRANCH  26  33
ATOM     33  C   UNL     1      -9.823  -0.348  17.305  0.00  0.00    +0.000 A 
ATOM     34  C   UNL     1     -10.087  -1.116  16.198  0.00  0.00    +0.000 A 
ATOM     35  N   UNL     1      -9.104  -0.863  15.275  0.00  0.00    +0.000 N 
ATOM     36  C   UNL     1      -8.211   0.069  15.765  0.00  0.00    +0.000 A 
ATOM     37  C   UNL     1      -7.045   0.613  15.205  0.00  0.00    +0.000 A 
ATOM     38  C   UNL     1      -6.319   1.536  15.965  0.00  0.00    +0.000 A 
ATOM     39  C   UNL     1      -6.742   1.907  17.238  0.00  0.00    +0.000 A 
ATOM     40  C   UNL     1      -7.909   1.364  17.786  0.00  0.00    +0.000 A 
ATOM     41  C   UNL     1      -8.654   0.422  17.047  0.00  0.00    +0.000 A 
ATOM     42  H   UNL     1     -10.864  -1.842  16.002  0.00  0.00    +0.000 HD
ATOM     43  H   UNL     1      -6.700   0.324  14.218  0.00  0.00    +0.000 HD
ATOM     44  H   UNL     1      -5.407   1.966  15.556  0.00  0.00    +0.000 HD
ATOM     45  H   UNL     1      -6.159   2.620  17.816  0.00  0.00    +0.000 HD
ATOM     46  H   UNL     1      -8.222   1.655  18.783  0.00  0.00    +0.000 HD
BRANCH  35  47
ATOM     47  C   UNL     1      -8.992  -1.531  13.997  0.00  0.00    +0.000 C 
ATOM     48  H   UNL     1      -9.954  -1.976  13.732  0.00  0.00    +0.000 HD
ATOM     49  H   UNL     1      -8.236  -2.317  14.081  0.00  0.00    +0.000 HD
ATOM     50  H   UNL     1      -8.706  -0.793  13.246  0.00  0.00    +0.000 HD
ENDBRANCH  35  47
ENDBRANCH  26  33
ENDBRANCH   6  25
BRANCH   1  51
ATOM     51  C   UNL     1      -8.509  -2.996  23.840  0.00  0.00    +0.000 C 
ATOM     52  H   UNL     1      -9.115  -3.676  23.225  0.00  0.00    +0.000 HD
ATOM     53  H   UNL     1      -7.943  -3.632  24.530  0.00  0.00    +0.000 HD
BRANCH  51  54
ATOM     54  N   UNL     1      -9.402  -2.111  24.618  0.00  0.00    +0.000 NA
BRANCH  54  55
ATOM     55  C   UNL     1     -10.777  -2.618  24.581  0.00  0.00    +0.000 C 
ATOM     56  H   UNL     1     -11.474  -1.835  24.265  0.00  0.00    +0.000 HD
ATOM     57  H   UNL     1     -11.098  -3.009  25.553  0.00  0.00    +0.000 HD
ATOM     58  H   UNL     1     -10.880  -3.413  23.839  0.00  0.00    +0.000 HD
ENDBRANCH  54  55
BRANCH  54  59
ATOM     59  C   UNL     1      -8.955  -2.023  26.014  0.00  0.00    +0.000 C 
ATOM     60  H   UNL     1      -9.602  -1.347  26.583  0.00  0.00    +0.000 HD
ATOM     61  H   UNL     1      -7.944  -1.603  26.079  0.00  0.00    +0.000 HD
ATOM     62  H   UNL     1      -8.958  -2.997  26.518  0.00  0.00    +0.000 HD
ENDBRANCH  54  59
ENDBRANCH  51  54
ENDBRANCH   1  51
TORSDOF 7
ENDMDL
MODEL 6
REMARK VINA RESULT:    -8.509      2.360      5.329
REMARK INTER + INTRA:         -11.720
REMARK INTER:                 -10.403
REMARK INTRA:                  -1.317
REMARK UNBOUND:                -0.475
REMARK  Name = 
REMARK  7 active torsions:
REMARK  status: ('A' for Active; 'I' for Inactive)
REMARK    1  A    between atoms: C_1  and  N_2
REMARK    2  A    between atoms: N_2  and  C_3
REMARK    3  A    between atoms: N_2  and  C_4
REMARK    4  A    between atoms: C_4  and  C_5
REMARK    5  A    between atoms: C_10  and  C_11
REMARK    6  A    between atoms: C_12  and  C_13
REMARK    7  A    between atoms: N_15  and  C_16
REMARK                            x       y       z     vdW  Elec       q    Type
REMARK                         _______ _______ _______ _____ _____    ______ ____
ROOT
ATOM      1  C   UNL     1      -8.698  -2.101  22.928  0.00  0.00    +0.000 C 
ATOM      2  C   UNL     1      -7.215  -1.698  22.895  0.00  0.00    +0.000 C 
ATOM      3  C   UNL     1      -6.347  -2.850  22.399  0.00  0.00    +0.000 C 
ATOM      4  N   UNL     1      -6.907  -3.494  21.220  0.00  0.00    +0.000 N 
ATOM      5  C   UNL     1      -8.211  -3.340  20.794  0.00  0.00    +0.000 A 
ATOM      6  C   UNL     1      -8.374  -4.158  19.691  0.00  0.00    +0.000 A 
ATOM      7  C   UNL     1      -7.143  -4.836  19.454  0.00  0.00    +0.000 A 
ATOM      8  C   UNL     1      -6.698  -5.780  18.506  0.00  0.00    +0.000 A 
ATOM      9  C   UNL     1      -5.414  -6.322  18.613  0.00  0.00    +0.000 A 
ATOM     10  C   UNL     1      -4.563  -5.932  19.642  0.00  0.00    +0.000 A 
ATOM     11  C   UNL     1      -4.966  -4.980  20.580  0.00  0.00    +0.000 A 
ATOM     12  C   UNL     1      -6.255  -4.436  20.457  0.00  0.00    +0.000 A 
ATOM     13  C   UNL     1      -9.160  -2.420  21.496  0.00  0.00    +0.000 C 
ATOM     14  H   UNL     1      -9.278  -1.230  23.250  0.00  0.00    +0.000 HD
ATOM     15  H   UNL     1      -6.873  -1.372  23.883  0.00  0.00    +0.000 HD
ATOM     16  H   UNL     1      -7.095  -0.841  22.223  0.00  0.00    +0.000 HD
ATOM     17  H   UNL     1      -6.248  -3.627  23.166  0.00  0.00    +0.000 HD
ATOM     18  H   UNL     1      -5.347  -2.485  22.145  0.00  0.00    +0.000 HD
ATOM     19  H   UNL     1      -7.354  -6.103  17.702  0.00  0.00    +0.000 HD
ATOM     20  H   UNL     1      -5.083  -7.064  17.891  0.00  0.00    +0.000 HD
ATOM     21  H   UNL     1      -3.572  -6.374  19.719  0.00  0.00    +0.000 HD
ATOM     22  H   UNL     1      -4.298  -4.682  21.383  0.00  0.00    +0.000 HD
ATOM     23  H   UNL     1     -10.168  -2.849  21.506  0.00  0.00    +0.000 HD
ATOM     24  H   UNL     1      -9.224  -1.484  20.926  0.00  0.00    +0.000 HD
ENDROOT
BRANCH   6  25
ATOM     25  C   UNL     1      -9.591  -4.312  18.973  0.00  0.00    +0.000 C 
ATOM     26  C   UNL     1     -10.336  -3.386  18.361  0.00  0.00    +0.000 C 
ATOM     27  C   UNL     1     -11.517  -4.070  17.786  0.00  0.00    +0.000 C 
ATOM     28  O   UNL     1     -12.450  -3.554  17.194  0.00  0.00    +0.000 OA
ATOM     29  N   UNL     1     -11.388  -5.381  18.069  0.00  0.00    +0.000 N 
ATOM     30  C   UNL     1     -10.267  -5.608  18.793  0.00  0.00    +0.000 C 
ATOM     31  O   UNL     1      -9.911  -6.695  19.225  0.00  0.00    +0.000 OA
ATOM     32  H   UNL     1     -12.058  -6.087  17.810  0.00  0.00    +0.000 HD
BRANCH  26  33
ATOM     33  C   UNL     1     -10.114  -1.992  18.236  0.00  0.00    +0.000 A 
ATOM     34  C   UNL     1      -9.248  -1.419  17.338  0.00  0.00    +0.000 A 
ATOM     35  N   UNL     1      -9.244  -0.067  17.571  0.00  0.00    +0.000 N 
ATOM     36  C   UNL     1     -10.107   0.247  18.602  0.00  0.00    +0.000 A 
ATOM     37  C   UNL     1     -10.413   1.475  19.208  0.00  0.00    +0.000 A 
ATOM     38  C   UNL     1     -11.324   1.477  20.269  0.00  0.00    +0.000 A 
ATOM     39  C   UNL     1     -11.913   0.295  20.709  0.00  0.00    +0.000 A 
ATOM     40  C   UNL     1     -11.606  -0.924  20.096  0.00  0.00    +0.000 A 
ATOM     41  C   UNL     1     -10.682  -0.957  19.031  0.00  0.00    +0.000 A 
ATOM     42  H   UNL     1      -8.611  -1.858  16.581  0.00  0.00    +0.000 HD
ATOM     43  H   UNL     1      -9.952   2.401  18.879  0.00  0.00    +0.000 HD
ATOM     44  H   UNL     1     -11.571   2.415  20.760  0.00  0.00    +0.000 HD
ATOM     45  H   UNL     1     -12.613   0.316  21.541  0.00  0.00    +0.000 HD
ATOM     46  H   UNL     1     -12.066  -1.838  20.455  0.00  0.00    +0.000 HD
BRANCH  35  47
ATOM     47  C   UNL     1      -8.404   0.880  16.872  0.00  0.00    +0.000 C 
ATOM     48  H   UNL     1      -9.005   1.733  16.548  0.00  0.00    +0.000 HD
ATOM     49  H   UNL     1      -7.972   0.383  15.998  0.00  0.00    +0.000 HD
ATOM     50  H   UNL     1      -7.621   1.217  17.554  0.00  0.00    +0.000 HD
ENDBRANCH  35  47
ENDBRANCH  26  33
ENDBRANCH   6  25
BRANCH   1  51
ATOM     51  C   UNL     1      -8.976  -3.288  23.894  0.00  0.00    +0.000 C 
ATOM     52  H   UNL     1      -9.387  -4.128  23.318  0.00  0.00    +0.000 HD
ATOM     53  H   UNL     1      -8.031  -3.643  24.320  0.00  0.00    +0.000 HD
BRANCH  51  54
ATOM     54  N   UNL     1      -9.905  -2.945  24.993  0.00  0.00    +0.000 NA
BRANCH  54  55
ATOM     55  C   UNL     1      -9.403  -1.785  25.736  0.00  0.00    +0.000 C 
ATOM     56  H   UNL     1      -8.376  -1.546  25.439  0.00  0.00    +0.000 HD
ATOM     57  H   UNL     1      -9.432  -1.947  26.819  0.00  0.00    +0.000 HD
ATOM     58  H   UNL     1      -9.986  -0.891  25.505  0.00  0.00    +0.000 HD
ENDBRANCH  54  55
BRANCH  54  59
ATOM     59  C   UNL     1     -11.241  -2.643  24.465  0.00  0.00    +0.000 C 
ATOM     60  H   UNL     1     -11.264  -1.638  24.031  0.00  0.00    +0.000 HD
ATOM     61  H   UNL     1     -11.991  -2.647  25.265  0.00  0.00    +0.000 HD
ATOM     62  H   UNL     1     -11.557  -3.352  23.691  0.00  0.00    +0.000 HD
ENDBRANCH  54  59
ENDBRANCH  51  54
ENDBRANCH   1  51
TORSDOF 7
ENDMDL
MODEL 7
REMARK VINA RESULT:    -8.187      4.157      7.682
REMARK INTER + INTRA:         -11.294
REMARK INTER:                  -8.973
REMARK INTRA:                  -2.321
REMARK UNBOUND:                -0.475
REMARK  Name = 
REMARK  7 active torsions:
REMARK  status: ('A' for Active; 'I' for Inactive)
REMARK    1  A    between atoms: C_1  and  N_2
REMARK    2  A    between atoms: N_2  and  C_3
REMARK    3  A    between atoms: N_2  and  C_4
REMARK    4  A    between atoms: C_4  and  C_5
REMARK    5  A    between atoms: C_10  and  C_11
REMARK    6  A    between atoms: C_12  and  C_13
REMARK    7  A    between atoms: N_15  and  C_16
REMARK                            x       y       z     vdW  Elec       q    Type
REMARK                         _______ _______ _______ _____ _____    ______ ____
ROOT
ATOM      1  C   UNL     1      -9.889  -2.351  23.245  0.00  0.00    +0.000 C 
ATOM      2  C   UNL     1      -9.266  -2.182  24.640  0.00  0.00    +0.000 C 
ATOM      3  C   UNL     1      -8.457  -0.892  24.724  0.00  0.00    +0.000 C 
ATOM      4  N   UNL     1      -9.167   0.242  24.151  0.00  0.00    +0.000 N 
ATOM      5  C   UNL     1     -10.266   0.134  23.322  0.00  0.00    +0.000 A 
ATOM      6  C   UNL     1     -10.607   1.417  22.936  0.00  0.00    +0.000 A 
ATOM      7  C   UNL     1      -9.681   2.322  23.531  0.00  0.00    +0.000 A 
ATOM      8  C   UNL     1      -9.507   3.721  23.507  0.00  0.00    +0.000 A 
ATOM      9  C   UNL     1      -8.409   4.298  24.153  0.00  0.00    +0.000 A 
ATOM     10  C   UNL     1      -7.488   3.505  24.831  0.00  0.00    +0.000 A 
ATOM     11  C   UNL     1      -7.649   2.120  24.895  0.00  0.00    +0.000 A 
ATOM     12  C   UNL     1      -8.760   1.553  24.249  0.00  0.00    +0.000 A 
ATOM     13  C   UNL     1     -10.871  -1.194  22.994  0.00  0.00    +0.000 C 
ATOM     14  H   UNL     1     -10.489  -3.267  23.251  0.00  0.00    +0.000 HD
ATOM     15  H   UNL     1      -8.632  -3.038  24.894  0.00  0.00    +0.000 HD
ATOM     16  H   UNL     1     -10.069  -2.154  25.386  0.00  0.00    +0.000 HD
ATOM     17  H   UNL     1      -7.512  -0.983  24.176  0.00  0.00    +0.000 HD
ATOM     18  H   UNL     1      -8.230  -0.658  25.769  0.00  0.00    +0.000 HD
ATOM     19  H   UNL     1     -10.211   4.354  22.972  0.00  0.00    +0.000 HD
ATOM     20  H   UNL     1      -8.269   5.375  24.114  0.00  0.00    +0.000 HD
ATOM     21  H   UNL     1      -6.632   3.968  25.316  0.00  0.00    +0.000 HD
ATOM     22  H   UNL     1      -6.925   1.506  25.423  0.00  0.00    +0.000 HD
ATOM     23  H   UNL     1     -11.219  -1.208  21.955  0.00  0.00    +0.000 HD
ATOM     24  H   UNL     1     -11.759  -1.339  23.624  0.00  0.00    +0.000 HD
ENDROOT
BRANCH   6  25
ATOM     25  C   UNL     1     -11.672   1.738  22.051  0.00  0.00    +0.000 C 
ATOM     26  C   UNL     1     -11.778   1.515  20.737  0.00  0.00    +0.000 C 
ATOM     27  C   UNL     1     -13.078   2.068  20.293  0.00  0.00    +0.000 C 
ATOM     28  O   UNL     1     -13.513   2.101  19.153  0.00  0.00    +0.000 OA
ATOM     29  N   UNL     1     -13.688   2.566  21.387  0.00  0.00    +0.000 N 
ATOM     30  C   UNL     1     -12.904   2.422  22.481  0.00  0.00    +0.000 C 
ATOM     31  O   UNL     1     -13.180   2.814  23.606  0.00  0.00    +0.000 OA
ATOM     32  H   UNL     1     -14.587   3.019  21.379  0.00  0.00    +0.000 HD
BRANCH  26  33
ATOM     33  C   UNL     1     -10.867   0.880  19.857  0.00  0.00    +0.000 A 
ATOM     34  C   UNL     1      -9.857   1.522  19.185  0.00  0.00    +0.000 A 
ATOM     35  N   UNL     1      -9.246   0.599  18.374  0.00  0.00    +0.000 N 
ATOM     36  C   UNL     1      -9.839  -0.639  18.522  0.00  0.00    +0.000 A 
ATOM     37  C   UNL     1      -9.582  -1.866  17.891  0.00  0.00    +0.000 A 
ATOM     38  C   UNL     1     -10.381  -2.962  18.233  0.00  0.00    +0.000 A 
ATOM     39  C   UNL     1     -11.398  -2.840  19.175  0.00  0.00    +0.000 A 
ATOM     40  C   UNL     1     -11.644  -1.615  19.803  0.00  0.00    +0.000 A 
ATOM     41  C   UNL     1     -10.861  -0.489  19.468  0.00  0.00    +0.000 A 
ATOM     42  H   UNL     1      -9.545   2.558  19.186  0.00  0.00    +0.000 HD
ATOM     43  H   UNL     1      -8.799  -1.970  17.147  0.00  0.00    +0.000 HD
ATOM     44  H   UNL     1     -10.207  -3.922  17.752  0.00  0.00    +0.000 HD
ATOM     45  H   UNL     1     -12.014  -3.702  19.422  0.00  0.00    +0.000 HD
ATOM     46  H   UNL     1     -12.446  -1.532  20.528  0.00  0.00    +0.000 HD
BRANCH  35  47
ATOM     47  C   UNL     1      -8.174   0.904  17.453  0.00  0.00    +0.000 C 
ATOM     48  H   UNL     1      -8.511   0.726  16.429  0.00  0.00    +0.000 HD
ATOM     49  H   UNL     1      -7.326   0.251  17.678  0.00  0.00    +0.000 HD
ATOM     50  H   UNL     1      -7.901   1.954  17.575  0.00  0.00    +0.000 HD
ENDBRANCH  35  47
ENDBRANCH  26  33
ENDBRANCH   6  25
BRANCH   1  51
ATOM     51  C   UNL     1      -8.821  -2.446  22.118  0.00  0.00    +0.000 C 
ATOM     52  H   UNL     1      -9.320  -2.354  21.144  0.00  0.00    +0.000 HD
ATOM     53  H   UNL     1      -8.134  -1.595  22.191  0.00  0.00    +0.000 HD
BRANCH  51  54
ATOM     54  N   UNL     1      -8.041  -3.703  22.153  0.00  0.00    +0.000 NA
BRANCH  54  55
ATOM     55  C   UNL     1      -8.032  -4.329  20.828  0.00  0.00    +0.000 C 
ATOM     56  H   UNL     1      -8.405  -5.357  20.880  0.00  0.00    +0.000 HD
ATOM     57  H   UNL     1      -7.030  -4.336  20.383  0.00  0.00    +0.000 HD
ATOM     58  H   UNL     1      -8.707  -3.811  20.145  0.00  0.00    +0.000 HD
ENDBRANCH  54  55
BRANCH  54  59
ATOM     59  C   UNL     1      -6.660  -3.443  22.577  0.00  0.00    +0.000 C 
ATOM     60  H   UNL     1      -5.953  -3.963  21.923  0.00  0.00    +0.000 HD
ATOM     61  H   UNL     1      -6.479  -3.826  23.589  0.00  0.00    +0.000 HD
ATOM     62  H   UNL     1      -6.410  -2.375  22.562  0.00  0.00    +0.000 HD
ENDBRANCH  54  59
ENDBRANCH  51  54
ENDBRANCH   1  51
TORSDOF 7
ENDMDL
MODEL 8
REMARK VINA RESULT:    -8.167      3.369      7.452
REMARK INTER + INTRA:         -11.268
REMARK INTER:                  -8.806
REMARK INTRA:                  -2.462
REMARK UNBOUND:                -0.475
REMARK  Name = 
REMARK  7 active torsions:
REMARK  status: ('A' for Active; 'I' for Inactive)
REMARK    1  A    between atoms: C_1  and  N_2
REMARK    2  A    between atoms: N_2  and  C_3
REMARK    3  A    between atoms: N_2  and  C_4
REMARK    4  A    between atoms: C_4  and  C_5
REMARK    5  A    between atoms: C_10  and  C_11
REMARK    6  A    between atoms: C_12  and  C_13
REMARK    7  A    between atoms: N_15  and  C_16
REMARK                            x       y       z     vdW  Elec       q    Type
REMARK                         _______ _______ _______ _____ _____    ______ ____
ROOT
ATOM      1  C   UNL     1     -11.619  -4.396  16.824  0.00  0.00    +0.000 C 
ATOM      2  C   UNL     1     -11.099  -5.781  17.241  0.00  0.00    +0.000 C 
ATOM      3  C   UNL     1      -9.697  -5.682  17.834  0.00  0.00    +0.000 C 
ATOM      4  N   UNL     1      -9.578  -4.590  18.789  0.00  0.00    +0.000 N 
ATOM      5  C   UNL     1     -10.483  -3.553  18.903  0.00  0.00    +0.000 A 
ATOM      6  C   UNL     1      -9.989  -2.691  19.864  0.00  0.00    +0.000 A 
ATOM      7  C   UNL     1      -8.747  -3.211  20.332  0.00  0.00    +0.000 A 
ATOM      8  C   UNL     1      -7.790  -2.790  21.279  0.00  0.00    +0.000 A 
ATOM      9  C   UNL     1      -6.603  -3.512  21.437  0.00  0.00    +0.000 A 
ATOM     10  C   UNL     1      -6.359  -4.650  20.675  0.00  0.00    +0.000 A 
ATOM     11  C   UNL     1      -7.299  -5.106  19.750  0.00  0.00    +0.000 A 
ATOM     12  C   UNL     1      -8.491  -4.378  19.606  0.00  0.00    +0.000 A 
ATOM     13  C   UNL     1     -11.727  -3.506  18.073  0.00  0.00    +0.000 C 
ATOM     14  H   UNL     1     -12.639  -4.518  16.445  0.00  0.00    +0.000 HD
ATOM     15  H   UNL     1     -11.098  -6.474  16.394  0.00  0.00    +0.000 HD
ATOM     16  H   UNL     1     -11.778  -6.204  17.991  0.00  0.00    +0.000 HD
ATOM     17  H   UNL     1      -8.951  -5.500  17.052  0.00  0.00    +0.000 HD
ATOM     18  H   UNL     1      -9.440  -6.613  18.348  0.00  0.00    +0.000 HD
ATOM     19  H   UNL     1      -7.961  -1.896  21.873  0.00  0.00    +0.000 HD
ATOM     20  H   UNL     1      -5.860  -3.172  22.154  0.00  0.00    +0.000 HD
ATOM     21  H   UNL     1      -5.424  -5.192  20.801  0.00  0.00    +0.000 HD
ATOM     22  H   UNL     1      -7.100  -5.993  19.156  0.00  0.00    +0.000 HD
ATOM     23  H   UNL     1     -11.955  -2.473  17.787  0.00  0.00    +0.000 HD
ATOM     24  H   UNL     1     -12.569  -3.854  18.686  0.00  0.00    +0.000 HD
ENDROOT
BRANCH   6  25
ATOM     25  C   UNL     1     -10.613  -1.476  20.257  0.00  0.00    +0.000 C 
ATOM     26  C   UNL     1     -10.682  -0.311  19.604  0.00  0.00    +0.000 C 
ATOM     27  C   UNL     1     -11.424   0.640  20.464  0.00  0.00    +0.000 C 
ATOM     28  O   UNL     1     -11.650   1.817  20.236  0.00  0.00    +0.000 OA
ATOM     29  N   UNL     1     -11.782  -0.033  21.577  0.00  0.00    +0.000 N 
ATOM     30  C   UNL     1     -11.320  -1.305  21.538  0.00  0.00    +0.000 C 
ATOM     31  O   UNL     1     -11.458  -2.135  22.424  0.00  0.00    +0.000 OA
ATOM     32  H   UNL     1     -12.289   0.372  22.347  0.00  0.00    +0.000 HD
BRANCH  26  33
ATOM     33  C   UNL     1     -10.170   0.038  18.330  0.00  0.00    +0.000 A 
ATOM     34  C   UNL     1      -8.914   0.546  18.109  0.00  0.00    +0.000 A 
ATOM     35  N   UNL     1      -8.814   0.833  16.771  0.00  0.00    +0.000 N 
ATOM     36  C   UNL     1      -9.986   0.506  16.118  0.00  0.00    +0.000 A 
ATOM     37  C   UNL     1     -10.363   0.644  14.774  0.00  0.00    +0.000 A 
ATOM     38  C   UNL     1     -11.651   0.241  14.406  0.00  0.00    +0.000 A 
ATOM     39  C   UNL     1     -12.532  -0.284  15.347  0.00  0.00    +0.000 A 
ATOM     40  C   UNL     1     -12.147  -0.423  16.684  0.00  0.00    +0.000 A 
ATOM     41  C   UNL     1     -10.857  -0.014  17.085  0.00  0.00    +0.000 A 
ATOM     42  H   UNL     1      -8.101   0.759  18.789  0.00  0.00    +0.000 HD
ATOM     43  H   UNL     1      -9.687   1.062  14.034  0.00  0.00    +0.000 HD
ATOM     44  H   UNL     1     -11.969   0.345  13.372  0.00  0.00    +0.000 HD
ATOM     45  H   UNL     1     -13.532  -0.584  15.043  0.00  0.00    +0.000 HD
ATOM     46  H   UNL     1     -12.847  -0.825  17.408  0.00  0.00    +0.000 HD
BRANCH  35  47
ATOM     47  C   UNL     1      -7.661   1.450  16.152  0.00  0.00    +0.000 C 
ATOM     48  H   UNL     1      -7.603   2.499  16.452  0.00  0.00    +0.000 HD
ATOM     49  H   UNL     1      -7.774   1.385  15.066  0.00  0.00    +0.000 HD
ATOM     50  H   UNL     1      -6.766   0.920  16.484  0.00  0.00    +0.000 HD
ENDBRANCH  35  47
ENDBRANCH  26  33
ENDBRANCH   6  25
BRANCH   1  51
ATOM     51  C   UNL     1     -10.740  -3.732  15.725  0.00  0.00    +0.000 C 
ATOM     52  H   UNL     1     -11.061  -2.690  15.594  0.00  0.00    +0.000 HD
ATOM     53  H   UNL     1      -9.699  -3.691  16.063  0.00  0.00    +0.000 HD
BRANCH  51  54
ATOM     54  N   UNL     1     -10.800  -4.431  14.423  0.00  0.00    +0.000 NA
BRANCH  54  55
ATOM     55  C   UNL     1     -11.516  -3.612  13.441  0.00  0.00    +0.000 C 
ATOM     56  H   UNL     1     -12.596  -3.639  13.624  0.00  0.00    +0.000 HD
ATOM     57  H   UNL     1     -11.322  -3.939  12.413  0.00  0.00    +0.000 HD
ATOM     58  H   UNL     1     -11.234  -2.561  13.528  0.00  0.00    +0.000 HD
ENDBRANCH  54  55
BRANCH  54  59
ATOM     59  C   UNL     1      -9.448  -4.715  13.926  0.00  0.00    +0.000 C 
ATOM     60  H   UNL     1      -8.860  -3.793  13.866  0.00  0.00    +0.000 HD
ATOM     61  H   UNL     1      -9.480  -5.123  12.909  0.00  0.00    +0.000 HD
ATOM     62  H   UNL     1      -8.905  -5.421  14.565  0.00  0.00    +0.000 HD
ENDBRANCH  54  59
ENDBRANCH  51  54
ENDBRANCH   1  51
TORSDOF 7
ENDMDL
MODEL 9
REMARK VINA RESULT:    -7.997      2.827      6.543
REMARK INTER + INTRA:         -11.044
REMARK INTER:                 -10.070
REMARK INTRA:                  -0.974
REMARK UNBOUND:                -0.475
REMARK  Name = 
REMARK  7 active torsions:
REMARK  status: ('A' for Active; 'I' for Inactive)
REMARK    1  A    between atoms: C_1  and  N_2
REMARK    2  A    between atoms: N_2  and  C_3
REMARK    3  A    between atoms: N_2  and  C_4
REMARK    4  A    between atoms: C_4  and  C_5
REMARK    5  A    between atoms: C_10  and  C_11
REMARK    6  A    between atoms: C_12  and  C_13
REMARK    7  A    between atoms: N_15  and  C_16
REMARK                            x       y       z     vdW  Elec       q    Type
REMARK                         _______ _______ _______ _____ _____    ______ ____
ROOT
ATOM      1  C   UNL     1      -9.495  -0.180  15.567  0.00  0.00    +0.000 C 
ATOM      2  C   UNL     1      -9.113   1.069  16.379  0.00  0.00    +0.000 C 
ATOM      3  C   UNL     1     -10.080   1.282  17.539  0.00  0.00    +0.000 C 
ATOM      4  N   UNL     1     -10.351   0.051  18.266  0.00  0.00    +0.000 N 
ATOM      5  C   UNL     1     -10.070  -1.213  17.787  0.00  0.00    +0.000 A 
ATOM      6  C   UNL     1     -10.532  -2.113  18.729  0.00  0.00    +0.000 A 
ATOM      7  C   UNL     1     -11.124  -1.376  19.796  0.00  0.00    +0.000 A 
ATOM      8  C   UNL     1     -11.757  -1.722  21.007  0.00  0.00    +0.000 A 
ATOM      9  C   UNL     1     -12.318  -0.723  21.809  0.00  0.00    +0.000 A 
ATOM     10  C   UNL     1     -12.250   0.614  21.428  0.00  0.00    +0.000 A 
ATOM     11  C   UNL     1     -11.606   0.988  20.248  0.00  0.00    +0.000 A 
ATOM     12  C   UNL     1     -11.038  -0.023  19.456  0.00  0.00    +0.000 A 
ATOM     13  C   UNL     1      -9.383  -1.417  16.473  0.00  0.00    +0.000 C 
ATOM     14  H   UNL     1      -8.749  -0.310  14.777  0.00  0.00    +0.000 HD
ATOM     15  H   UNL     1      -9.089   1.960  15.744  0.00  0.00    +0.000 HD
ATOM     16  H   UNL     1      -8.099   0.938  16.775  0.00  0.00    +0.000 HD
ATOM     17  H   UNL     1     -11.047   1.657  17.182  0.00  0.00    +0.000 HD
ATOM     18  H   UNL     1      -9.667   2.009  18.244  0.00  0.00    +0.000 HD
ATOM     19  H   UNL     1     -11.829  -2.762  21.313  0.00  0.00    +0.000 HD
ATOM     20  H   UNL     1     -12.823  -0.996  22.732  0.00  0.00    +0.000 HD
ATOM     21  H   UNL     1     -12.704   1.377  22.056  0.00  0.00    +0.000 HD
ATOM     22  H   UNL     1     -11.559   2.033  19.956  0.00  0.00    +0.000 HD
ATOM     23  H   UNL     1      -9.788  -2.300  15.965  0.00  0.00    +0.000 HD
ATOM     24  H   UNL     1      -8.321  -1.625  16.663  0.00  0.00    +0.000 HD
ENDROOT
BRANCH   6  25
ATOM     25  C   UNL     1     -10.462  -3.527  18.598  0.00  0.00    +0.000 C 
ATOM     26  C   UNL     1      -9.580  -4.383  19.125  0.00  0.00    +0.000 C 
ATOM     27  C   UNL     1      -9.940  -5.741  18.657  0.00  0.00    +0.000 C 
ATOM     28  O   UNL     1      -9.344  -6.780  18.885  0.00  0.00    +0.000 OA
ATOM     29  N   UNL     1     -11.045  -5.614  17.895  0.00  0.00    +0.000 N 
ATOM     30  C   UNL     1     -11.413  -4.315  17.796  0.00  0.00    +0.000 C 
ATOM     31  O   UNL     1     -12.355  -3.894  17.139  0.00  0.00    +0.000 OA
ATOM     32  H   UNL     1     -11.506  -6.379  17.431  0.00  0.00    +0.000 HD
BRANCH  26  33
ATOM     33  C   UNL     1      -8.478  -4.127  19.978  0.00  0.00    +0.000 A 
ATOM     34  C   UNL     1      -8.499  -3.250  21.033  0.00  0.00    +0.000 A 
ATOM     35  N   UNL     1      -7.235  -3.212  21.566  0.00  0.00    +0.000 N 
ATOM     36  C   UNL     1      -6.396  -4.064  20.875  0.00  0.00    +0.000 A 
ATOM     37  C   UNL     1      -5.028  -4.338  21.030  0.00  0.00    +0.000 A 
ATOM     38  C   UNL     1      -4.435  -5.247  20.148  0.00  0.00    +0.000 A 
ATOM     39  C   UNL     1      -5.180  -5.863  19.147  0.00  0.00    +0.000 A 
ATOM     40  C   UNL     1      -6.544  -5.588  19.003  0.00  0.00    +0.000 A 
ATOM     41  C   UNL     1      -7.165  -4.667  19.872  0.00  0.00    +0.000 A 
ATOM     42  H   UNL     1      -9.289  -2.626  21.428  0.00  0.00    +0.000 HD
ATOM     43  H   UNL     1      -4.435  -3.855  21.800  0.00  0.00    +0.000 HD
ATOM     44  H   UNL     1      -3.374  -5.470  20.242  0.00  0.00    +0.000 HD
ATOM     45  H   UNL     1      -4.698  -6.561  18.465  0.00  0.00    +0.000 HD
ATOM     46  H   UNL     1      -7.110  -6.069  18.213  0.00  0.00    +0.000 HD
BRANCH  35  47
ATOM     47  C   UNL     1      -6.832  -2.350  22.655  0.00  0.00    +0.000 C 
ATOM     48  H   UNL     1      -6.898  -1.306  22.339  0.00  0.00    +0.000 HD
ATOM     49  H   UNL     1      -5.799  -2.587  22.922  0.00  0.00    +0.000 HD
ATOM     50  H   UNL     1      -7.503  -2.524  23.499  0.00  0.00    +0.000 HD
ENDBRANCH  35  47
ENDBRANCH  26  33
ENDBRANCH   6  25
BRANCH   1  51
ATOM     51  C   UNL     1     -10.908  -0.069  14.926  0.00  0.00    +0.000 C 
ATOM     52  H   UNL     1     -11.408   0.828  15.316  0.00  0.00    +0.000 HD
ATOM     53  H   UNL     1     -10.809   0.083  13.845  0.00  0.00    +0.000 HD
BRANCH  51  54
ATOM     54  N   UNL     1     -11.760  -1.252  15.173  0.00  0.00    +0.000 NA
BRANCH  54  55
ATOM     55  C   UNL     1     -13.074  -0.835  15.670  0.00  0.00    +0.000 C 
ATOM     56  H   UNL     1     -13.845  -1.561  15.391  0.00  0.00    +0.000 HD
ATOM     57  H   UNL     1     -13.362   0.153  15.292  0.00  0.00    +0.000 HD
ATOM     58  H   UNL     1     -13.088  -0.803  16.761  0.00  0.00    +0.000 HD
ENDBRANCH  54  55
BRANCH  54  59
ATOM     59  C   UNL     1     -11.931  -2.033  13.942  0.00  0.00    +0.000 C 
ATOM     60  H   UNL     1     -12.907  -2.530  13.935  0.00  0.00    +0.000 HD
ATOM     61  H   UNL     1     -11.182  -2.831  13.873  0.00  0.00    +0.000 HD
ATOM     62  H   UNL     1     -11.861  -1.414  13.039  0.00  0.00    +0.000 HD
ENDBRANCH  54  59
ENDBRANCH  51  54
ENDBRANCH   1  51
TORSDOF 7
ENDMDL
