REMARK  Name = 
REMARK  10 active torsions:
REMARK  status: ('A' for Active; 'I' for Inactive)
REMARK    1  A    between atoms: N_1  and  C_2
REMARK    2  A    between atoms: C_2  and  C_3
REMARK    3  A    between atoms: C_3  and  C_4
REMARK    4  A    between atoms: C_4  and  N_5
REMARK    5  A    between atoms: N_5  and  C_6
REMARK    6  A    between atoms: C_6  and  C_7
REMARK    7  A    between atoms: C_7  and  C_8
REMARK    8  A    between atoms: C_8  and  N_9
REMARK    9  A    between atoms: N_9  and  C_10
REMARK   10  A    between atoms: C_11  and  C_12
REMARK                            x       y       z     vdW  Elec       q    Type
REMARK                         _______ _______ _______ _____ _____    ______ ____
ROOT
ATOM      1  N   UNL     1      -0.343  -2.210  -0.457  0.00  0.00    +0.000 N 
ATOM      2  H   UNL     1      -0.645  -2.838  -1.211  0.00  0.00    +0.000 HD
ENDROOT
BRANCH   1   3
ATOM      3  C   UNL     1       1.045  -2.337  -0.367  0.00  0.00    +0.000 C 
ATOM      4  C   UNL     1       1.902  -2.192   0.653  0.00  0.00    +0.000 C 
ATOM      5  C   UNL     1       3.270  -2.415   0.129  0.00  0.00    +0.000 C 
ATOM      6  O   UNL     1       4.316  -2.350   0.751  0.00  0.00    +0.000 OA
ATOM      7  N   UNL     1       3.153  -2.716  -1.184  0.00  0.00    +0.000 N 
ATOM      8  C   UNL     1       1.859  -2.727  -1.556  0.00  0.00    +0.000 C 
ATOM      9  O   UNL     1       1.397  -3.014  -2.644  0.00  0.00    +0.000 OA
ATOM     10  H   UNL     1       3.925  -2.949  -1.783  0.00  0.00    +0.000 HD
BRANCH   4  11
ATOM     11  C   UNL     1       1.568  -1.964   2.005  0.00  0.00    +0.000 A 
ATOM     12  C   UNL     1       2.316  -1.753   3.146  0.00  0.00    +0.000 A 
ATOM     13  C   UNL     1       1.438  -1.786   4.263  0.00  0.00    +0.000 A 
ATOM     14  C   UNL     1       1.632  -1.720   5.655  0.00  0.00    +0.000 A 
ATOM     15  C   UNL     1       0.524  -1.829   6.503  0.00  0.00    +0.000 A 
ATOM     16  C   UNL     1      -0.759  -1.986   5.981  0.00  0.00    +0.000 A 
ATOM     17  C   UNL     1      -0.975  -2.048   4.600  0.00  0.00    +0.000 A 
ATOM     18  C   UNL     1       0.148  -1.953   3.769  0.00  0.00    +0.000 A 
ATOM     19  N   UNL     1       0.249  -2.021   2.399  0.00  0.00    +0.000 N 
ATOM     20  H   UNL     1       3.395  -1.662   3.184  0.00  0.00    +0.000 HD
ATOM     21  H   UNL     1       2.630  -1.612   6.066  0.00  0.00    +0.000 HD
ATOM     22  H   UNL     1       0.670  -1.796   7.580  0.00  0.00    +0.000 HD
ATOM     23  H   UNL     1      -1.606  -2.071   6.658  0.00  0.00    +0.000 HD
ATOM     24  H   UNL     1      -1.973  -2.183   4.197  0.00  0.00    +0.000 HD
ATOM     25  H   UNL     1      -0.526  -2.174   1.765  0.00  0.00    +0.000 HD
ENDBRANCH   4  11
ENDBRANCH   1   3
BRANCH   1  26
ATOM     26  C   UNL     1      -0.871  -0.861  -0.753  0.00  0.00    +0.000 C 
ATOM     27  H   UNL     1      -1.492  -0.533   0.087  0.00  0.00    +0.000 HD
ATOM     28  H   UNL     1      -0.038  -0.154  -0.834  0.00  0.00    +0.000 HD
BRANCH  26  29
ATOM     29  C   UNL     1      -1.693  -0.863  -2.042  0.00  0.00    +0.000 C 
ATOM     30  H   UNL     1      -1.081  -1.225  -2.879  0.00  0.00    +0.000 HD
ATOM     31  H   UNL     1      -2.524  -1.573  -1.940  0.00  0.00    +0.000 HD
BRANCH  29  32
ATOM     32  C   UNL     1      -2.265   0.518  -2.377  0.00  0.00    +0.000 C 
ATOM     33  H   UNL     1      -2.887   0.424  -3.276  0.00  0.00    +0.000 HD
ATOM     34  H   UNL     1      -2.913   0.849  -1.558  0.00  0.00    +0.000 HD
BRANCH  32  35
ATOM     35  N   UNL     1      -1.201   1.489  -2.619  0.00  0.00    +0.000 NA
ATOM     36  H   UNL     1      -0.586   1.567  -1.811  0.00  0.00    +0.000 HD
BRANCH  35  37
ATOM     37  C   UNL     1      -1.736   2.819  -2.906  0.00  0.00    +0.000 C 
ATOM     38  H   UNL     1      -2.351   2.791  -3.812  0.00  0.00    +0.000 HD
ATOM     39  H   UNL     1      -2.361   3.162  -2.074  0.00  0.00    +0.000 HD
BRANCH  37  40
ATOM     40  C   UNL     1      -0.568   3.788  -3.101  0.00  0.00    +0.000 C 
ATOM     41  H   UNL     1       0.055   3.809  -2.198  0.00  0.00    +0.000 HD
ATOM     42  H   UNL     1       0.070   3.438  -3.924  0.00  0.00    +0.000 HD
BRANCH  40  43
ATOM     43  C   UNL     1      -1.082   5.193  -3.402  0.00  0.00    +0.000 C 
ATOM     44  H   UNL     1      -1.702   5.183  -4.305  0.00  0.00    +0.000 HD
ATOM     45  H   UNL     1      -1.703   5.549  -2.573  0.00  0.00    +0.000 HD
BRANCH  43  46
ATOM     46  N   UNL     1       0.033   6.113  -3.588  0.00  0.00    +0.000 NA
ATOM     47  H   UNL     1      -0.325   7.029  -3.854  0.00  0.00    +0.000 HD
ATOM     48  H   UNL     1       0.612   5.797  -4.366  0.00  0.00    +0.000 HD
ENDBRANCH  43  46
ENDBRANCH  40  43
ENDBRANCH  37  40
ENDBRANCH  35  37
ENDBRANCH  32  35
ENDBRANCH  29  32
ENDBRANCH  26  29
ENDBRANCH   1  26
TORSDOF 10
