MODEL 1
REMARK VINA RESULT:    -9.040      0.000      0.000
REMARK INTER + INTRA:         -14.379
REMARK INTER:                 -13.267
REMARK INTRA:                  -1.112
REMARK UNBOUND:                -1.112
REMARK  Name = 
REMARK  10 active torsions:
REMARK  status: ('A' for Active; 'I' for Inactive)
REMARK    1  A    between atoms: C_1  and  O_2
REMARK    2  A    between atoms: O_2  and  C_3
REMARK    3  A    between atoms: C_3  and  C_5
REMARK    4  A    between atoms: C_9  and  N_10
REMARK    5  A    between atoms: C_11  and  C_13
REMARK    6  A    between atoms: C_13  and  N_14
REMARK    7  A    between atoms: N_14  and  C_15
REMARK    8  A    between atoms: N_14  and  C_16
REMARK    9  A    between atoms: N_19  and  C_20
REMARK   10  A    between atoms: C_27  and  C_28
REMARK                            x       y       z     vdW  Elec       q    Type
REMARK                         _______ _______ _______ _____ _____    ______ ____
ROOT
ATOM      1  C   UNL     1      -9.854  -5.874  16.726  0.00  0.00    +0.000 C 
ATOM      2  C   UNL     1     -10.884  -7.041  16.799  0.00  0.00    +0.000 C 
ATOM      3  C   UNL     1     -10.591  -7.971  17.984  0.00  0.00    +0.000 C 
ATOM      4  N   UNL     1      -9.264  -8.494  17.755  0.00  0.00    +0.000 N 
ATOM      5  C   UNL     1      -8.212  -7.502  17.950  0.00  0.00    +0.000 C 
ATOM      6  C   UNL     1      -8.395  -6.425  16.869  0.00  0.00    +0.000 C 
ATOM      7  H   UNL     1     -10.810  -7.625  15.883  0.00  0.00    +0.000 HD
ATOM      8  H   UNL     1     -11.917  -6.683  16.865  0.00  0.00    +0.000 HD
ATOM      9  H   UNL     1     -11.341  -8.750  18.106  0.00  0.00    +0.000 HD
ATOM     10  H   UNL     1     -10.628  -7.421  18.934  0.00  0.00    +0.000 HD
ATOM     11  H   UNL     1      -7.202  -7.914  17.837  0.00  0.00    +0.000 HD
ATOM     12  H   UNL     1      -8.262  -7.081  18.962  0.00  0.00    +0.000 HD
ATOM     13  H   UNL     1      -8.089  -6.905  15.933  0.00  0.00    +0.000 HD
ATOM     14  H   UNL     1      -7.683  -5.612  17.057  0.00  0.00    +0.000 HD
ENDROOT
BRANCH   4  15
ATOM     15  C   UNL     1      -8.974  -9.843  17.784  0.00  0.00    +0.000 A 
ATOM     16  N   UNL     1      -8.596 -10.362  18.993  0.00  0.00    +0.000 NA
ATOM     17  C   UNL     1      -8.270 -11.658  19.108  0.00  0.00    +0.000 A 
ATOM     18  N   UNL     1      -8.259 -12.581  18.146  0.00  0.00    +0.000 NA
ATOM     19  C   UNL     1      -8.601 -12.056  16.965  0.00  0.00    +0.000 A 
ATOM     20  N   UNL     1      -8.628 -12.799  15.822  0.00  0.00    +0.000 N 
ATOM     21  C   UNL     1      -8.947 -12.008  14.763  0.00  0.00    +0.000 A 
ATOM     22  C   UNL     1      -9.132 -10.714  15.223  0.00  0.00    +0.000 A 
ATOM     23  C   UNL     1      -8.954 -10.738  16.669  0.00  0.00    +0.000 A 
ATOM     24  H   UNL     1      -7.977 -11.992  20.098  0.00  0.00    +0.000 HD
ATOM     25  H   UNL     1      -8.400 -13.781  15.790  0.00  0.00    +0.000 HD
ATOM     26  H   UNL     1      -8.983 -12.411  13.759  0.00  0.00    +0.000 HD
BRANCH  22  27
ATOM     27  C   UNL     1      -9.396  -9.590  14.290  0.00  0.00    +0.000 C 
ATOM     28  H   UNL     1      -8.479  -9.282  13.773  0.00  0.00    +0.000 HD
ATOM     29  H   UNL     1      -9.743  -8.713  14.836  0.00  0.00    +0.000 HD
ATOM     30  H   UNL     1     -10.098  -9.859  13.499  0.00  0.00    +0.000 HD
ENDBRANCH  22  27
ENDBRANCH   4  15
BRANCH   1  32
ATOM     31  N   UNL     1      -9.165  -4.158  18.384  0.00  0.00    +0.000 N 
ATOM     32  C   UNL     1     -10.211  -4.966  17.951  0.00  0.00    +0.000 C 
ATOM     33  O   UNL     1     -11.355  -4.950  18.402  0.00  0.00    +0.000 OA
ATOM     34  H   UNL     1      -8.269  -4.325  17.930  0.00  0.00    +0.000 HD
BRANCH  31  39
ATOM     35  C   UNL     1      -8.399  -2.180  21.444  0.00  0.00    +0.000 A 
ATOM     36  C   UNL     1      -9.196  -1.047  21.239  0.00  0.00    +0.000 A 
ATOM     37  C   UNL     1     -10.033  -0.976  20.135  0.00  0.00    +0.000 A 
ATOM     38  C   UNL     1     -10.056  -2.019  19.214  0.00  0.00    +0.000 A 
ATOM     39  C   UNL     1      -9.236  -3.143  19.367  0.00  0.00    +0.000 A 
ATOM     40  C   UNL     1      -8.433  -3.239  20.512  0.00  0.00    +0.000 A 
ATOM     41  H   UNL     1      -9.172  -0.203  21.924  0.00  0.00    +0.000 HD
ATOM     42  H   UNL     1     -10.662  -0.106  19.973  0.00  0.00    +0.000 HD
ATOM     43  H   UNL     1     -10.740  -1.919  18.382  0.00  0.00    +0.000 HD
ATOM     44  H   UNL     1      -7.805  -4.110  20.678  0.00  0.00    +0.000 HD
BRANCH  35  45
ATOM     45  C   UNL     1      -7.495  -2.270  22.624  0.00  0.00    +0.000 C 
ATOM     46  O   UNL     1      -6.687  -1.407  22.927  0.00  0.00    +0.000 OA
BRANCH  45  47
ATOM     47  O   UNL     1      -7.727  -3.423  23.300  0.00  0.00    +0.000 OA
BRANCH  47  48
ATOM     48  C   UNL     1      -8.614  -3.308  24.411  0.00  0.00    +0.000 C 
ATOM     49  H   UNL     1      -9.626  -3.520  24.053  0.00  0.00    +0.000 HD
ATOM     50  H   UNL     1      -8.595  -2.287  24.805  0.00  0.00    +0.000 HD
ATOM     51  H   UNL     1      -8.364  -4.034  25.189  0.00  0.00    +0.000 HD
ENDBRANCH  47  48
ENDBRANCH  45  47
ENDBRANCH  35  45
ENDBRANCH  31  39
ENDBRANCH   1  32
BRANCH   1  52
ATOM     52  N   UNL     1     -10.061  -5.055  15.463  0.00  0.00    +0.000 NA
BRANCH  52  53
ATOM     53  C   UNL     1      -9.328  -5.607  14.307  0.00  0.00    +0.000 C 
ATOM     54  H   UNL     1      -9.544  -5.059  13.386  0.00  0.00    +0.000 HD
ATOM     55  H   UNL     1      -9.648  -6.638  14.113  0.00  0.00    +0.000 HD
ATOM     56  H   UNL     1      -8.244  -5.616  14.459  0.00  0.00    +0.000 HD
ENDBRANCH  52  53
BRANCH  52  57
ATOM     57  C   UNL     1     -11.477  -4.938  15.066  0.00  0.00    +0.000 C 
ATOM     58  H   UNL     1     -12.158  -4.984  15.919  0.00  0.00    +0.000 HD
ATOM     59  H   UNL     1     -11.779  -5.690  14.334  0.00  0.00    +0.000 HD
ATOM     60  H   UNL     1     -11.653  -3.957  14.602  0.00  0.00    +0.000 HD
ENDBRANCH  52  57
ENDBRANCH   1  52
TORSDOF 10
ENDMDL
MODEL 2
REMARK VINA RESULT:    -8.859      1.010      2.030
REMARK INTER + INTRA:         -14.114
REMARK INTER:                 -13.030
REMARK INTRA:                  -1.085
REMARK UNBOUND:                -1.112
REMARK  Name = 
REMARK  10 active torsions:
REMARK  status: ('A' for Active; 'I' for Inactive)
REMARK    1  A    between atoms: C_1  and  O_2
REMARK    2  A    between atoms: O_2  and  C_3
REMARK    3  A    between atoms: C_3  and  C_5
REMARK    4  A    between atoms: C_9  and  N_10
REMARK    5  A    between atoms: C_11  and  C_13
REMARK    6  A    between atoms: C_13  and  N_14
REMARK    7  A    between atoms: N_14  and  C_15
REMARK    8  A    between atoms: N_14  and  C_16
REMARK    9  A    between atoms: N_19  and  C_20
REMARK   10  A    between atoms: C_27  and  C_28
REMARK                            x       y       z     vdW  Elec       q    Type
REMARK                         _______ _______ _______ _____ _____    ______ ____
ROOT
ATOM      1  C   UNL     1     -10.109  -5.456  16.257  0.00  0.00    +0.000 C 
ATOM      2  C   UNL     1     -11.170  -6.596  16.220  0.00  0.00    +0.000 C 
ATOM      3  C   UNL     1     -10.786  -7.746  17.162  0.00  0.00    +0.000 C 
ATOM      4  N   UNL     1      -9.513  -8.236  16.686  0.00  0.00    +0.000 N 
ATOM      5  C   UNL     1      -8.408  -7.319  16.948  0.00  0.00    +0.000 C 
ATOM      6  C   UNL     1      -8.666  -6.048  16.123  0.00  0.00    +0.000 C 
ATOM      7  H   UNL     1     -11.218  -6.991  15.206  0.00  0.00    +0.000 HD
ATOM      8  H   UNL     1     -12.175  -6.240  16.471  0.00  0.00    +0.000 HD
ATOM      9  H   UNL     1     -11.548  -8.521  17.216  0.00  0.00    +0.000 HD
ATOM     10  H   UNL     1     -10.699  -7.392  18.198  0.00  0.00    +0.000 HD
ATOM     11  H   UNL     1      -7.434  -7.718  16.644  0.00  0.00    +0.000 HD
ATOM     12  H   UNL     1      -8.332  -7.104  18.021  0.00  0.00    +0.000 HD
ATOM     13  H   UNL     1      -8.482  -6.340  15.084  0.00  0.00    +0.000 HD
ATOM     14  H   UNL     1      -7.907  -5.300  16.382  0.00  0.00    +0.000 HD
ENDROOT
BRANCH   4  15
ATOM     15  C   UNL     1      -9.274  -9.569  16.421  0.00  0.00    +0.000 A 
ATOM     16  N   UNL     1      -9.556 -10.002  15.154  0.00  0.00    +0.000 NA
ATOM     17  C   UNL     1      -9.379 -11.288  14.817  0.00  0.00    +0.000 A 
ATOM     18  N   UNL     1      -8.936 -12.278  15.592  0.00  0.00    +0.000 NA
ATOM     19  C   UNL     1      -8.692 -11.849  16.835  0.00  0.00    +0.000 A 
ATOM     20  N   UNL     1      -8.263 -12.688  17.820  0.00  0.00    +0.000 N 
ATOM     21  C   UNL     1      -8.154 -12.008  18.993  0.00  0.00    +0.000 A 
ATOM     22  C   UNL     1      -8.522 -10.691  18.771  0.00  0.00    +0.000 A 
ATOM     23  C   UNL     1      -8.833 -10.560  17.353  0.00  0.00    +0.000 A 
ATOM     24  H   UNL     1      -9.630 -11.553  13.795  0.00  0.00    +0.000 HD
ATOM     25  H   UNL     1      -8.098 -13.673  17.680  0.00  0.00    +0.000 HD
ATOM     26  H   UNL     1      -7.859 -12.514  19.903  0.00  0.00    +0.000 HD
BRANCH  22  27
ATOM     27  C   UNL     1      -8.602  -9.711  19.883  0.00  0.00    +0.000 C 
ATOM     28  H   UNL     1      -7.681  -9.119  19.954  0.00  0.00    +0.000 HD
ATOM     29  H   UNL     1      -8.705 -10.224  20.838  0.00  0.00    +0.000 HD
ATOM     30  H   UNL     1      -9.403  -8.984  19.742  0.00  0.00    +0.000 HD
ENDBRANCH  22  27
ENDBRANCH   4  15
BRANCH   1  32
ATOM     31  N   UNL     1      -9.189  -4.087  18.113  0.00  0.00    +0.000 N 
ATOM     32  C   UNL     1     -10.296  -4.799  17.667  0.00  0.00    +0.000 C 
ATOM     33  O   UNL     1     -11.376  -4.873  18.250  0.00  0.00    +0.000 OA
ATOM     34  H   UNL     1      -8.358  -4.161  17.529  0.00  0.00    +0.000 HD
BRANCH  31  39
ATOM     35  C   UNL     1      -8.212  -2.893  21.502  0.00  0.00    +0.000 A 
ATOM     36  C   UNL     1      -8.784  -1.614  21.513  0.00  0.00    +0.000 A 
ATOM     37  C   UNL     1      -9.547  -1.185  20.437  0.00  0.00    +0.000 A 
ATOM     38  C   UNL     1      -9.717  -2.015  19.333  0.00  0.00    +0.000 A 
ATOM     39  C   UNL     1      -9.118  -3.278  19.272  0.00  0.00    +0.000 A 
ATOM     40  C   UNL     1      -8.395  -3.733  20.384  0.00  0.00    +0.000 A 
ATOM     41  H   UNL     1      -8.638  -0.933  22.347  0.00  0.00    +0.000 HD
ATOM     42  H   UNL     1     -10.003  -0.201  20.440  0.00  0.00    +0.000 HD
ATOM     43  H   UNL     1     -10.336  -1.636  18.530  0.00  0.00    +0.000 HD
ATOM     44  H   UNL     1      -7.940  -4.720  20.384  0.00  0.00    +0.000 HD
BRANCH  35  45
ATOM     45  C   UNL     1      -7.388  -3.367  22.649  0.00  0.00    +0.000 C 
ATOM     46  O   UNL     1      -6.338  -3.977  22.524  0.00  0.00    +0.000 OA
BRANCH  45  47
ATOM     47  O   UNL     1      -7.966  -2.998  23.819  0.00  0.00    +0.000 OA
BRANCH  47  48
ATOM     48  C   UNL     1      -8.038  -4.021  24.811  0.00  0.00    +0.000 C 
ATOM     49  H   UNL     1      -7.095  -4.013  25.366  0.00  0.00    +0.000 HD
ATOM     50  H   UNL     1      -8.150  -5.000  24.336  0.00  0.00    +0.000 HD
ATOM     51  H   UNL     1      -8.853  -3.829  25.513  0.00  0.00    +0.000 HD
ENDBRANCH  47  48
ENDBRANCH  45  47
ENDBRANCH  35  45
ENDBRANCH  31  39
ENDBRANCH   1  32
BRANCH   1  52
ATOM     52  N   UNL     1     -10.420  -4.401  15.208  0.00  0.00    +0.000 NA
BRANCH  52  53
ATOM     53  C   UNL     1      -9.578  -4.539  14.003  0.00  0.00    +0.000 C 
ATOM     54  H   UNL     1      -8.660  -5.097  14.208  0.00  0.00    +0.000 HD
ATOM     55  H   UNL     1      -9.247  -3.553  13.657  0.00  0.00    +0.000 HD
ATOM     56  H   UNL     1     -10.102  -5.026  13.175  0.00  0.00    +0.000 HD
ENDBRANCH  52  53
BRANCH  52  57
ATOM     57  C   UNL     1     -11.826  -4.416  14.760  0.00  0.00    +0.000 C 
ATOM     58  H   UNL     1     -11.920  -4.425  13.672  0.00  0.00    +0.000 HD
ATOM     59  H   UNL     1     -12.409  -3.581  15.156  0.00  0.00    +0.000 HD
ATOM     60  H   UNL     1     -12.316  -5.337  15.106  0.00  0.00    +0.000 HD
ENDBRANCH  52  57
ENDBRANCH   1  52
TORSDOF 10
ENDMDL
MODEL 3
REMARK VINA RESULT:    -8.800      2.526      5.221
REMARK INTER + INTRA:         -14.027
REMARK INTER:                 -13.967
REMARK INTRA:                  -0.060
REMARK UNBOUND:                -1.112
REMARK  Name = 
REMARK  10 active torsions:
REMARK  status: ('A' for Active; 'I' for Inactive)
REMARK    1  A    between atoms: C_1  and  O_2
REMARK    2  A    between atoms: O_2  and  C_3
REMARK    3  A    between atoms: C_3  and  C_5
REMARK    4  A    between atoms: C_9  and  N_10
REMARK    5  A    between atoms: C_11  and  C_13
REMARK    6  A    between atoms: C_13  and  N_14
REMARK    7  A    between atoms: N_14  and  C_15
REMARK    8  A    between atoms: N_14  and  C_16
REMARK    9  A    between atoms: N_19  and  C_20
REMARK   10  A    between atoms: C_27  and  C_28
REMARK                            x       y       z     vdW  Elec       q    Type
REMARK                         _______ _______ _______ _____ _____    ______ ____
ROOT
ATOM      1  C   UNL     1      -8.503  -6.210  18.680  0.00  0.00    +0.000 C 
ATOM      2  C   UNL     1      -8.008  -6.908  17.378  0.00  0.00    +0.000 C 
ATOM      3  C   UNL     1      -8.959  -8.034  16.952  0.00  0.00    +0.000 C 
ATOM      4  N   UNL     1      -8.969  -8.976  18.047  0.00  0.00    +0.000 N 
ATOM      5  C   UNL     1      -9.677  -8.483  19.225  0.00  0.00    +0.000 C 
ATOM      6  C   UNL     1      -8.887  -7.277  19.759  0.00  0.00    +0.000 C 
ATOM      7  H   UNL     1      -7.029  -7.345  17.571  0.00  0.00    +0.000 HD
ATOM      8  H   UNL     1      -7.883  -6.203  16.548  0.00  0.00    +0.000 HD
ATOM      9  H   UNL     1      -8.681  -8.487  16.003  0.00  0.00    +0.000 HD
ATOM     10  H   UNL     1      -9.970  -7.646  16.770  0.00  0.00    +0.000 HD
ATOM     11  H   UNL     1      -9.738  -9.221  20.033  0.00  0.00    +0.000 HD
ATOM     12  H   UNL     1     -10.710  -8.218  18.970  0.00  0.00    +0.000 HD
ATOM     13  H   UNL     1      -7.978  -7.702  20.197  0.00  0.00    +0.000 HD
ATOM     14  H   UNL     1      -9.453  -6.822  20.581  0.00  0.00    +0.000 HD
ENDROOT
BRANCH   4  15
ATOM     15  C   UNL     1      -8.740 -10.326  17.878  0.00  0.00    +0.000 A 
ATOM     16  N   UNL     1      -8.407 -11.037  18.999  0.00  0.00    +0.000 NA
ATOM     17  C   UNL     1      -8.142 -12.349  18.922  0.00  0.00    +0.000 A 
ATOM     18  N   UNL     1      -8.155 -13.118  17.833  0.00  0.00    +0.000 NA
ATOM     19  C   UNL     1      -8.452 -12.408  16.740  0.00  0.00    +0.000 A 
ATOM     20  N   UNL     1      -8.492 -12.969  15.499  0.00  0.00    +0.000 N 
ATOM     21  C   UNL     1      -8.757 -12.015  14.567  0.00  0.00    +0.000 A 
ATOM     22  C   UNL     1      -8.892 -10.797  15.213  0.00  0.00    +0.000 A 
ATOM     23  C   UNL     1      -8.740 -11.045  16.641  0.00  0.00    +0.000 A 
ATOM     24  H   UNL     1      -7.881 -12.840  19.854  0.00  0.00    +0.000 HD
ATOM     25  H   UNL     1      -8.308 -13.945  15.323  0.00  0.00    +0.000 HD
ATOM     26  H   UNL     1      -8.793 -12.262  13.513  0.00  0.00    +0.000 HD
BRANCH  22  27
ATOM     27  C   UNL     1      -9.090  -9.536  14.456  0.00  0.00    +0.000 C 
ATOM     28  H   UNL     1     -10.085  -9.114  14.644  0.00  0.00    +0.000 HD
ATOM     29  H   UNL     1      -9.039  -9.722  13.384  0.00  0.00    +0.000 HD
ATOM     30  H   UNL     1      -8.385  -8.757  14.751  0.00  0.00    +0.000 HD
ENDBRANCH  22  27
ENDBRANCH   4  15
BRANCH   1  32
ATOM     31  N   UNL     1      -9.496  -4.287  17.462  0.00  0.00    +0.000 N 
ATOM     32  C   UNL     1      -9.774  -5.412  18.232  0.00  0.00    +0.000 C 
ATOM     33  O   UNL     1     -10.899  -5.830  18.498  0.00  0.00    +0.000 OA
ATOM     34  H   UNL     1      -8.508  -4.056  17.369  0.00  0.00    +0.000 HD
BRANCH  31  39
ATOM     35  C   UNL     1     -11.649  -2.883  14.768  0.00  0.00    +0.000 A 
ATOM     36  C   UNL     1     -12.446  -1.992  15.497  0.00  0.00    +0.000 A 
ATOM     37  C   UNL     1     -12.220  -1.806  16.853  0.00  0.00    +0.000 A 
ATOM     38  C   UNL     1     -11.219  -2.530  17.495  0.00  0.00    +0.000 A 
ATOM     39  C   UNL     1     -10.439  -3.463  16.803  0.00  0.00    +0.000 A 
ATOM     40  C   UNL     1     -10.631  -3.609  15.422  0.00  0.00    +0.000 A 
ATOM     41  H   UNL     1     -13.256  -1.439  15.028  0.00  0.00    +0.000 HD
ATOM     42  H   UNL     1     -12.825  -1.109  17.424  0.00  0.00    +0.000 HD
ATOM     43  H   UNL     1     -11.075  -2.332  18.548  0.00  0.00    +0.000 HD
ATOM     44  H   UNL     1     -10.024  -4.303  14.847  0.00  0.00    +0.000 HD
BRANCH  35  45
ATOM     45  C   UNL     1     -11.881  -3.095  13.312  0.00  0.00    +0.000 C 
ATOM     46  O   UNL     1     -11.480  -4.069  12.696  0.00  0.00    +0.000 OA
BRANCH  45  47
ATOM     47  O   UNL     1     -12.611  -2.071  12.805  0.00  0.00    +0.000 OA
BRANCH  47  48
ATOM     48  C   UNL     1     -13.009  -2.224  11.443  0.00  0.00    +0.000 C 
ATOM     49  H   UNL     1     -13.775  -3.004  11.405  0.00  0.00    +0.000 HD
ATOM     50  H   UNL     1     -12.158  -2.545  10.835  0.00  0.00    +0.000 HD
ATOM     51  H   UNL     1     -13.441  -1.297  11.055  0.00  0.00    +0.000 HD
ENDBRANCH  47  48
ENDBRANCH  45  47
ENDBRANCH  35  45
ENDBRANCH  31  39
ENDBRANCH   1  32
BRANCH   1  52
ATOM     52  N   UNL     1      -7.474  -5.206  19.175  0.00  0.00    +0.000 NA
BRANCH  52  53
ATOM     53  C   UNL     1      -7.730  -4.775  20.563  0.00  0.00    +0.000 C 
ATOM     54  H   UNL     1      -8.436  -3.941  20.608  0.00  0.00    +0.000 HD
ATOM     55  H   UNL     1      -6.807  -4.398  21.019  0.00  0.00    +0.000 HD
ATOM     56  H   UNL     1      -8.108  -5.585  21.194  0.00  0.00    +0.000 HD
ENDBRANCH  52  53
BRANCH  52  57
ATOM     57  C   UNL     1      -6.089  -5.714  19.125  0.00  0.00    +0.000 C 
ATOM     58  H   UNL     1      -5.396  -4.999  18.674  0.00  0.00    +0.000 HD
ATOM     59  H   UNL     1      -6.002  -6.667  18.599  0.00  0.00    +0.000 HD
ATOM     60  H   UNL     1      -5.718  -5.880  20.146  0.00  0.00    +0.000 HD
ENDBRANCH  52  57
ENDBRANCH   1  52
TORSDOF 10
ENDMDL
MODEL 4
REMARK VINA RESULT:    -8.777      1.449      2.643
REMARK INTER + INTRA:         -13.994
REMARK INTER:                 -14.244
REMARK INTRA:                   0.251
REMARK UNBOUND:                -1.112
REMARK  Name = 
REMARK  10 active torsions:
REMARK  status: ('A' for Active; 'I' for Inactive)
REMARK    1  A    between atoms: C_1  and  O_2
REMARK    2  A    between atoms: O_2  and  C_3
REMARK    3  A    between atoms: C_3  and  C_5
REMARK    4  A    between atoms: C_9  and  N_10
REMARK    5  A    between atoms: C_11  and  C_13
REMARK    6  A    between atoms: C_13  and  N_14
REMARK    7  A    between atoms: N_14  and  C_15
REMARK    8  A    between atoms: N_14  and  C_16
REMARK    9  A    between atoms: N_19  and  C_20
REMARK   10  A    between atoms: C_27  and  C_28
REMARK                            x       y       z     vdW  Elec       q    Type
REMARK                         _______ _______ _______ _____ _____    ______ ____
ROOT
ATOM      1  C   UNL     1     -10.247  -5.340  17.101  0.00  0.00    +0.000 C 
ATOM      2  C   UNL     1     -11.096  -6.566  17.550  0.00  0.00    +0.000 C 
ATOM      3  C   UNL     1     -10.204  -7.711  18.048  0.00  0.00    +0.000 C 
ATOM      4  N   UNL     1      -9.364  -8.071  16.929  0.00  0.00    +0.000 N 
ATOM      5  C   UNL     1      -8.344  -7.072  16.628  0.00  0.00    +0.000 C 
ATOM      6  C   UNL     1      -9.075  -5.799  16.171  0.00  0.00    +0.000 C 
ATOM      7  H   UNL     1     -11.663  -6.927  16.693  0.00  0.00    +0.000 HD
ATOM      8  H   UNL     1     -11.825  -6.308  18.328  0.00  0.00    +0.000 HD
ATOM      9  H   UNL     1     -10.772  -8.551  18.442  0.00  0.00    +0.000 HD
ATOM     10  H   UNL     1      -9.590  -7.388  18.900  0.00  0.00    +0.000 HD
ATOM     11  H   UNL     1      -7.669  -7.373  15.819  0.00  0.00    +0.000 HD
ATOM     12  H   UNL     1      -7.713  -6.890  17.506  0.00  0.00    +0.000 HD
ATOM     13  H   UNL     1      -9.466  -6.036  15.176  0.00  0.00    +0.000 HD
ATOM     14  H   UNL     1      -8.338  -4.998  16.039  0.00  0.00    +0.000 HD
ENDROOT
BRANCH   4  15
ATOM     15  C   UNL     1      -9.235  -9.368  16.475  0.00  0.00    +0.000 A 
ATOM     16  N   UNL     1      -9.599  -9.602  15.177  0.00  0.00    +0.000 NA
ATOM     17  C   UNL     1      -9.530 -10.838  14.661  0.00  0.00    +0.000 A 
ATOM     18  N   UNL     1      -9.130 -11.953  15.272  0.00  0.00    +0.000 NA
ATOM     19  C   UNL     1      -8.806 -11.717  16.548  0.00  0.00    +0.000 A 
ATOM     20  N   UNL     1      -8.401 -12.711  17.389  0.00  0.00    +0.000 N 
ATOM     21  C   UNL     1      -8.195 -12.209  18.635  0.00  0.00    +0.000 A 
ATOM     22  C   UNL     1      -8.474 -10.851  18.612  0.00  0.00    +0.000 A 
ATOM     23  C   UNL     1      -8.831 -10.506  17.242  0.00  0.00    +0.000 A 
ATOM     24  H   UNL     1      -9.840 -10.942  13.626  0.00  0.00    +0.000 HD
ATOM     25  H   UNL     1      -8.314 -13.676  17.109  0.00  0.00    +0.000 HD
ATOM     26  H   UNL     1      -7.902 -12.854  19.454  0.00  0.00    +0.000 HD
BRANCH  22  27
ATOM     27  C   UNL     1      -8.437 -10.031  19.848  0.00  0.00    +0.000 C 
ATOM     28  H   UNL     1      -8.909  -9.054  19.688  0.00  0.00    +0.000 HD
ATOM     29  H   UNL     1      -7.408  -9.824  20.139  0.00  0.00    +0.000 HD
ATOM     30  H   UNL     1      -8.990 -10.489  20.670  0.00  0.00    +0.000 HD
ENDBRANCH  22  27
ENDBRANCH   4  15
BRANCH   1  32
ATOM     31  N   UNL     1      -8.349  -5.080  18.682  0.00  0.00    +0.000 N 
ATOM     32  C   UNL     1      -9.678  -4.753  18.438  0.00  0.00    +0.000 C 
ATOM     33  O   UNL     1     -10.366  -4.009  19.135  0.00  0.00    +0.000 OA
ATOM     34  H   UNL     1      -7.935  -5.742  18.026  0.00  0.00    +0.000 HD
BRANCH  31  39
ATOM     35  C   UNL     1      -7.325  -3.257  21.763  0.00  0.00    +0.000 A 
ATOM     36  C   UNL     1      -6.016  -3.725  21.930  0.00  0.00    +0.000 A 
ATOM     37  C   UNL     1      -5.456  -4.577  20.990  0.00  0.00    +0.000 A 
ATOM     38  C   UNL     1      -6.209  -4.992  19.895  0.00  0.00    +0.000 A 
ATOM     39  C   UNL     1      -7.536  -4.580  19.726  0.00  0.00    +0.000 A 
ATOM     40  C   UNL     1      -8.081  -3.674  20.647  0.00  0.00    +0.000 A 
ATOM     41  H   UNL     1      -5.418  -3.444  22.794  0.00  0.00    +0.000 HD
ATOM     42  H   UNL     1      -4.439  -4.936  21.105  0.00  0.00    +0.000 HD
ATOM     43  H   UNL     1      -5.717  -5.642  19.184  0.00  0.00    +0.000 HD
ATOM     44  H   UNL     1      -9.099  -3.310  20.531  0.00  0.00    +0.000 HD
BRANCH  35  45
ATOM     45  C   UNL     1      -7.941  -2.343  22.765  0.00  0.00    +0.000 C 
ATOM     46  O   UNL     1      -7.600  -1.182  22.923  0.00  0.00    +0.000 OA
BRANCH  45  47
ATOM     47  O   UNL     1      -8.929  -2.986  23.434  0.00  0.00    +0.000 OA
BRANCH  47  48
ATOM     48  C   UNL     1      -8.555  -3.524  24.702  0.00  0.00    +0.000 C 
ATOM     49  H   UNL     1      -8.969  -4.535  24.769  0.00  0.00    +0.000 HD
ATOM     50  H   UNL     1      -8.984  -2.922  25.508  0.00  0.00    +0.000 HD
ATOM     51  H   UNL     1      -7.468  -3.589  24.794  0.00  0.00    +0.000 HD
ENDBRANCH  47  48
ENDBRANCH  45  47
ENDBRANCH  35  45
ENDBRANCH  31  39
ENDBRANCH   1  32
BRANCH   1  52
ATOM     52  N   UNL     1     -11.131  -4.279  16.467  0.00  0.00    +0.000 NA
BRANCH  52  53
ATOM     53  C   UNL     1     -10.373  -3.075  16.074  0.00  0.00    +0.000 C 
ATOM     54  H   UNL     1      -9.408  -3.328  15.626  0.00  0.00    +0.000 HD
ATOM     55  H   UNL     1     -10.134  -2.472  16.957  0.00  0.00    +0.000 HD
ATOM     56  H   UNL     1     -10.923  -2.439  15.373  0.00  0.00    +0.000 HD
ENDBRANCH  52  53
BRANCH  52  57
ATOM     57  C   UNL     1     -11.848  -4.753  15.268  0.00  0.00    +0.000 C 
ATOM     58  H   UNL     1     -11.850  -4.017  14.461  0.00  0.00    +0.000 HD
ATOM     59  H   UNL     1     -12.879  -5.050  15.475  0.00  0.00    +0.000 HD
ATOM     60  H   UNL     1     -11.341  -5.638  14.858  0.00  0.00    +0.000 HD
ENDBRANCH  52  57
ENDBRANCH   1  52
TORSDOF 10
ENDMDL
MODEL 5
REMARK VINA RESULT:    -8.721      1.539      1.930
REMARK INTER + INTRA:         -13.911
REMARK INTER:                 -13.595
REMARK INTRA:                  -0.316
REMARK UNBOUND:                -1.112
REMARK  Name = 
REMARK  10 active torsions:
REMARK  status: ('A' for Active; 'I' for Inactive)
REMARK    1  A    between atoms: C_1  and  O_2
REMARK    2  A    between atoms: O_2  and  C_3
REMARK    3  A    between atoms: C_3  and  C_5
REMARK    4  A    between atoms: C_9  and  N_10
REMARK    5  A    between atoms: C_11  and  C_13
REMARK    6  A    between atoms: C_13  and  N_14
REMARK    7  A    between atoms: N_14  and  C_15
REMARK    8  A    between atoms: N_14  and  C_16
REMARK    9  A    between atoms: N_19  and  C_20
REMARK   10  A    between atoms: C_27  and  C_28
REMARK                            x       y       z     vdW  Elec       q    Type
REMARK                         _______ _______ _______ _____ _____    ______ ____
ROOT
ATOM      1  C   UNL     1      -9.693  -5.869  17.345  0.00  0.00    +0.000 C 
ATOM      2  C   UNL     1     -10.681  -6.924  17.924  0.00  0.00    +0.000 C 
ATOM      3  C   UNL     1      -9.958  -7.927  18.833  0.00  0.00    +0.000 C 
ATOM      4  N   UNL     1      -8.972  -8.575  17.998  0.00  0.00    +0.000 N 
ATOM      5  C   UNL     1      -7.855  -7.706  17.645  0.00  0.00    +0.000 C 
ATOM      6  C   UNL     1      -8.418  -6.572  16.772  0.00  0.00    +0.000 C 
ATOM      7  H   UNL     1     -11.124  -7.475  17.096  0.00  0.00    +0.000 HD
ATOM      8  H   UNL     1     -11.508  -6.464  18.477  0.00  0.00    +0.000 HD
ATOM      9  H   UNL     1     -10.636  -8.629  19.314  0.00  0.00    +0.000 HD
ATOM     10  H   UNL     1      -9.471  -7.415  19.674  0.00  0.00    +0.000 HD
ATOM     11  H   UNL     1      -7.077  -8.215  17.064  0.00  0.00    +0.000 HD
ATOM     12  H   UNL     1      -7.364  -7.324  18.548  0.00  0.00    +0.000 HD
ATOM     13  H   UNL     1      -8.656  -7.043  15.812  0.00  0.00    +0.000 HD
ATOM     14  H   UNL     1      -7.619  -5.846  16.580  0.00  0.00    +0.000 HD
ENDROOT
BRANCH   4  15
ATOM     15  C   UNL     1      -8.855  -9.946  17.903  0.00  0.00    +0.000 A 
ATOM     16  N   UNL     1      -8.609 -10.622  19.067  0.00  0.00    +0.000 NA
ATOM     17  C   UNL     1      -8.454 -11.955  19.064  0.00  0.00    +0.000 A 
ATOM     18  N   UNL     1      -8.508 -12.776  18.015  0.00  0.00    +0.000 NA
ATOM     19  C   UNL     1      -8.718 -12.102  16.879  0.00  0.00    +0.000 A 
ATOM     20  N   UNL     1      -8.777 -12.722  15.668  0.00  0.00    +0.000 N 
ATOM     21  C   UNL     1      -8.938 -11.800  14.682  0.00  0.00    +0.000 A 
ATOM     22  C   UNL     1      -8.985 -10.542  15.262  0.00  0.00    +0.000 A 
ATOM     23  C   UNL     1      -8.887 -10.727  16.704  0.00  0.00    +0.000 A 
ATOM     24  H   UNL     1      -8.258 -12.416  20.026  0.00  0.00    +0.000 HD
ATOM     25  H   UNL     1      -8.672 -13.718  15.546  0.00  0.00    +0.000 HD
ATOM     26  H   UNL     1      -8.971 -12.098  13.641  0.00  0.00    +0.000 HD
BRANCH  22  27
ATOM     27  C   UNL     1      -9.057  -9.310  14.437  0.00  0.00    +0.000 C 
ATOM     28  H   UNL     1      -9.206  -8.423  15.066  0.00  0.00    +0.000 HD
ATOM     29  H   UNL     1      -9.913  -9.351  13.765  0.00  0.00    +0.000 HD
ATOM     30  H   UNL     1      -8.135  -9.123  13.885  0.00  0.00    +0.000 HD
ENDBRANCH  22  27
ENDBRANCH   4  15
BRANCH   1  32
ATOM     31  N   UNL     1      -8.170  -5.398  19.250  0.00  0.00    +0.000 N 
ATOM     32  C   UNL     1      -9.312  -4.979  18.577  0.00  0.00    +0.000 C 
ATOM     33  O   UNL     1      -9.956  -3.963  18.835  0.00  0.00    +0.000 OA
ATOM     34  H   UNL     1      -7.778  -6.284  18.933  0.00  0.00    +0.000 HD
BRANCH  31  39
ATOM     35  C   UNL     1      -7.606  -3.691  22.510  0.00  0.00    +0.000 A 
ATOM     36  C   UNL     1      -6.214  -3.541  22.499  0.00  0.00    +0.000 A 
ATOM     37  C   UNL     1      -5.481  -3.934  21.388  0.00  0.00    +0.000 A 
ATOM     38  C   UNL     1      -6.129  -4.508  20.298  0.00  0.00    +0.000 A 
ATOM     39  C   UNL     1      -7.513  -4.716  20.300  0.00  0.00    +0.000 A 
ATOM     40  C   UNL     1      -8.258  -4.266  21.399  0.00  0.00    +0.000 A 
ATOM     41  H   UNL     1      -5.679  -3.128  23.350  0.00  0.00    +0.000 HD
ATOM     42  H   UNL     1      -4.403  -3.812  21.365  0.00  0.00    +0.000 HD
ATOM     43  H   UNL     1      -5.511  -4.780  19.452  0.00  0.00    +0.000 HD
ATOM     44  H   UNL     1      -9.338  -4.385  21.423  0.00  0.00    +0.000 HD
BRANCH  35  45
ATOM     45  C   UNL     1      -8.406  -3.275  23.696  0.00  0.00    +0.000 C 
ATOM     46  O   UNL     1      -8.094  -3.531  24.848  0.00  0.00    +0.000 OA
BRANCH  45  47
ATOM     47  O   UNL     1      -9.490  -2.565  23.298  0.00  0.00    +0.000 OA
BRANCH  47  48
ATOM     48  C   UNL     1     -10.579  -2.548  24.221  0.00  0.00    +0.000 C 
ATOM     49  H   UNL     1     -10.161  -2.611  25.230  0.00  0.00    +0.000 HD
ATOM     50  H   UNL     1     -11.223  -3.418  24.059  0.00  0.00    +0.000 HD
ATOM     51  H   UNL     1     -11.146  -1.618  24.140  0.00  0.00    +0.000 HD
ENDBRANCH  47  48
ENDBRANCH  45  47
ENDBRANCH  35  45
ENDBRANCH  31  39
ENDBRANCH   1  32
BRANCH   1  52
ATOM     52  N   UNL     1     -10.392  -4.981  16.328  0.00  0.00    +0.000 NA
BRANCH  52  53
ATOM     53  C   UNL     1      -9.826  -5.125  14.973  0.00  0.00    +0.000 C 
ATOM     54  H   UNL     1      -9.359  -4.200  14.624  0.00  0.00    +0.000 HD
ATOM     55  H   UNL     1     -10.623  -5.337  14.250  0.00  0.00    +0.000 HD
ATOM     56  H   UNL     1      -9.090  -5.931  14.905  0.00  0.00    +0.000 HD
ENDBRANCH  52  53
BRANCH  52  57
ATOM     57  C   UNL     1     -11.841  -5.237  16.225  0.00  0.00    +0.000 C 
ATOM     58  H   UNL     1     -12.387  -4.397  15.790  0.00  0.00    +0.000 HD
ATOM     59  H   UNL     1     -12.299  -5.496  17.182  0.00  0.00    +0.000 HD
ATOM     60  H   UNL     1     -12.021  -6.085  15.549  0.00  0.00    +0.000 HD
ENDBRANCH  52  57
ENDBRANCH   1  52
TORSDOF 10
ENDMDL
MODEL 6
REMARK VINA RESULT:    -8.712      2.529      4.618
REMARK INTER + INTRA:         -13.899
REMARK INTER:                 -13.614
REMARK INTRA:                  -0.285
REMARK UNBOUND:                -1.112
REMARK  Name = 
REMARK  10 active torsions:
REMARK  status: ('A' for Active; 'I' for Inactive)
REMARK    1  A    between atoms: C_1  and  O_2
REMARK    2  A    between atoms: O_2  and  C_3
REMARK    3  A    between atoms: C_3  and  C_5
REMARK    4  A    between atoms: C_9  and  N_10
REMARK    5  A    between atoms: C_11  and  C_13
REMARK    6  A    between atoms: C_13  and  N_14
REMARK    7  A    between atoms: N_14  and  C_15
REMARK    8  A    between atoms: N_14  and  C_16
REMARK    9  A    between atoms: N_19  and  C_20
REMARK   10  A    between atoms: C_27  and  C_28
REMARK                            x       y       z     vdW  Elec       q    Type
REMARK                         _______ _______ _______ _____ _____    ______ ____
ROOT
ATOM      1  C   UNL     1      -8.660  -6.230  18.486  0.00  0.00    +0.000 C 
ATOM      2  C   UNL     1      -8.052  -6.980  17.264  0.00  0.00    +0.000 C 
ATOM      3  C   UNL     1      -8.951  -8.141  16.817  0.00  0.00    +0.000 C 
ATOM      4  N   UNL     1      -9.040  -9.030  17.953  0.00  0.00    +0.000 N 
ATOM      5  C   UNL     1      -9.847  -8.494  19.043  0.00  0.00    +0.000 C 
ATOM      6  C   UNL     1      -9.119  -7.251  19.581  0.00  0.00    +0.000 C 
ATOM      7  H   UNL     1      -7.087  -7.393  17.557  0.00  0.00    +0.000 HD
ATOM      8  H   UNL     1      -7.868  -6.315  16.413  0.00  0.00    +0.000 HD
ATOM      9  H   UNL     1      -8.591  -8.634  15.917  0.00  0.00    +0.000 HD
ATOM     10  H   UNL     1      -9.949  -7.778  16.535  0.00  0.00    +0.000 HD
ATOM     11  H   UNL     1      -9.966  -9.193  19.879  0.00  0.00    +0.000 HD
ATOM     12  H   UNL     1     -10.859  -8.257  18.693  0.00  0.00    +0.000 HD
ATOM     13  H   UNL     1      -8.243  -7.640  20.111  0.00  0.00    +0.000 HD
ATOM     14  H   UNL     1      -9.755  -6.766  20.331  0.00  0.00    +0.000 HD
ENDROOT
BRANCH   4  15
ATOM     15  C   UNL     1      -8.781 -10.383  17.868  0.00  0.00    +0.000 A 
ATOM     16  N   UNL     1      -8.406 -11.008  19.026  0.00  0.00    +0.000 NA
ATOM     17  C   UNL     1      -8.109 -12.317  19.031  0.00  0.00    +0.000 A 
ATOM     18  N   UNL     1      -8.127 -13.157  17.997  0.00  0.00    +0.000 NA
ATOM     19  C   UNL     1      -8.466 -12.529  16.865  0.00  0.00    +0.000 A 
ATOM     20  N   UNL     1      -8.518 -13.173  15.666  0.00  0.00    +0.000 N 
ATOM     21  C   UNL     1      -8.827 -12.291  14.678  0.00  0.00    +0.000 A 
ATOM     22  C   UNL     1      -8.979 -11.035  15.245  0.00  0.00    +0.000 A 
ATOM     23  C   UNL     1      -8.790 -11.183  16.683  0.00  0.00    +0.000 A 
ATOM     24  H   UNL     1      -7.817 -12.738  19.987  0.00  0.00    +0.000 HD
ATOM     25  H   UNL     1      -8.314 -14.154  15.551  0.00  0.00    +0.000 HD
ATOM     26  H   UNL     1      -8.881 -12.609  13.645  0.00  0.00    +0.000 HD
BRANCH  22  27
ATOM     27  C   UNL     1      -9.224  -9.832  14.411  0.00  0.00    +0.000 C 
ATOM     28  H   UNL     1      -8.332  -9.196  14.364  0.00  0.00    +0.000 HD
ATOM     29  H   UNL     1     -10.010  -9.218  14.848  0.00  0.00    +0.000 HD
ATOM     30  H   UNL     1      -9.456 -10.083  13.375  0.00  0.00    +0.000 HD
ENDBRANCH  22  27
ENDBRANCH   4  15
BRANCH   1  32
ATOM     31  N   UNL     1      -9.618  -4.713  16.769  0.00  0.00    +0.000 N 
ATOM     32  C   UNL     1      -9.900  -5.475  17.898  0.00  0.00    +0.000 C 
ATOM     33  O   UNL     1     -11.018  -5.638  18.383  0.00  0.00    +0.000 OA
ATOM     34  H   UNL     1      -8.632  -4.649  16.521  0.00  0.00    +0.000 HD
BRANCH  31  39
ATOM     35  C   UNL     1     -12.042  -2.145  15.588  0.00  0.00    +0.000 A 
ATOM     36  C   UNL     1     -12.268  -2.573  14.273  0.00  0.00    +0.000 A 
ATOM     37  C   UNL     1     -11.680  -3.741  13.811  0.00  0.00    +0.000 A 
ATOM     38  C   UNL     1     -10.839  -4.472  14.646  0.00  0.00    +0.000 A 
ATOM     39  C   UNL     1     -10.556  -4.044  15.948  0.00  0.00    +0.000 A 
ATOM     40  C   UNL     1     -11.196  -2.894  16.432  0.00  0.00    +0.000 A 
ATOM     41  H   UNL     1     -12.893  -2.003  13.589  0.00  0.00    +0.000 HD
ATOM     42  H   UNL     1     -11.858  -4.086  12.798  0.00  0.00    +0.000 HD
ATOM     43  H   UNL     1     -10.422  -5.383  14.240  0.00  0.00    +0.000 HD
ATOM     44  H   UNL     1     -11.022  -2.548  17.448  0.00  0.00    +0.000 HD
BRANCH  35  45
ATOM     45  C   UNL     1     -12.665  -0.892  16.098  0.00  0.00    +0.000 C 
ATOM     46  O   UNL     1     -13.760  -0.487  15.744  0.00  0.00    +0.000 OA
BRANCH  45  47
ATOM     47  O   UNL     1     -11.852  -0.309  17.012  0.00  0.00    +0.000 OA
BRANCH  47  48
ATOM     48  C   UNL     1     -12.283   0.968  17.483  0.00  0.00    +0.000 C 
ATOM     49  H   UNL     1     -13.227   0.825  18.015  0.00  0.00    +0.000 HD
ATOM     50  H   UNL     1     -12.461   1.641  16.639  0.00  0.00    +0.000 HD
ATOM     51  H   UNL     1     -11.555   1.394  18.179  0.00  0.00    +0.000 HD
ENDBRANCH  47  48
ENDBRANCH  45  47
ENDBRANCH  35  45
ENDBRANCH  31  39
ENDBRANCH   1  32
BRANCH   1  52
ATOM     52  N   UNL     1      -7.688  -5.188  19.013  0.00  0.00    +0.000 NA
BRANCH  52  53
ATOM     53  C   UNL     1      -8.114  -4.624  20.309  0.00  0.00    +0.000 C 
ATOM     54  H   UNL     1      -9.203  -4.575  20.395  0.00  0.00    +0.000 HD
ATOM     55  H   UNL     1      -7.769  -3.587  20.403  0.00  0.00    +0.000 HD
ATOM     56  H   UNL     1      -7.723  -5.185  21.163  0.00  0.00    +0.000 HD
ENDBRANCH  52  53
BRANCH  52  57
ATOM     57  C   UNL     1      -6.317  -5.702  19.192  0.00  0.00    +0.000 C 
ATOM     58  H   UNL     1      -5.912  -6.146  18.280  0.00  0.00    +0.000 HD
ATOM     59  H   UNL     1      -6.236  -6.431  20.002  0.00  0.00    +0.000 HD
ATOM     60  H   UNL     1      -5.639  -4.875  19.443  0.00  0.00    +0.000 HD
ENDBRANCH  52  57
ENDBRANCH   1  52
TORSDOF 10
ENDMDL
MODEL 7
REMARK VINA RESULT:    -8.656      3.091      6.015
REMARK INTER + INTRA:         -13.816
REMARK INTER:                 -13.545
REMARK INTRA:                  -0.270
REMARK UNBOUND:                -1.112
REMARK  Name = 
REMARK  10 active torsions:
REMARK  status: ('A' for Active; 'I' for Inactive)
REMARK    1  A    between atoms: C_1  and  O_2
REMARK    2  A    between atoms: O_2  and  C_3
REMARK    3  A    between atoms: C_3  and  C_5
REMARK    4  A    between atoms: C_9  and  N_10
REMARK    5  A    between atoms: C_11  and  C_13
REMARK    6  A    between atoms: C_13  and  N_14
REMARK    7  A    between atoms: N_14  and  C_15
REMARK    8  A    between atoms: N_14  and  C_16
REMARK    9  A    between atoms: N_19  and  C_20
REMARK   10  A    between atoms: C_27  and  C_28
REMARK                            x       y       z     vdW  Elec       q    Type
REMARK                         _______ _______ _______ _____ _____    ______ ____
ROOT
ATOM      1  C   UNL     1      -9.848  -5.463  17.549  0.00  0.00    +0.000 C 
ATOM      2  C   UNL     1      -8.608  -6.181  16.938  0.00  0.00    +0.000 C 
ATOM      3  C   UNL     1      -9.000  -7.514  16.286  0.00  0.00    +0.000 C 
ATOM      4  N   UNL     1      -9.568  -8.317  17.345  0.00  0.00    +0.000 N 
ATOM      5  C   UNL     1     -10.882  -7.855  17.777  0.00  0.00    +0.000 C 
ATOM      6  C   UNL     1     -10.692  -6.465  18.406  0.00  0.00    +0.000 C 
ATOM      7  H   UNL     1      -7.900  -6.390  17.739  0.00  0.00    +0.000 HD
ATOM      8  H   UNL     1      -8.083  -5.558  16.205  0.00  0.00    +0.000 HD
ATOM      9  H   UNL     1      -8.168  -8.000  15.782  0.00  0.00    +0.000 HD
ATOM     10  H   UNL     1      -9.736  -7.358  15.486  0.00  0.00    +0.000 HD
ATOM     11  H   UNL     1     -11.340  -8.500  18.536  0.00  0.00    +0.000 HD
ATOM     12  H   UNL     1     -11.580  -7.831  16.931  0.00  0.00    +0.000 HD
ATOM     13  H   UNL     1     -10.187  -6.650  19.360  0.00  0.00    +0.000 HD
ATOM     14  H   UNL     1     -11.678  -6.048  18.644  0.00  0.00    +0.000 HD
ENDROOT
BRANCH   4  15
ATOM     15  C   UNL     1      -9.150  -9.604  17.616  0.00  0.00    +0.000 A 
ATOM     16  N   UNL     1      -8.731  -9.855  18.895  0.00  0.00    +0.000 NA
ATOM     17  C   UNL     1      -8.284 -11.071  19.240  0.00  0.00    +0.000 A 
ATOM     18  N   UNL     1      -8.178 -12.150  18.463  0.00  0.00    +0.000 NA
ATOM     19  C   UNL     1      -8.562 -11.884  17.209  0.00  0.00    +0.000 A 
ATOM     20  N   UNL     1      -8.511 -12.822  16.222  0.00  0.00    +0.000 N 
ATOM     21  C   UNL     1      -8.898 -12.272  15.040  0.00  0.00    +0.000 A 
ATOM     22  C   UNL     1      -9.209 -10.939  15.258  0.00  0.00    +0.000 A 
ATOM     23  C   UNL     1      -9.038 -10.682  16.682  0.00  0.00    +0.000 A 
ATOM     24  H   UNL     1      -7.966 -11.189  20.271  0.00  0.00    +0.000 HD
ATOM     25  H   UNL     1      -8.190 -13.767  16.367  0.00  0.00    +0.000 HD
ATOM     26  H   UNL     1      -8.890 -12.854  14.127  0.00  0.00    +0.000 HD
BRANCH  22  27
ATOM     27  C   UNL     1      -9.575 -10.035  14.139  0.00  0.00    +0.000 C 
ATOM     28  H   UNL     1      -8.698  -9.488  13.771  0.00  0.00    +0.000 HD
ATOM     29  H   UNL     1     -10.283  -9.278  14.475  0.00  0.00    +0.000 HD
ATOM     30  H   UNL     1      -9.963 -10.576  13.275  0.00  0.00    +0.000 HD
ENDBRANCH  22  27
ENDBRANCH   4  15
BRANCH   1  32
ATOM     31  N   UNL     1      -9.991  -4.104  15.475  0.00  0.00    +0.000 N 
ATOM     32  C   UNL     1     -10.672  -4.988  16.305  0.00  0.00    +0.000 C 
ATOM     33  O   UNL     1     -11.791  -5.449  16.085  0.00  0.00    +0.000 OA
ATOM     34  H   UNL     1      -9.087  -3.788  15.824  0.00  0.00    +0.000 HD
BRANCH  31  39
ATOM     35  C   UNL     1      -9.956  -2.364  12.184  0.00  0.00    +0.000 A 
ATOM     36  C   UNL     1     -11.159  -2.816  11.627  0.00  0.00    +0.000 A 
ATOM     37  C   UNL     1     -12.006  -3.629  12.367  0.00  0.00    +0.000 A 
ATOM     38  C   UNL     1     -11.643  -4.020  13.652  0.00  0.00    +0.000 A 
ATOM     39  C   UNL     1     -10.425  -3.624  14.217  0.00  0.00    +0.000 A 
ATOM     40  C   UNL     1      -9.597  -2.757  13.490  0.00  0.00    +0.000 A 
ATOM     41  H   UNL     1     -11.451  -2.553  10.613  0.00  0.00    +0.000 HD
ATOM     42  H   UNL     1     -12.945  -3.975  11.948  0.00  0.00    +0.000 HD
ATOM     43  H   UNL     1     -12.348  -4.640  14.190  0.00  0.00    +0.000 HD
ATOM     44  H   UNL     1      -8.658  -2.406  13.909  0.00  0.00    +0.000 HD
BRANCH  35  45
ATOM     45  C   UNL     1      -9.036  -1.492  11.401  0.00  0.00    +0.000 C 
ATOM     46  O   UNL     1      -8.174  -0.791  11.905  0.00  0.00    +0.000 OA
BRANCH  45  47
ATOM     47  O   UNL     1      -9.290  -1.622  10.076  0.00  0.00    +0.000 OA
BRANCH  47  48
ATOM     48  C   UNL     1      -8.445  -0.858   9.217  0.00  0.00    +0.000 C 
ATOM     49  H   UNL     1      -8.431  -1.349   8.240  0.00  0.00    +0.000 HD
ATOM     50  H   UNL     1      -7.423  -0.842   9.609  0.00  0.00    +0.000 HD
ATOM     51  H   UNL     1      -8.832   0.156   9.088  0.00  0.00    +0.000 HD
ENDBRANCH  47  48
ENDBRANCH  45  47
ENDBRANCH  35  45
ENDBRANCH  31  39
ENDBRANCH   1  32
BRANCH   1  52
ATOM     52  N   UNL     1      -9.423  -4.226  18.324  0.00  0.00    +0.000 NA
BRANCH  52  53
ATOM     53  C   UNL     1     -10.572  -3.502  18.902  0.00  0.00    +0.000 C 
ATOM     54  H   UNL     1     -11.458  -3.563  18.264  0.00  0.00    +0.000 HD
ATOM     55  H   UNL     1     -10.345  -2.432  18.981  0.00  0.00    +0.000 HD
ATOM     56  H   UNL     1     -10.839  -3.861  19.901  0.00  0.00    +0.000 HD
ENDBRANCH  52  53
BRANCH  52  57
ATOM     57  C   UNL     1      -8.492  -4.519  19.430  0.00  0.00    +0.000 C 
ATOM     58  H   UNL     1      -7.646  -3.829  19.462  0.00  0.00    +0.000 HD
ATOM     59  H   UNL     1      -8.109  -5.542  19.408  0.00  0.00    +0.000 HD
ATOM     60  H   UNL     1      -9.008  -4.396  20.393  0.00  0.00    +0.000 HD
ENDBRANCH  52  57
ENDBRANCH   1  52
TORSDOF 10
ENDMDL
MODEL 8
REMARK VINA RESULT:    -8.616      3.013      8.240
REMARK INTER + INTRA:         -13.758
REMARK INTER:                 -12.584
REMARK INTRA:                  -1.174
REMARK UNBOUND:                -1.112
REMARK  Name = 
REMARK  10 active torsions:
REMARK  status: ('A' for Active; 'I' for Inactive)
REMARK    1  A    between atoms: C_1  and  O_2
REMARK    2  A    between atoms: O_2  and  C_3
REMARK    3  A    between atoms: C_3  and  C_5
REMARK    4  A    between atoms: C_9  and  N_10
REMARK    5  A    between atoms: C_11  and  C_13
REMARK    6  A    between atoms: C_13  and  N_14
REMARK    7  A    between atoms: N_14  and  C_15
REMARK    8  A    between atoms: N_14  and  C_16
REMARK    9  A    between atoms: N_19  and  C_20
REMARK   10  A    between atoms: C_27  and  C_28
REMARK                            x       y       z     vdW  Elec       q    Type
REMARK                         _______ _______ _______ _____ _____    ______ ____
ROOT
ATOM      1  C   UNL     1     -10.303  -5.800  16.258  0.00  0.00    +0.000 C 
ATOM      2  C   UNL     1      -8.792  -5.531  16.525  0.00  0.00    +0.000 C 
ATOM      3  C   UNL     1      -8.419  -5.843  17.981  0.00  0.00    +0.000 C 
ATOM      4  N   UNL     1      -9.230  -4.965  18.792  0.00  0.00    +0.000 N 
ATOM      5  C   UNL     1     -10.641  -5.339  18.811  0.00  0.00    +0.000 C 
ATOM      6  C   UNL     1     -11.179  -5.154  17.382  0.00  0.00    +0.000 C 
ATOM      7  H   UNL     1      -8.590  -4.476  16.342  0.00  0.00    +0.000 HD
ATOM      8  H   UNL     1      -8.140  -6.101  15.853  0.00  0.00    +0.000 HD
ATOM      9  H   UNL     1      -7.353  -5.740  18.177  0.00  0.00    +0.000 HD
ATOM     10  H   UNL     1      -8.629  -6.893  18.224  0.00  0.00    +0.000 HD
ATOM     11  H   UNL     1     -11.246  -4.711  19.475  0.00  0.00    +0.000 HD
ATOM     12  H   UNL     1     -10.762  -6.369  19.165  0.00  0.00    +0.000 HD
ATOM     13  H   UNL     1     -11.229  -4.070  17.234  0.00  0.00    +0.000 HD
ATOM     14  H   UNL     1     -12.210  -5.528  17.344  0.00  0.00    +0.000 HD
ENDROOT
BRANCH   4  15
ATOM     15  C   UNL     1      -8.704  -4.153  19.776  0.00  0.00    +0.000 A 
ATOM     16  N   UNL     1      -7.929  -4.763  20.724  0.00  0.00    +0.000 NA
ATOM     17  C   UNL     1      -7.398  -4.054  21.732  0.00  0.00    +0.000 A 
ATOM     18  N   UNL     1      -7.527  -2.747  21.962  0.00  0.00    +0.000 NA
ATOM     19  C   UNL     1      -8.311  -2.167  21.046  0.00  0.00    +0.000 A 
ATOM     20  N   UNL     1      -8.620  -0.841  21.091  0.00  0.00    +0.000 N 
ATOM     21  C   UNL     1      -9.477  -0.530  20.082  0.00  0.00    +0.000 A 
ATOM     22  C   UNL     1      -9.739  -1.683  19.359  0.00  0.00    +0.000 A 
ATOM     23  C   UNL     1      -8.947  -2.754  19.950  0.00  0.00    +0.000 A 
ATOM     24  H   UNL     1      -6.799  -4.610  22.445  0.00  0.00    +0.000 HD
ATOM     25  H   UNL     1      -8.279  -0.214  21.803  0.00  0.00    +0.000 HD
ATOM     26  H   UNL     1      -9.867   0.474  19.973  0.00  0.00    +0.000 HD
BRANCH  22  27
ATOM     27  C   UNL     1     -10.721  -1.694  18.246  0.00  0.00    +0.000 C 
ATOM     28  H   UNL     1     -10.709  -0.742  17.700  0.00  0.00    +0.000 HD
ATOM     29  H   UNL     1     -11.733  -1.808  18.631  0.00  0.00    +0.000 HD
ATOM     30  H   UNL     1     -10.499  -2.458  17.500  0.00  0.00    +0.000 HD
ENDBRANCH  22  27
ENDBRANCH   4  15
BRANCH   1  32
ATOM     31  N   UNL     1      -9.362  -8.035  15.723  0.00  0.00    +0.000 N 
ATOM     32  C   UNL     1     -10.431  -7.360  16.301  0.00  0.00    +0.000 C 
ATOM     33  O   UNL     1     -11.378  -7.893  16.878  0.00  0.00    +0.000 OA
ATOM     34  H   UNL     1      -8.678  -7.445  15.251  0.00  0.00    +0.000 HD
BRANCH  31  39
ATOM     35  C   UNL     1      -8.738 -11.469  17.021  0.00  0.00    +0.000 A 
ATOM     36  C   UNL     1      -8.887 -12.229  15.854  0.00  0.00    +0.000 A 
ATOM     37  C   UNL     1      -9.117 -11.600  14.639  0.00  0.00    +0.000 A 
ATOM     38  C   UNL     1      -9.232 -10.214  14.587  0.00  0.00    +0.000 A 
ATOM     39  C   UNL     1      -9.136  -9.432  15.743  0.00  0.00    +0.000 A 
ATOM     40  C   UNL     1      -8.847 -10.064  16.960  0.00  0.00    +0.000 A 
ATOM     41  H   UNL     1      -8.836 -13.315  15.872  0.00  0.00    +0.000 HD
ATOM     42  H   UNL     1      -9.223 -12.180  13.728  0.00  0.00    +0.000 HD
ATOM     43  H   UNL     1      -9.394  -9.776  13.611  0.00  0.00    +0.000 HD
ATOM     44  H   UNL     1      -8.737  -9.485  17.874  0.00  0.00    +0.000 HD
BRANCH  35  45
ATOM     45  C   UNL     1      -8.492 -12.130  18.333  0.00  0.00    +0.000 C 
ATOM     46  O   UNL     1      -7.755 -11.676  19.193  0.00  0.00    +0.000 OA
BRANCH  45  47
ATOM     47  O   UNL     1      -9.221 -13.269  18.422  0.00  0.00    +0.000 OA
BRANCH  47  48
ATOM     48  C   UNL     1      -8.502 -14.418  18.872  0.00  0.00    +0.000 C 
ATOM     49  H   UNL     1      -8.098 -14.923  17.990  0.00  0.00    +0.000 HD
ATOM     50  H   UNL     1      -9.178 -15.108  19.386  0.00  0.00    +0.000 HD
ATOM     51  H   UNL     1      -7.669 -14.129  19.517  0.00  0.00    +0.000 HD
ENDBRANCH  47  48
ENDBRANCH  45  47
ENDBRANCH  35  45
ENDBRANCH  31  39
ENDBRANCH   1  32
BRANCH   1  52
ATOM     52  N   UNL     1     -10.690  -5.340  14.862  0.00  0.00    +0.000 NA
BRANCH  52  53
ATOM     53  C   UNL     1     -11.726  -4.289  14.883  0.00  0.00    +0.000 C 
ATOM     54  H   UNL     1     -12.684  -4.665  15.250  0.00  0.00    +0.000 HD
ATOM     55  H   UNL     1     -11.925  -3.933  13.865  0.00  0.00    +0.000 HD
ATOM     56  H   UNL     1     -11.438  -3.424  15.489  0.00  0.00    +0.000 HD
ENDBRANCH  52  53
BRANCH  52  57
ATOM     57  C   UNL     1      -9.553  -4.816  14.081  0.00  0.00    +0.000 C 
ATOM     58  H   UNL     1      -9.794  -3.886  13.560  0.00  0.00    +0.000 HD
ATOM     59  H   UNL     1      -9.165  -5.535  13.356  0.00  0.00    +0.000 HD
ATOM     60  H   UNL     1      -8.722  -4.569  14.756  0.00  0.00    +0.000 HD
ENDBRANCH  52  57
ENDBRANCH   1  52
TORSDOF 10
ENDMDL
MODEL 9
REMARK VINA RESULT:    -8.602      2.551      5.501
REMARK INTER + INTRA:         -13.736
REMARK INTER:                 -12.871
REMARK INTRA:                  -0.865
REMARK UNBOUND:                -1.112
REMARK  Name = 
REMARK  10 active torsions:
REMARK  status: ('A' for Active; 'I' for Inactive)
REMARK    1  A    between atoms: C_1  and  O_2
REMARK    2  A    between atoms: O_2  and  C_3
REMARK    3  A    between atoms: C_3  and  C_5
REMARK    4  A    between atoms: C_9  and  N_10
REMARK    5  A    between atoms: C_11  and  C_13
REMARK    6  A    between atoms: C_13  and  N_14
REMARK    7  A    between atoms: N_14  and  C_15
REMARK    8  A    between atoms: N_14  and  C_16
REMARK    9  A    between atoms: N_19  and  C_20
REMARK   10  A    between atoms: C_27  and  C_28
REMARK                            x       y       z     vdW  Elec       q    Type
REMARK                         _______ _______ _______ _____ _____    ______ ____
ROOT
ATOM      1  C   UNL     1      -8.794  -5.856  18.404  0.00  0.00    +0.000 C 
ATOM      2  C   UNL     1      -8.218  -6.235  17.007  0.00  0.00    +0.000 C 
ATOM      3  C   UNL     1      -9.192  -7.128  16.226  0.00  0.00    +0.000 C 
ATOM      4  N   UNL     1      -9.369  -8.315  17.029  0.00  0.00    +0.000 N 
ATOM      5  C   UNL     1     -10.156  -8.083  18.236  0.00  0.00    +0.000 C 
ATOM      6  C   UNL     1      -9.348  -7.127  19.129  0.00  0.00    +0.000 C 
ATOM      7  H   UNL     1      -7.292  -6.790  17.153  0.00  0.00    +0.000 HD
ATOM      8  H   UNL     1      -7.969  -5.354  16.404  0.00  0.00    +0.000 HD
ATOM      9  H   UNL     1      -8.851  -7.343  15.215  0.00  0.00    +0.000 HD
ATOM     10  H   UNL     1     -10.154  -6.620  16.074  0.00  0.00    +0.000 HD
ATOM     11  H   UNL     1     -10.342  -8.996  18.813  0.00  0.00    +0.000 HD
ATOM     12  H   UNL     1     -11.140  -7.673  17.981  0.00  0.00    +0.000 HD
ATOM     13  H   UNL     1      -8.515  -7.728  19.509  0.00  0.00    +0.000 HD
ATOM     14  H   UNL     1      -9.962  -6.852  19.995  0.00  0.00    +0.000 HD
ENDROOT
BRANCH   4  15
ATOM     15  C   UNL     1      -9.209  -9.591  16.528  0.00  0.00    +0.000 A 
ATOM     16  N   UNL     1      -9.564  -9.784  15.220  0.00  0.00    +0.000 NA
ATOM     17  C   UNL     1      -9.466 -10.998  14.658  0.00  0.00    +0.000 A 
ATOM     18  N   UNL     1      -9.044 -12.126  15.229  0.00  0.00    +0.000 NA
ATOM     19  C   UNL     1      -8.728 -11.932  16.514  0.00  0.00    +0.000 A 
ATOM     20  N   UNL     1      -8.304 -12.947  17.318  0.00  0.00    +0.000 N 
ATOM     21  C   UNL     1      -8.113 -12.488  18.584  0.00  0.00    +0.000 A 
ATOM     22  C   UNL     1      -8.422 -11.136  18.610  0.00  0.00    +0.000 A 
ATOM     23  C   UNL     1      -8.783 -10.748  17.253  0.00  0.00    +0.000 A 
ATOM     24  H   UNL     1      -9.771 -11.070  13.619  0.00  0.00    +0.000 HD
ATOM     25  H   UNL     1      -8.196 -13.899  17.003  0.00  0.00    +0.000 HD
ATOM     26  H   UNL     1      -7.808 -13.157  19.378  0.00  0.00    +0.000 HD
BRANCH  22  27
ATOM     27  C   UNL     1      -8.407 -10.363  19.876  0.00  0.00    +0.000 C 
ATOM     28  H   UNL     1      -8.670  -9.312  19.700  0.00  0.00    +0.000 HD
ATOM     29  H   UNL     1      -7.406 -10.355  20.307  0.00  0.00    +0.000 HD
ATOM     30  H   UNL     1      -9.139 -10.728  20.598  0.00  0.00    +0.000 HD
ENDBRANCH  22  27
ENDBRANCH   4  15
BRANCH   1  32
ATOM     31  N   UNL     1      -9.622  -3.854  17.190  0.00  0.00    +0.000 N 
ATOM     32  C   UNL     1      -9.962  -4.863  18.084  0.00  0.00    +0.000 C 
ATOM     33  O   UNL     1     -11.085  -5.050  18.550  0.00  0.00    +0.000 OA
ATOM     34  H   UNL     1      -8.637  -3.815  16.931  0.00  0.00    +0.000 HD
BRANCH  31  39
ATOM     35  C   UNL     1     -11.814  -2.172  14.694  0.00  0.00    +0.000 A 
ATOM     36  C   UNL     1     -12.402  -1.174  15.482  0.00  0.00    +0.000 A 
ATOM     37  C   UNL     1     -12.018  -1.016  16.806  0.00  0.00    +0.000 A 
ATOM     38  C   UNL     1     -11.070  -1.872  17.359  0.00  0.00    +0.000 A 
ATOM     39  C   UNL     1     -10.501  -2.908  16.612  0.00  0.00    +0.000 A 
ATOM     40  C   UNL     1     -10.848  -3.031  15.259  0.00  0.00    +0.000 A 
ATOM     41  H   UNL     1     -13.170  -0.515  15.085  0.00  0.00    +0.000 HD
ATOM     42  H   UNL     1     -12.460  -0.239  17.420  0.00  0.00    +0.000 HD
ATOM     43  H   UNL     1     -10.796  -1.692  18.390  0.00  0.00    +0.000 HD
ATOM     44  H   UNL     1     -10.404  -3.807  14.640  0.00  0.00    +0.000 HD
BRANCH  35  45
ATOM     45  C   UNL     1     -12.218  -2.355  13.272  0.00  0.00    +0.000 C 
ATOM     46  O   UNL     1     -12.792  -1.502  12.615  0.00  0.00    +0.000 OA
BRANCH  45  47
ATOM     47  O   UNL     1     -11.829  -3.578  12.834  0.00  0.00    +0.000 OA
BRANCH  47  48
ATOM     48  C   UNL     1     -11.756  -3.721  11.416  0.00  0.00    +0.000 C 
ATOM     49  H   UNL     1     -10.951  -3.073  11.057  0.00  0.00    +0.000 HD
ATOM     50  H   UNL     1     -12.693  -3.394  10.955  0.00  0.00    +0.000 HD
ATOM     51  H   UNL     1     -11.520  -4.751  11.138  0.00  0.00    +0.000 HD
ENDBRANCH  47  48
ENDBRANCH  45  47
ENDBRANCH  35  45
ENDBRANCH  31  39
ENDBRANCH   1  32
BRANCH   1  52
ATOM     52  N   UNL     1      -7.757  -5.106  19.225  0.00  0.00    +0.000 NA
BRANCH  52  53
ATOM     53  C   UNL     1      -8.122  -5.023  20.653  0.00  0.00    +0.000 C 
ATOM     54  H   UNL     1      -9.164  -5.303  20.826  0.00  0.00    +0.000 HD
ATOM     55  H   UNL     1      -8.036  -3.989  21.007  0.00  0.00    +0.000 HD
ATOM     56  H   UNL     1      -7.485  -5.648  21.288  0.00  0.00    +0.000 HD
ENDBRANCH  52  53
BRANCH  52  57
ATOM     57  C   UNL     1      -6.410  -5.702  19.153  0.00  0.00    +0.000 C 
ATOM     58  H   UNL     1      -6.261  -6.298  18.249  0.00  0.00    +0.000 HD
ATOM     59  H   UNL     1      -6.167  -6.317  20.023  0.00  0.00    +0.000 HD
ATOM     60  H   UNL     1      -5.653  -4.906  19.107  0.00  0.00    +0.000 HD
ENDBRANCH  52  57
ENDBRANCH   1  52
TORSDOF 10
ENDMDL
