MODEL 1
REMARK VINA RESULT:    -9.035      0.000      0.000
REMARK INTER + INTRA:         -12.262
REMARK INTER:                 -11.412
REMARK INTRA:                  -0.850
REMARK UNBOUND:                -0.850
REMARK  Name = 
REMARK  6 active torsions:
REMARK  status: ('A' for Active; 'I' for Inactive)
REMARK    1  A    between atoms: C_1  and  O_2
REMARK    2  A    between atoms: O_2  and  C_3
REMARK    3  A    between atoms: C_4  and  N_5
REMARK    4  A    between atoms: N_5  and  C_6
REMARK    5  A    between atoms: C_7  and  C_9
REMARK    6  A    between atoms: C_18  and  C_19
REMARK                            x       y       z     vdW  Elec       q    Type
REMARK                         _______ _______ _______ _____ _____    ______ ____
ROOT
ATOM      1  C   UNL     1     -10.904  -1.464  18.244  0.00  0.00    +0.000 C 
ATOM      2  C   UNL     1     -11.524  -2.105  16.956  0.00  0.00    +0.000 C 
ATOM      3  C   UNL     1     -11.038  -3.537  16.829  0.00  0.00    +0.000 C 
ATOM      4  C   UNL     1     -11.505  -4.359  18.043  0.00  0.00    +0.000 C 
ATOM      5  O   UNL     1     -11.883  -3.573  19.172  0.00  0.00    +0.000 OA
ATOM      6  C   UNL     1     -11.053  -2.424  19.485  0.00  0.00    +0.000 C 
ATOM      7  N   UNL     1      -9.821  -2.908  20.118  0.00  0.00    +0.000 N 
ATOM      8  C   UNL     1      -8.981  -2.308  21.068  0.00  0.00    +0.000 A 
ATOM      9  C   UNL     1      -8.712  -0.971  21.389  0.00  0.00    +0.000 A 
ATOM     10  C   UNL     1      -8.122  -0.716  22.635  0.00  0.00    +0.000 A 
ATOM     11  C   UNL     1      -7.890  -1.744  23.545  0.00  0.00    +0.000 A 
ATOM     12  C   UNL     1      -7.912  -3.067  23.115  0.00  0.00    +0.000 A 
ATOM     13  C   UNL     1      -8.252  -3.324  21.778  0.00  0.00    +0.000 A 
ATOM     14  C   UNL     1      -8.131  -4.413  20.894  0.00  0.00    +0.000 A 
ATOM     15  C   UNL     1      -6.855  -4.832  20.419  0.00  0.00    +0.000 A 
ATOM     16  C   UNL     1      -6.844  -5.428  19.130  0.00  0.00    +0.000 A 
ATOM     17  C   UNL     1      -8.135  -5.598  18.601  0.00  0.00    +0.000 A 
ATOM     18  C   UNL     1      -8.602  -6.410  17.544  0.00  0.00    +0.000 A 
ATOM     19  C   UNL     1      -8.032  -7.203  16.533  0.00  0.00    +0.000 A 
ATOM     20  C   UNL     1      -8.841  -8.106  15.830  0.00  0.00    +0.000 A 
ATOM     21  C   UNL     1     -10.186  -8.268  16.151  0.00  0.00    +0.000 A 
ATOM     22  C   UNL     1     -10.816  -7.404  17.041  0.00  0.00    +0.000 A 
ATOM     23  C   UNL     1     -10.052  -6.402  17.648  0.00  0.00    +0.000 A 
ATOM     24  N   UNL     1     -10.494  -5.314  18.425  0.00  0.00    +0.000 N 
ATOM     25  C   UNL     1      -9.322  -5.002  19.001  0.00  0.00    +0.000 A 
ATOM     26  C   UNL     1      -9.227  -4.149  20.068  0.00  0.00    +0.000 A 
ATOM     27  C   UNL     1      -5.507  -5.706  18.739  0.00  0.00    +0.000 C 
ATOM     28  O   UNL     1      -5.006  -6.185  17.733  0.00  0.00    +0.000 OA
ATOM     29  N   UNL     1      -4.764  -5.281  19.840  0.00  0.00    +0.000 N 
ATOM     30  C   UNL     1      -5.503  -4.622  20.917  0.00  0.00    +0.000 C 
ATOM     31  H   UNL     1     -11.560  -0.617  18.467  0.00  0.00    +0.000 HD
ATOM     32  H   UNL     1     -12.606  -2.187  17.135  0.00  0.00    +0.000 HD
ATOM     33  H   UNL     1     -11.420  -4.027  15.923  0.00  0.00    +0.000 HD
ATOM     34  H   UNL     1      -9.948  -3.551  16.704  0.00  0.00    +0.000 HD
ATOM     35  H   UNL     1     -12.379  -4.935  17.762  0.00  0.00    +0.000 HD
ATOM     36  H   UNL     1      -8.954  -0.163  20.709  0.00  0.00    +0.000 HD
ATOM     37  H   UNL     1      -7.902   0.309  22.920  0.00  0.00    +0.000 HD
ATOM     38  H   UNL     1      -7.644  -1.516  24.578  0.00  0.00    +0.000 HD
ATOM     39  H   UNL     1      -7.714  -3.885  23.805  0.00  0.00    +0.000 HD
ATOM     40  H   UNL     1      -6.970  -7.135  16.301  0.00  0.00    +0.000 HD
ATOM     41  H   UNL     1      -8.401  -8.728  15.054  0.00  0.00    +0.000 HD
ATOM     42  H   UNL     1     -10.764  -9.064  15.689  0.00  0.00    +0.000 HD
ATOM     43  H   UNL     1     -11.866  -7.524  17.291  0.00  0.00    +0.000 HD
ATOM     44  H   UNL     1      -3.818  -5.618  19.935  0.00  0.00    +0.000 HD
ATOM     45  H   UNL     1      -5.230  -3.562  20.935  0.00  0.00    +0.000 HD
ATOM     46  H   UNL     1      -5.303  -5.118  21.865  0.00  0.00    +0.000 HD
ENDROOT
BRANCH   6  47
ATOM     47  C   UNL     1     -11.873  -1.712  20.575  0.00  0.00    +0.000 C 
ATOM     48  H   UNL     1     -12.244  -2.434  21.310  0.00  0.00    +0.000 HD
ATOM     49  H   UNL     1     -11.256  -0.991  21.129  0.00  0.00    +0.000 HD
ATOM     50  H   UNL     1     -12.729  -1.175  20.159  0.00  0.00    +0.000 HD
ENDBRANCH   6  47
BRANCH   2  51
ATOM     51  N   UNL     1     -11.421  -1.277  15.729  0.00  0.00    +0.000 N 
ATOM     52  C   UNL     1     -12.638  -0.773  15.238  0.00  0.00    +0.000 C 
ATOM     53  O   UNL     1     -13.709  -1.033  15.792  0.00  0.00    +0.000 OA
BRANCH  52  54
ATOM     54  C   UNL     1     -12.586   0.123  13.996  0.00  0.00    +0.000 C 
ATOM     55  C   UNL     1     -13.179   1.495  14.349  0.00  0.00    +0.000 C 
ATOM     56  C   UNL     1     -13.223   2.418  13.140  0.00  0.00    +0.000 C 
ATOM     57  C   UNL     1     -14.014   1.781  12.005  0.00  0.00    +0.000 C 
ATOM     58  C   UNL     1     -13.419   0.431  11.615  0.00  0.00    +0.000 C 
ATOM     59  C   UNL     1     -13.328  -0.515  12.812  0.00  0.00    +0.000 C 
ATOM     60  H   UNL     1     -11.540   0.228  13.682  0.00  0.00    +0.000 HD
ATOM     61  H   UNL     1     -12.607   1.990  15.144  0.00  0.00    +0.000 HD
ATOM     62  H   UNL     1     -14.192   1.368  14.753  0.00  0.00    +0.000 HD
ATOM     63  H   UNL     1     -13.679   3.374  13.422  0.00  0.00    +0.000 HD
ATOM     64  H   UNL     1     -12.202   2.636  12.804  0.00  0.00    +0.000 HD
ATOM     65  H   UNL     1     -15.057   1.644  12.320  0.00  0.00    +0.000 HD
ATOM     66  H   UNL     1     -14.024   2.450  11.138  0.00  0.00    +0.000 HD
ATOM     67  H   UNL     1     -12.419   0.583  11.189  0.00  0.00    +0.000 HD
ATOM     68  H   UNL     1     -14.032  -0.027  10.830  0.00  0.00    +0.000 HD
ATOM     69  H   UNL     1     -12.805  -1.430  12.504  0.00  0.00    +0.000 HD
ATOM     70  H   UNL     1     -14.338  -0.818  13.106  0.00  0.00    +0.000 HD
ENDBRANCH  52  54
BRANCH  51  71
ATOM     71  C   UNL     1     -10.291  -1.495  14.827  0.00  0.00    +0.000 C 
ATOM     72  H   UNL     1      -9.524  -0.725  14.901  0.00  0.00    +0.000 HD
ATOM     73  H   UNL     1     -10.671  -1.484  13.801  0.00  0.00    +0.000 HD
ATOM     74  H   UNL     1      -9.803  -2.448  15.047  0.00  0.00    +0.000 HD
ENDBRANCH  51  71
ENDBRANCH   2  51
BRANCH   1  75
ATOM     75  O   UNL     1      -9.636  -0.795  18.122  0.00  0.00    +0.000 OA
BRANCH  75  76
ATOM     76  C   UNL     1      -9.587   0.616  18.197  0.00  0.00    +0.000 C 
ATOM     77  H   UNL     1     -10.220   1.022  18.982  0.00  0.00    +0.000 HD
ATOM     78  H   UNL     1      -8.559   0.960  18.331  0.00  0.00    +0.000 HD
ATOM     79  H   UNL     1      -9.954   1.016  17.247  0.00  0.00    +0.000 HD
ENDBRANCH  75  76
ENDBRANCH   1  75
TORSDOF 6
ENDMDL
MODEL 2
REMARK VINA RESULT:    -8.818      2.466      3.245
REMARK INTER + INTRA:         -11.988
REMARK INTER:                 -11.130
REMARK INTRA:                  -0.858
REMARK UNBOUND:                -0.850
REMARK  Name = 
REMARK  6 active torsions:
REMARK  status: ('A' for Active; 'I' for Inactive)
REMARK    1  A    between atoms: C_1  and  O_2
REMARK    2  A    between atoms: O_2  and  C_3
REMARK    3  A    between atoms: C_4  and  N_5
REMARK    4  A    between atoms: N_5  and  C_6
REMARK    5  A    between atoms: C_7  and  C_9
REMARK    6  A    between atoms: C_18  and  C_19
REMARK                            x       y       z     vdW  Elec       q    Type
REMARK                         _______ _______ _______ _____ _____    ______ ____
ROOT
ATOM      1  C   UNL     1     -10.615  -1.339  15.465  0.00  0.00    +0.000 C 
ATOM      2  C   UNL     1     -10.684  -2.494  14.409  0.00  0.00    +0.000 C 
ATOM      3  C   UNL     1     -10.478  -3.824  15.112  0.00  0.00    +0.000 C 
ATOM      4  C   UNL     1     -11.598  -4.052  16.142  0.00  0.00    +0.000 C 
ATOM      5  O   UNL     1     -12.295  -2.867  16.522  0.00  0.00    +0.000 OA
ATOM      6  C   UNL     1     -11.499  -1.669  16.728  0.00  0.00    +0.000 C 
ATOM      7  N   UNL     1     -10.814  -1.791  18.019  0.00  0.00    +0.000 N 
ATOM      8  C   UNL     1     -10.407  -0.812  18.937  0.00  0.00    +0.000 A 
ATOM      9  C   UNL     1     -10.067   0.539  18.798  0.00  0.00    +0.000 A 
ATOM     10  C   UNL     1     -10.079   1.328  19.956  0.00  0.00    +0.000 A 
ATOM     11  C   UNL     1     -10.492   0.804  21.179  0.00  0.00    +0.000 A 
ATOM     12  C   UNL     1     -10.566  -0.574  21.352  0.00  0.00    +0.000 A 
ATOM     13  C   UNL     1     -10.296  -1.396  20.248  0.00  0.00    +0.000 A 
ATOM     14  C   UNL     1      -9.992  -2.756  20.049  0.00  0.00    +0.000 A 
ATOM     15  C   UNL     1      -8.747  -3.299  20.478  0.00  0.00    +0.000 A 
ATOM     16  C   UNL     1      -8.258  -4.395  19.718  0.00  0.00    +0.000 A 
ATOM     17  C   UNL     1      -9.168  -4.818  18.733  0.00  0.00    +0.000 A 
ATOM     18  C   UNL     1      -9.242  -6.023  17.999  0.00  0.00    +0.000 A 
ATOM     19  C   UNL     1      -8.434  -7.158  17.809  0.00  0.00    +0.000 A 
ATOM     20  C   UNL     1      -8.985  -8.302  17.216  0.00  0.00    +0.000 A 
ATOM     21  C   UNL     1     -10.330  -8.351  16.860  0.00  0.00    +0.000 A 
ATOM     22  C   UNL     1     -11.121  -7.206  16.899  0.00  0.00    +0.000 A 
ATOM     23  C   UNL     1     -10.546  -6.017  17.356  0.00  0.00    +0.000 A 
ATOM     24  N   UNL     1     -11.078  -4.714  17.314  0.00  0.00    +0.000 N 
ATOM     25  C   UNL     1     -10.268  -4.145  18.220  0.00  0.00    +0.000 A 
ATOM     26  C   UNL     1     -10.513  -2.911  18.761  0.00  0.00    +0.000 A 
ATOM     27  C   UNL     1      -6.973  -4.772  20.187  0.00  0.00    +0.000 C 
ATOM     28  O   UNL     1      -6.167  -5.624  19.844  0.00  0.00    +0.000 OA
ATOM     29  N   UNL     1      -6.753  -3.888  21.244  0.00  0.00    +0.000 N 
ATOM     30  C   UNL     1      -7.763  -2.851  21.454  0.00  0.00    +0.000 C 
ATOM     31  H   UNL     1     -11.126  -0.501  14.981  0.00  0.00    +0.000 HD
ATOM     32  H   UNL     1     -11.720  -2.526  14.043  0.00  0.00    +0.000 HD
ATOM     33  H   UNL     1     -10.486  -4.670  14.412  0.00  0.00    +0.000 HD
ATOM     34  H   UNL     1      -9.478  -3.856  15.562  0.00  0.00    +0.000 HD
ATOM     35  H   UNL     1     -12.336  -4.720  15.716  0.00  0.00    +0.000 HD
ATOM     36  H   UNL     1      -9.809   0.964  17.835  0.00  0.00    +0.000 HD
ATOM     37  H   UNL     1      -9.823   2.382  19.886  0.00  0.00    +0.000 HD
ATOM     38  H   UNL     1     -10.711   1.466  22.012  0.00  0.00    +0.000 HD
ATOM     39  H   UNL     1     -10.867  -1.004  22.305  0.00  0.00    +0.000 HD
ATOM     40  H   UNL     1      -7.393  -7.164  18.130  0.00  0.00    +0.000 HD
ATOM     41  H   UNL     1      -8.366  -9.184  17.076  0.00  0.00    +0.000 HD
ATOM     42  H   UNL     1     -10.771  -9.287  16.525  0.00  0.00    +0.000 HD
ATOM     43  H   UNL     1     -12.169  -7.240  16.617  0.00  0.00    +0.000 HD
ATOM     44  H   UNL     1      -6.041  -4.120  21.919  0.00  0.00    +0.000 HD
ATOM     45  H   UNL     1      -7.332  -1.880  21.188  0.00  0.00    +0.000 HD
ATOM     46  H   UNL     1      -8.120  -2.879  22.481  0.00  0.00    +0.000 HD
ENDROOT
BRANCH   6  47
ATOM     47  C   UNL     1     -12.575  -0.582  16.887  0.00  0.00    +0.000 C 
ATOM     48  H   UNL     1     -12.471   0.180  16.107  0.00  0.00    +0.000 HD
ATOM     49  H   UNL     1     -13.584  -1.003  16.779  0.00  0.00    +0.000 HD
ATOM     50  H   UNL     1     -12.518  -0.087  17.860  0.00  0.00    +0.000 HD
ENDBRANCH   6  47
BRANCH   2  51
ATOM     51  N   UNL     1      -9.872  -2.278  13.186  0.00  0.00    +0.000 N 
ATOM     52  C   UNL     1     -10.606  -2.050  12.008  0.00  0.00    +0.000 C 
ATOM     53  O   UNL     1     -11.839  -2.056  12.011  0.00  0.00    +0.000 OA
BRANCH  52  54
ATOM     54  C   UNL     1      -9.818  -1.779  10.722  0.00  0.00    +0.000 C 
ATOM     55  C   UNL     1      -9.721  -0.261  10.511  0.00  0.00    +0.000 C 
ATOM     56  C   UNL     1      -9.008   0.082   9.211  0.00  0.00    +0.000 C 
ATOM     57  C   UNL     1      -9.707  -0.570   8.026  0.00  0.00    +0.000 C 
ATOM     58  C   UNL     1      -9.783  -2.083   8.200  0.00  0.00    +0.000 C 
ATOM     59  C   UNL     1     -10.465  -2.469   9.512  0.00  0.00    +0.000 C 
ATOM     60  H   UNL     1      -8.816  -2.216  10.825  0.00  0.00    +0.000 HD
ATOM     61  H   UNL     1      -9.192   0.229  11.337  0.00  0.00    +0.000 HD
ATOM     62  H   UNL     1     -10.727   0.177  10.506  0.00  0.00    +0.000 HD
ATOM     63  H   UNL     1      -8.984   1.169   9.079  0.00  0.00    +0.000 HD
ATOM     64  H   UNL     1      -7.966  -0.258   9.260  0.00  0.00    +0.000 HD
ATOM     65  H   UNL     1     -10.722  -0.161   7.931  0.00  0.00    +0.000 HD
ATOM     66  H   UNL     1      -9.174  -0.326   7.100  0.00  0.00    +0.000 HD
ATOM     67  H   UNL     1      -8.770  -2.504   8.174  0.00  0.00    +0.000 HD
ATOM     68  H   UNL     1     -10.331  -2.523   7.358  0.00  0.00    +0.000 HD
ATOM     69  H   UNL     1     -10.406  -3.558   9.638  0.00  0.00    +0.000 HD
ATOM     70  H   UNL     1     -11.530  -2.220   9.449  0.00  0.00    +0.000 HD
ENDBRANCH  52  54
BRANCH  51  71
ATOM     71  C   UNL     1      -8.529  -2.853  13.123  0.00  0.00    +0.000 C 
ATOM     72  H   UNL     1      -8.347  -3.429  12.218  0.00  0.00    +0.000 HD
ATOM     73  H   UNL     1      -8.412  -3.531  13.975  0.00  0.00    +0.000 HD
ATOM     74  H   UNL     1      -7.773  -2.064  13.152  0.00  0.00    +0.000 HD
ENDBRANCH  51  71
ENDBRANCH   2  51
BRANCH   1  75
ATOM     75  O   UNL     1      -9.333  -0.750  15.739  0.00  0.00    +0.000 OA
BRANCH  75  76
ATOM     76  C   UNL     1      -9.049   0.549  15.255  0.00  0.00    +0.000 C 
ATOM     77  H   UNL     1      -9.939   1.090  14.944  0.00  0.00    +0.000 HD
ATOM     78  H   UNL     1      -8.502   1.128  16.003  0.00  0.00    +0.000 HD
ATOM     79  H   UNL     1      -8.408   0.447  14.375  0.00  0.00    +0.000 HD
ENDBRANCH  75  76
ENDBRANCH   1  75
TORSDOF 6
ENDMDL
MODEL 3
REMARK VINA RESULT:    -8.022      2.585      8.422
REMARK INTER + INTRA:         -10.982
REMARK INTER:                 -10.301
REMARK INTRA:                  -0.681
REMARK UNBOUND:                -0.850
REMARK  Name = 
REMARK  6 active torsions:
REMARK  status: ('A' for Active; 'I' for Inactive)
REMARK    1  A    between atoms: C_1  and  O_2
REMARK    2  A    between atoms: O_2  and  C_3
REMARK    3  A    between atoms: C_4  and  N_5
REMARK    4  A    between atoms: N_5  and  C_6
REMARK    5  A    between atoms: C_7  and  C_9
REMARK    6  A    between atoms: C_18  and  C_19
REMARK                            x       y       z     vdW  Elec       q    Type
REMARK                         _______ _______ _______ _____ _____    ______ ____
ROOT
ATOM      1  C   UNL     1     -10.510  -5.054  15.354  0.00  0.00    +0.000 C 
ATOM      2  C   UNL     1     -10.519  -5.609  16.819  0.00  0.00    +0.000 C 
ATOM      3  C   UNL     1     -10.526  -4.445  17.793  0.00  0.00    +0.000 C 
ATOM      4  C   UNL     1     -11.797  -3.602  17.595  0.00  0.00    +0.000 C 
ATOM      5  O   UNL     1     -12.443  -3.802  16.338  0.00  0.00    +0.000 OA
ATOM      6  C   UNL     1     -11.591  -3.922  15.168  0.00  0.00    +0.000 C 
ATOM      7  N   UNL     1     -11.112  -2.582  14.813  0.00  0.00    +0.000 N 
ATOM      8  C   UNL     1     -10.764  -2.032  13.571  0.00  0.00    +0.000 A 
ATOM      9  C   UNL     1     -10.298  -2.599  12.377  0.00  0.00    +0.000 A 
ATOM     10  C   UNL     1     -10.414  -1.828  11.212  0.00  0.00    +0.000 A 
ATOM     11  C   UNL     1     -11.040  -0.584  11.231  0.00  0.00    +0.000 A 
ATOM     12  C   UNL     1     -11.250   0.067  12.442  0.00  0.00    +0.000 A 
ATOM     13  C   UNL     1     -10.890  -0.600  13.623  0.00  0.00    +0.000 A 
ATOM     14  C   UNL     1     -10.673  -0.234  14.966  0.00  0.00    +0.000 A 
ATOM     15  C   UNL     1      -9.551   0.562  15.335  0.00  0.00    +0.000 A 
ATOM     16  C   UNL     1      -9.048   0.347  16.646  0.00  0.00    +0.000 A 
ATOM     17  C   UNL     1      -9.838  -0.549  17.387  0.00  0.00    +0.000 A 
ATOM     18  C   UNL     1      -9.902  -0.793  18.777  0.00  0.00    +0.000 A 
ATOM     19  C   UNL     1      -9.171  -0.419  19.918  0.00  0.00    +0.000 A 
ATOM     20  C   UNL     1      -9.721  -0.634  21.189  0.00  0.00    +0.000 A 
ATOM     21  C   UNL     1     -11.000  -1.164  21.338  0.00  0.00    +0.000 A 
ATOM     22  C   UNL     1     -11.693  -1.677  20.246  0.00  0.00    +0.000 A 
ATOM     23  C   UNL     1     -11.095  -1.598  18.984  0.00  0.00    +0.000 A 
ATOM     24  N   UNL     1     -11.508  -2.201  17.781  0.00  0.00    +0.000 N 
ATOM     25  C   UNL     1     -10.793  -1.446  16.932  0.00  0.00    +0.000 A 
ATOM     26  C   UNL     1     -11.013  -1.443  15.580  0.00  0.00    +0.000 A 
ATOM     27  C   UNL     1      -7.879   1.127  16.847  0.00  0.00    +0.000 C 
ATOM     28  O   UNL     1      -7.104   1.256  17.783  0.00  0.00    +0.000 OA
ATOM     29  N   UNL     1      -7.743   1.807  15.637  0.00  0.00    +0.000 N 
ATOM     30  C   UNL     1      -8.686   1.454  14.575  0.00  0.00    +0.000 C 
ATOM     31  H   UNL     1     -10.876  -5.888  14.747  0.00  0.00    +0.000 HD
ATOM     32  H   UNL     1     -11.491  -6.104  16.963  0.00  0.00    +0.000 HD
ATOM     33  H   UNL     1     -10.501  -4.778  18.839  0.00  0.00    +0.000 HD
ATOM     34  H   UNL     1      -9.607  -3.857  17.676  0.00  0.00    +0.000 HD
ATOM     35  H   UNL     1     -12.518  -3.870  18.357  0.00  0.00    +0.000 HD
ATOM     36  H   UNL     1      -9.871  -3.594  12.349  0.00  0.00    +0.000 HD
ATOM     37  H   UNL     1     -10.065  -2.236  10.267  0.00  0.00    +0.000 HD
ATOM     38  H   UNL     1     -11.322  -0.099  10.301  0.00  0.00    +0.000 HD
ATOM     39  H   UNL     1     -11.720   1.047  12.478  0.00  0.00    +0.000 HD
ATOM     40  H   UNL     1      -8.191   0.049  19.825  0.00  0.00    +0.000 HD
ATOM     41  H   UNL     1      -9.161  -0.338  22.072  0.00  0.00    +0.000 HD
ATOM     42  H   UNL     1     -11.463  -1.200  22.322  0.00  0.00    +0.000 HD
ATOM     43  H   UNL     1     -12.688  -2.094  20.360  0.00  0.00    +0.000 HD
ATOM     44  H   UNL     1      -7.157   2.627  15.615  0.00  0.00    +0.000 HD
ATOM     45  H   UNL     1      -8.143   0.926  13.784  0.00  0.00    +0.000 HD
ATOM     46  H   UNL     1      -9.189   2.347  14.210  0.00  0.00    +0.000 HD
ENDROOT
BRANCH   6  47
ATOM     47  C   UNL     1     -12.587  -4.351  14.078  0.00  0.00    +0.000 C 
ATOM     48  H   UNL     1     -13.516  -4.716  14.528  0.00  0.00    +0.000 HD
ATOM     49  H   UNL     1     -12.863  -3.503  13.436  0.00  0.00    +0.000 HD
ATOM     50  H   UNL     1     -12.181  -5.140  13.440  0.00  0.00    +0.000 HD
ENDBRANCH   6  47
BRANCH   2  51
ATOM     51  N   UNL     1      -9.525  -6.676  17.093  0.00  0.00    +0.000 N 
ATOM     52  C   UNL     1     -10.046  -7.979  17.174  0.00  0.00    +0.000 C 
ATOM     53  O   UNL     1     -11.253  -8.196  17.044  0.00  0.00    +0.000 OA
BRANCH  52  54
ATOM     54  C   UNL     1      -9.057  -9.125  17.415  0.00  0.00    +0.000 C 
ATOM     55  C   UNL     1      -9.447 -10.313  16.522  0.00  0.00    +0.000 C 
ATOM     56  C   UNL     1      -8.547 -11.516  16.760  0.00  0.00    +0.000 C 
ATOM     57  C   UNL     1      -8.575 -11.928  18.226  0.00  0.00    +0.000 C 
ATOM     58  C   UNL     1      -8.156 -10.772  19.128  0.00  0.00    +0.000 C 
ATOM     59  C   UNL     1      -9.018  -9.532  18.896  0.00  0.00    +0.000 C 
ATOM     60  H   UNL     1      -8.047  -8.776  17.166  0.00  0.00    +0.000 HD
ATOM     61  H   UNL     1      -9.403 -10.050  15.458  0.00  0.00    +0.000 HD
ATOM     62  H   UNL     1     -10.492 -10.591  16.712  0.00  0.00    +0.000 HD
ATOM     63  H   UNL     1      -8.872 -12.351  16.131  0.00  0.00    +0.000 HD
ATOM     64  H   UNL     1      -7.519 -11.273  16.464  0.00  0.00    +0.000 HD
ATOM     65  H   UNL     1      -9.590 -12.252  18.493  0.00  0.00    +0.000 HD
ATOM     66  H   UNL     1      -7.911 -12.785  18.383  0.00  0.00    +0.000 HD
ATOM     67  H   UNL     1      -7.103 -10.528  18.941  0.00  0.00    +0.000 HD
ATOM     68  H   UNL     1      -8.230 -11.079  20.177  0.00  0.00    +0.000 HD
ATOM     69  H   UNL     1      -8.617  -8.701  19.492  0.00  0.00    +0.000 HD
ATOM     70  H   UNL     1     -10.029  -9.723  19.270  0.00  0.00    +0.000 HD
ENDBRANCH  52  54
BRANCH  51  71
ATOM     71  C   UNL     1      -8.295  -6.324  17.801  0.00  0.00    +0.000 C 
ATOM     72  H   UNL     1      -8.360  -5.379  18.338  0.00  0.00    +0.000 HD
ATOM     73  H   UNL     1      -7.495  -6.227  17.060  0.00  0.00    +0.000 HD
ATOM     74  H   UNL     1      -8.045  -7.090  18.540  0.00  0.00    +0.000 HD
ENDBRANCH  51  71
ENDBRANCH   2  51
BRANCH   1  75
ATOM     75  O   UNL     1      -9.237  -4.808  14.733  0.00  0.00    +0.000 OA
BRANCH  75  76
ATOM     76  C   UNL     1      -8.879  -5.536  13.574  0.00  0.00    +0.000 C 
ATOM     77  H   UNL     1      -8.405  -6.488  13.800  0.00  0.00    +0.000 HD
ATOM     78  H   UNL     1      -9.750  -5.696  12.934  0.00  0.00    +0.000 HD
ATOM     79  H   UNL     1      -8.155  -4.939  13.013  0.00  0.00    +0.000 HD
ENDBRANCH  75  76
ENDBRANCH   1  75
TORSDOF 6
ENDMDL
MODEL 4
REMARK VINA RESULT:    -7.637      4.339      7.359
REMARK INTER + INTRA:         -10.495
REMARK INTER:                  -9.679
REMARK INTRA:                  -0.816
REMARK UNBOUND:                -0.850
REMARK  Name = 
REMARK  6 active torsions:
REMARK  status: ('A' for Active; 'I' for Inactive)
REMARK    1  A    between atoms: C_1  and  O_2
REMARK    2  A    between atoms: O_2  and  C_3
REMARK    3  A    between atoms: C_4  and  N_5
REMARK    4  A    between atoms: N_5  and  C_6
REMARK    5  A    between atoms: C_7  and  C_9
REMARK    6  A    between atoms: C_18  and  C_19
REMARK                            x       y       z     vdW  Elec       q    Type
REMARK                         _______ _______ _______ _____ _____    ______ ____
ROOT
ATOM      1  C   UNL     1     -11.856   1.672  19.063  0.00  0.00    +0.000 C 
ATOM      2  C   UNL     1     -11.390   0.190  18.869  0.00  0.00    +0.000 C 
ATOM      3  C   UNL     1     -10.904  -0.358  20.198  0.00  0.00    +0.000 C 
ATOM      4  C   UNL     1     -12.053  -0.349  21.222  0.00  0.00    +0.000 C 
ATOM      5  O   UNL     1     -13.133   0.518  20.882  0.00  0.00    +0.000 OA
ATOM      6  C   UNL     1     -12.790   1.815  20.325  0.00  0.00    +0.000 C 
ATOM      7  N   UNL     1     -12.324   2.673  21.419  0.00  0.00    +0.000 N 
ATOM      8  C   UNL     1     -12.396   4.064  21.587  0.00  0.00    +0.000 A 
ATOM      9  C   UNL     1     -12.469   5.129  20.680  0.00  0.00    +0.000 A 
ATOM     10  C   UNL     1     -12.915   6.363  21.173  0.00  0.00    +0.000 A 
ATOM     11  C   UNL     1     -13.342   6.499  22.492  0.00  0.00    +0.000 A 
ATOM     12  C   UNL     1     -13.016   5.525  23.429  0.00  0.00    +0.000 A 
ATOM     13  C   UNL     1     -12.327   4.385  22.988  0.00  0.00    +0.000 A 
ATOM     14  C   UNL     1     -11.591   3.349  23.594  0.00  0.00    +0.000 A 
ATOM     15  C   UNL     1     -10.328   3.606  24.200  0.00  0.00    +0.000 A 
ATOM     16  C   UNL     1      -9.408   2.524  24.188  0.00  0.00    +0.000 A 
ATOM     17  C   UNL     1      -9.967   1.345  23.669  0.00  0.00    +0.000 A 
ATOM     18  C   UNL     1      -9.545   0.000  23.765  0.00  0.00    +0.000 A 
ATOM     19  C   UNL     1      -8.407  -0.685  24.227  0.00  0.00    +0.000 A 
ATOM     20  C   UNL     1      -8.473  -2.071  24.425  0.00  0.00    +0.000 A 
ATOM     21  C   UNL     1      -9.660  -2.771  24.223  0.00  0.00    +0.000 A 
ATOM     22  C   UNL     1     -10.760  -2.156  23.632  0.00  0.00    +0.000 A 
ATOM     23  C   UNL     1     -10.662  -0.803  23.296  0.00  0.00    +0.000 A 
ATOM     24  N   UNL     1     -11.555  -0.023  22.536  0.00  0.00    +0.000 N 
ATOM     25  C   UNL     1     -11.120   1.190  22.912  0.00  0.00    +0.000 A 
ATOM     26  C   UNL     1     -11.819   2.339  22.655  0.00  0.00    +0.000 A 
ATOM     27  C   UNL     1      -8.165   2.944  24.730  0.00  0.00    +0.000 C 
ATOM     28  O   UNL     1      -7.090   2.387  24.903  0.00  0.00    +0.000 OA
ATOM     29  N   UNL     1      -8.405   4.274  25.074  0.00  0.00    +0.000 N 
ATOM     30  C   UNL     1      -9.705   4.826  24.695  0.00  0.00    +0.000 C 
ATOM     31  H   UNL     1     -12.512   1.863  18.209  0.00  0.00    +0.000 HD
ATOM     32  H   UNL     1     -12.292  -0.396  18.634  0.00  0.00    +0.000 HD
ATOM     33  H   UNL     1     -10.536  -1.389  20.114  0.00  0.00    +0.000 HD
ATOM     34  H   UNL     1     -10.031   0.212  20.539  0.00  0.00    +0.000 HD
ATOM     35  H   UNL     1     -12.469  -1.347  21.291  0.00  0.00    +0.000 HD
ATOM     36  H   UNL     1     -12.200   5.007  19.638  0.00  0.00    +0.000 HD
ATOM     37  H   UNL     1     -12.988   7.211  20.498  0.00  0.00    +0.000 HD
ATOM     38  H   UNL     1     -13.888   7.386  22.802  0.00  0.00    +0.000 HD
ATOM     39  H   UNL     1     -13.323   5.621  24.468  0.00  0.00    +0.000 HD
ATOM     40  H   UNL     1      -7.483  -0.152  24.445  0.00  0.00    +0.000 HD
ATOM     41  H   UNL     1      -7.598  -2.603  24.790  0.00  0.00    +0.000 HD
ATOM     42  H   UNL     1      -9.730  -3.818  24.508  0.00  0.00    +0.000 HD
ATOM     43  H   UNL     1     -11.685  -2.700  23.469  0.00  0.00    +0.000 HD
ATOM     44  H   UNL     1      -7.777   4.718  25.727  0.00  0.00    +0.000 HD
ATOM     45  H   UNL     1      -9.556   5.564  23.900  0.00  0.00    +0.000 HD
ATOM     46  H   UNL     1     -10.201   5.249  25.567  0.00  0.00    +0.000 HD
ENDROOT
BRANCH   6  47
ATOM     47  C   UNL     1     -14.160   2.354  19.878  0.00  0.00    +0.000 C 
ATOM     48  H   UNL     1     -14.828   2.467  20.738  0.00  0.00    +0.000 HD
ATOM     49  H   UNL     1     -14.065   3.349  19.422  0.00  0.00    +0.000 HD
ATOM     50  H   UNL     1     -14.643   1.694  19.153  0.00  0.00    +0.000 HD
ENDBRANCH   6  47
BRANCH   2  51
ATOM     51  N   UNL     1     -10.495  -0.042  17.709  0.00  0.00    +0.000 N 
ATOM     52  C   UNL     1     -10.999  -0.906  16.721  0.00  0.00    +0.000 C 
ATOM     53  O   UNL     1     -12.104  -1.442  16.842  0.00  0.00    +0.000 OA
BRANCH  52  54
ATOM     54  C   UNL     1     -10.133  -1.149  15.480  0.00  0.00    +0.000 C 
ATOM     55  C   UNL     1     -10.483  -0.095  14.418  0.00  0.00    +0.000 C 
ATOM     56  C   UNL     1      -9.707  -0.317  13.128  0.00  0.00    +0.000 C 
ATOM     57  C   UNL     1      -9.960  -1.716  12.583  0.00  0.00    +0.000 C 
ATOM     58  C   UNL     1      -9.585  -2.780  13.610  0.00  0.00    +0.000 C 
ATOM     59  C   UNL     1     -10.321  -2.572  14.934  0.00  0.00    +0.000 C 
ATOM     60  H   UNL     1      -9.077  -1.066  15.767  0.00  0.00    +0.000 HD
ATOM     61  H   UNL     1     -10.279   0.921  14.776  0.00  0.00    +0.000 HD
ATOM     62  H   UNL     1     -11.560  -0.122  14.211  0.00  0.00    +0.000 HD
ATOM     63  H   UNL     1     -10.004   0.432  12.386  0.00  0.00    +0.000 HD
ATOM     64  H   UNL     1      -8.635  -0.179  13.313  0.00  0.00    +0.000 HD
ATOM     65  H   UNL     1     -11.021  -1.819  12.320  0.00  0.00    +0.000 HD
ATOM     66  H   UNL     1      -9.383  -1.866  11.663  0.00  0.00    +0.000 HD
ATOM     67  H   UNL     1      -8.502  -2.754  13.784  0.00  0.00    +0.000 HD
ATOM     68  H   UNL     1      -9.819  -3.774  13.213  0.00  0.00    +0.000 HD
ATOM     69  H   UNL     1      -9.945  -3.297  15.668  0.00  0.00    +0.000 HD
ATOM     70  H   UNL     1     -11.383  -2.795  14.792  0.00  0.00    +0.000 HD
ENDBRANCH  52  54
BRANCH  51  71
ATOM     71  C   UNL     1      -9.053   0.112  17.893  0.00  0.00    +0.000 C 
ATOM     72  H   UNL     1      -8.780   1.021  18.428  0.00  0.00    +0.000 HD
ATOM     73  H   UNL     1      -8.589   0.161  16.902  0.00  0.00    +0.000 HD
ATOM     74  H   UNL     1      -8.647  -0.725  18.466  0.00  0.00    +0.000 HD
ENDBRANCH  51  71
ENDBRANCH   2  51
BRANCH   1  75
ATOM     75  O   UNL     1     -10.880   2.715  18.890  0.00  0.00    +0.000 OA
BRANCH  75  76
ATOM     76  C   UNL     1     -10.935   3.529  17.734  0.00  0.00    +0.000 C 
ATOM     77  H   UNL     1     -10.466   3.069  16.869  0.00  0.00    +0.000 HD
ATOM     78  H   UNL     1     -11.966   3.799  17.501  0.00  0.00    +0.000 HD
ATOM     79  H   UNL     1     -10.386   4.451  17.948  0.00  0.00    +0.000 HD
ENDBRANCH  75  76
ENDBRANCH   1  75
TORSDOF 6
ENDMDL
MODEL 5
REMARK VINA RESULT:    -7.545      2.582      3.498
REMARK INTER + INTRA:         -10.379
REMARK INTER:                  -9.635
REMARK INTRA:                  -0.744
REMARK UNBOUND:                -0.850
REMARK  Name = 
REMARK  6 active torsions:
REMARK  status: ('A' for Active; 'I' for Inactive)
REMARK    1  A    between atoms: C_1  and  O_2
REMARK    2  A    between atoms: O_2  and  C_3
REMARK    3  A    between atoms: C_4  and  N_5
REMARK    4  A    between atoms: N_5  and  C_6
REMARK    5  A    between atoms: C_7  and  C_9
REMARK    6  A    between atoms: C_18  and  C_19
REMARK                            x       y       z     vdW  Elec       q    Type
REMARK                         _______ _______ _______ _____ _____    ______ ____
ROOT
ATOM      1  C   UNL     1     -10.573  -0.071  16.129  0.00  0.00    +0.000 C 
ATOM      2  C   UNL     1     -10.549  -1.194  15.037  0.00  0.00    +0.000 C 
ATOM      3  C   UNL     1     -10.378  -2.543  15.712  0.00  0.00    +0.000 C 
ATOM      4  C   UNL     1     -11.568  -2.814  16.649  0.00  0.00    +0.000 C 
ATOM      5  O   UNL     1     -12.306  -1.649  17.012  0.00  0.00    +0.000 OA
ATOM      6  C   UNL     1     -11.543  -0.450  17.312  0.00  0.00    +0.000 C 
ATOM      7  N   UNL     1     -10.953  -0.605  18.647  0.00  0.00    +0.000 N 
ATOM      8  C   UNL     1     -10.628   0.348  19.622  0.00  0.00    +0.000 A 
ATOM      9  C   UNL     1     -10.295   1.707  19.549  0.00  0.00    +0.000 A 
ATOM     10  C   UNL     1     -10.402   2.459  20.727  0.00  0.00    +0.000 A 
ATOM     11  C   UNL     1     -10.898   1.893  21.899  0.00  0.00    +0.000 A 
ATOM     12  C   UNL     1     -10.967   0.509  22.025  0.00  0.00    +0.000 A 
ATOM     13  C   UNL     1     -10.605  -0.275  20.919  0.00  0.00    +0.000 A 
ATOM     14  C   UNL     1     -10.271  -1.625  20.701  0.00  0.00    +0.000 A 
ATOM     15  C   UNL     1      -9.054  -2.168  21.204  0.00  0.00    +0.000 A 
ATOM     16  C   UNL     1      -8.497  -3.235  20.449  0.00  0.00    +0.000 A 
ATOM     17  C   UNL     1      -9.326  -3.636  19.388  0.00  0.00    +0.000 A 
ATOM     18  C   UNL     1      -9.330  -4.818  18.614  0.00  0.00    +0.000 A 
ATOM     19  C   UNL     1      -8.497  -5.938  18.450  0.00  0.00    +0.000 A 
ATOM     20  C   UNL     1      -8.988  -7.068  17.782  0.00  0.00    +0.000 A 
ATOM     21  C   UNL     1     -10.303  -7.120  17.327  0.00  0.00    +0.000 A 
ATOM     22  C   UNL     1     -11.109  -5.986  17.342  0.00  0.00    +0.000 A 
ATOM     23  C   UNL     1     -10.584  -4.805  17.877  0.00  0.00    +0.000 A 
ATOM     24  N   UNL     1     -11.128  -3.507  17.835  0.00  0.00    +0.000 N 
ATOM     25  C   UNL     1     -10.393  -2.959  18.816  0.00  0.00    +0.000 A 
ATOM     26  C   UNL     1     -10.693  -1.745  19.374  0.00  0.00    +0.000 A 
ATOM     27  C   UNL     1      -7.245  -3.612  21.001  0.00  0.00    +0.000 C 
ATOM     28  O   UNL     1      -6.405  -4.445  20.693  0.00  0.00    +0.000 OA
ATOM     29  N   UNL     1      -7.114  -2.760  22.097  0.00  0.00    +0.000 N 
ATOM     30  C   UNL     1      -8.150  -1.740  22.264  0.00  0.00    +0.000 C 
ATOM     31  H   UNL     1     -11.057   0.776  15.634  0.00  0.00    +0.000 HD
ATOM     32  H   UNL     1     -11.555  -1.224  14.594  0.00  0.00    +0.000 HD
ATOM     33  H   UNL     1     -10.325  -3.366  14.987  0.00  0.00    +0.000 HD
ATOM     34  H   UNL     1      -9.414  -2.579  16.233  0.00  0.00    +0.000 HD
ATOM     35  H   UNL     1     -12.265  -3.476  16.149  0.00  0.00    +0.000 HD
ATOM     36  H   UNL     1      -9.973   2.164  18.621  0.00  0.00    +0.000 HD
ATOM     37  H   UNL     1     -10.155   3.517  20.708  0.00  0.00    +0.000 HD
ATOM     38  H   UNL     1     -11.185   2.526  22.734  0.00  0.00    +0.000 HD
ATOM     39  H   UNL     1     -11.332   0.046  22.939  0.00  0.00    +0.000 HD
ATOM     40  H   UNL     1      -7.482  -5.943  18.847  0.00  0.00    +0.000 HD
ATOM     41  H   UNL     1      -8.349  -7.939  17.662  0.00  0.00    +0.000 HD
ATOM     42  H   UNL     1     -10.706  -8.050  16.932  0.00  0.00    +0.000 HD
ATOM     43  H   UNL     1     -12.133  -6.021  16.983  0.00  0.00    +0.000 HD
ATOM     44  H   UNL     1      -6.451  -3.006  22.816  0.00  0.00    +0.000 HD
ATOM     45  H   UNL     1      -7.713  -0.757  22.060  0.00  0.00    +0.000 HD
ATOM     46  H   UNL     1      -8.582  -1.805  23.260  0.00  0.00    +0.000 HD
ENDROOT
BRANCH   6  47
ATOM     47  C   UNL     1     -12.642   0.621  17.425  0.00  0.00    +0.000 C 
ATOM     48  H   UNL     1     -12.436   1.297  18.261  0.00  0.00    +0.000 HD
ATOM     49  H   UNL     1     -12.682   1.244  16.521  0.00  0.00    +0.000 HD
ATOM     50  H   UNL     1     -13.630   0.179  17.575  0.00  0.00    +0.000 HD
ENDBRANCH   6  47
BRANCH   2  51
ATOM     51  N   UNL     1      -9.653  -0.931  13.884  0.00  0.00    +0.000 N 
ATOM     52  C   UNL     1     -10.260  -1.007  12.618  0.00  0.00    +0.000 C 
ATOM     53  O   UNL     1     -11.453  -1.296  12.497  0.00  0.00    +0.000 OA
BRANCH  52  54
ATOM     54  C   UNL     1      -9.390  -0.703  11.393  0.00  0.00    +0.000 C 
ATOM     55  C   UNL     1      -9.719   0.710  10.890  0.00  0.00    +0.000 C 
ATOM     56  C   UNL     1      -8.939   1.054   9.629  0.00  0.00    +0.000 C 
ATOM     57  C   UNL     1      -9.207   0.031   8.535  0.00  0.00    +0.000 C 
ATOM     58  C   UNL     1      -8.853  -1.377   9.003  0.00  0.00    +0.000 C 
ATOM     59  C   UNL     1      -9.593  -1.749  10.287  0.00  0.00    +0.000 C 
ATOM     60  H   UNL     1      -8.334  -0.769  11.688  0.00  0.00    +0.000 HD
ATOM     61  H   UNL     1      -9.503   1.470  11.651  0.00  0.00    +0.000 HD
ATOM     62  H   UNL     1     -10.795   0.791  10.691  0.00  0.00    +0.000 HD
ATOM     63  H   UNL     1      -9.220   2.054   9.283  0.00  0.00    +0.000 HD
ATOM     64  H   UNL     1      -7.865   1.083   9.856  0.00  0.00    +0.000 HD
ATOM     65  H   UNL     1     -10.267   0.067   8.254  0.00  0.00    +0.000 HD
ATOM     66  H   UNL     1      -8.627   0.284   7.640  0.00  0.00    +0.000 HD
ATOM     67  H   UNL     1      -7.770  -1.444   9.170  0.00  0.00    +0.000 HD
ATOM     68  H   UNL     1      -9.098  -2.099   8.216  0.00  0.00    +0.000 HD
ATOM     69  H   UNL     1      -9.232  -2.726  10.637  0.00  0.00    +0.000 HD
ATOM     70  H   UNL     1     -10.658  -1.873  10.064  0.00  0.00    +0.000 HD
ENDBRANCH  52  54
BRANCH  51  71
ATOM     71  C   UNL     1      -8.221  -1.184  14.036  0.00  0.00    +0.000 C 
ATOM     72  H   UNL     1      -7.779  -1.696  13.182  0.00  0.00    +0.000 HD
ATOM     73  H   UNL     1      -8.082  -1.825  14.912  0.00  0.00    +0.000 HD
ATOM     74  H   UNL     1      -7.675  -0.244  14.156  0.00  0.00    +0.000 HD
ENDBRANCH  51  71
ENDBRANCH   2  51
BRANCH   1  75
ATOM     75  O   UNL     1      -9.321   0.522  16.515  0.00  0.00    +0.000 OA
BRANCH  75  76
ATOM     76  C   UNL     1      -9.035   1.851  16.123  0.00  0.00    +0.000 C 
ATOM     77  H   UNL     1      -8.136   2.246  16.587  0.00  0.00    +0.000 HD
ATOM     78  H   UNL     1      -8.957   1.924  15.036  0.00  0.00    +0.000 HD
ATOM     79  H   UNL     1      -9.869   2.483  16.443  0.00  0.00    +0.000 HD
ENDBRANCH  75  76
ENDBRANCH   1  75
TORSDOF 6
ENDMDL
MODEL 6
REMARK VINA RESULT:    -7.522      1.828      2.437
REMARK INTER + INTRA:         -10.351
REMARK INTER:                 -10.279
REMARK INTRA:                  -0.071
REMARK UNBOUND:                -0.850
REMARK  Name = 
REMARK  6 active torsions:
REMARK  status: ('A' for Active; 'I' for Inactive)
REMARK    1  A    between atoms: C_1  and  O_2
REMARK    2  A    between atoms: O_2  and  C_3
REMARK    3  A    between atoms: C_4  and  N_5
REMARK    4  A    between atoms: N_5  and  C_6
REMARK    5  A    between atoms: C_7  and  C_9
REMARK    6  A    between atoms: C_18  and  C_19
REMARK                            x       y       z     vdW  Elec       q    Type
REMARK                         _______ _______ _______ _____ _____    ______ ____
ROOT
ATOM      1  C   UNL     1     -10.856  -0.673  18.799  0.00  0.00    +0.000 C 
ATOM      2  C   UNL     1     -11.295  -1.287  17.426  0.00  0.00    +0.000 C 
ATOM      3  C   UNL     1     -10.786  -2.714  17.332  0.00  0.00    +0.000 C 
ATOM      4  C   UNL     1     -11.403  -3.566  18.455  0.00  0.00    +0.000 C 
ATOM      5  O   UNL     1     -11.933  -2.808  19.542  0.00  0.00    +0.000 OA
ATOM      6  C   UNL     1     -11.161  -1.662  19.988  0.00  0.00    +0.000 C 
ATOM      7  N   UNL     1     -10.020  -2.155  20.767  0.00  0.00    +0.000 N 
ATOM      8  C   UNL     1      -9.318  -1.573  21.833  0.00  0.00    +0.000 A 
ATOM      9  C   UNL     1      -9.104  -0.243  22.217  0.00  0.00    +0.000 A 
ATOM     10  C   UNL     1      -8.686  -0.015  23.535  0.00  0.00    +0.000 A 
ATOM     11  C   UNL     1      -8.569  -1.063  24.445  0.00  0.00    +0.000 A 
ATOM     12  C   UNL     1      -8.523  -2.375  23.987  0.00  0.00    +0.000 A 
ATOM     13  C   UNL     1      -8.681  -2.602  22.611  0.00  0.00    +0.000 A 
ATOM     14  C   UNL     1      -8.436  -3.670  21.727  0.00  0.00    +0.000 A 
ATOM     15  C   UNL     1      -7.105  -4.072  21.415  0.00  0.00    +0.000 A 
ATOM     16  C   UNL     1      -6.919  -4.638  20.126  0.00  0.00    +0.000 A 
ATOM     17  C   UNL     1      -8.127  -4.801  19.427  0.00  0.00    +0.000 A 
ATOM     18  C   UNL     1      -8.444  -5.590  18.299  0.00  0.00    +0.000 A 
ATOM     19  C   UNL     1      -7.739  -6.358  17.355  0.00  0.00    +0.000 A 
ATOM     20  C   UNL     1      -8.440  -7.248  16.531  0.00  0.00    +0.000 A 
ATOM     21  C   UNL     1      -9.815  -7.423  16.668  0.00  0.00    +0.000 A 
ATOM     22  C   UNL     1     -10.564  -6.583  17.486  0.00  0.00    +0.000 A 
ATOM     23  C   UNL     1      -9.895  -5.592  18.210  0.00  0.00    +0.000 A 
ATOM     24  N   UNL     1     -10.444  -4.524  18.946  0.00  0.00    +0.000 N 
ATOM     25  C   UNL     1      -9.361  -4.220  19.680  0.00  0.00    +0.000 A 
ATOM     26  C   UNL     1      -9.415  -3.392  20.769  0.00  0.00    +0.000 A 
ATOM     27  C   UNL     1      -5.540  -4.900  19.910  0.00  0.00    +0.000 C 
ATOM     28  O   UNL     1      -4.906  -5.353  18.969  0.00  0.00    +0.000 OA
ATOM     29  N   UNL     1      -4.952  -4.497  21.109  0.00  0.00    +0.000 N 
ATOM     30  C   UNL     1      -5.833  -3.867  22.093  0.00  0.00    +0.000 C 
ATOM     31  H   UNL     1     -11.543   0.165  18.952  0.00  0.00    +0.000 HD
ATOM     32  H   UNL     1     -12.391  -1.378  17.458  0.00  0.00    +0.000 HD
ATOM     33  H   UNL     1     -11.041  -3.184  16.373  0.00  0.00    +0.000 HD
ATOM     34  H   UNL     1      -9.689  -2.720  17.353  0.00  0.00    +0.000 HD
ATOM     35  H   UNL     1     -12.228  -4.139  18.048  0.00  0.00    +0.000 HD
ATOM     36  H   UNL     1      -9.260   0.579  21.529  0.00  0.00    +0.000 HD
ATOM     37  H   UNL     1      -8.513   1.004  23.870  0.00  0.00    +0.000 HD
ATOM     38  H   UNL     1      -8.464  -0.858  25.507  0.00  0.00    +0.000 HD
ATOM     39  H   UNL     1      -8.412  -3.208  24.678  0.00  0.00    +0.000 HD
ATOM     40  H   UNL     1      -6.656  -6.279  17.267  0.00  0.00    +0.000 HD
ATOM     41  H   UNL     1      -7.897  -7.849  15.806  0.00  0.00    +0.000 HD
ATOM     42  H   UNL     1     -10.321  -8.211  16.115  0.00  0.00    +0.000 HD
ATOM     43  H   UNL     1     -11.637  -6.714  17.591  0.00  0.00    +0.000 HD
ATOM     44  H   UNL     1      -4.025  -4.832  21.321  0.00  0.00    +0.000 HD
ATOM     45  H   UNL     1      -5.573  -2.806  22.170  0.00  0.00    +0.000 HD
ATOM     46  H   UNL     1      -5.756  -4.384  23.048  0.00  0.00    +0.000 HD
ENDROOT
BRANCH   6  47
ATOM     47  C   UNL     1     -12.124  -0.980  20.975  0.00  0.00    +0.000 C 
ATOM     48  H   UNL     1     -13.158  -1.270  20.765  0.00  0.00    +0.000 HD
ATOM     49  H   UNL     1     -11.916  -1.288  22.009  0.00  0.00    +0.000 HD
ATOM     50  H   UNL     1     -12.055   0.110  20.927  0.00  0.00    +0.000 HD
ENDBRANCH   6  47
BRANCH   2  51
ATOM     51  N   UNL     1     -11.037  -0.430  16.243  0.00  0.00    +0.000 N 
ATOM     52  C   UNL     1      -9.751  -0.540  15.687  0.00  0.00    +0.000 C 
ATOM     53  O   UNL     1      -8.903  -1.289  16.179  0.00  0.00    +0.000 OA
BRANCH  52  54
ATOM     54  C   UNL     1      -9.443   0.292  14.437  0.00  0.00    +0.000 C 
ATOM     55  C   UNL     1      -9.118  -0.659  13.276  0.00  0.00    +0.000 C 
ATOM     56  C   UNL     1      -8.734   0.102  12.015  0.00  0.00    +0.000 C 
ATOM     57  C   UNL     1      -7.554   1.025  12.283  0.00  0.00    +0.000 C 
ATOM     58  C   UNL     1      -7.869   2.003  13.411  0.00  0.00    +0.000 C 
ATOM     59  C   UNL     1      -8.291   1.276  14.688  0.00  0.00    +0.000 C 
ATOM     60  H   UNL     1     -10.323   0.903  14.197  0.00  0.00    +0.000 HD
ATOM     61  H   UNL     1      -9.966  -1.315  13.042  0.00  0.00    +0.000 HD
ATOM     62  H   UNL     1      -8.300  -1.331  13.565  0.00  0.00    +0.000 HD
ATOM     63  H   UNL     1      -8.481  -0.607  11.219  0.00  0.00    +0.000 HD
ATOM     64  H   UNL     1      -9.591   0.688  11.662  0.00  0.00    +0.000 HD
ATOM     65  H   UNL     1      -6.675   0.425  12.554  0.00  0.00    +0.000 HD
ATOM     66  H   UNL     1      -7.299   1.577  11.371  0.00  0.00    +0.000 HD
ATOM     67  H   UNL     1      -8.670   2.681  13.092  0.00  0.00    +0.000 HD
ATOM     68  H   UNL     1      -6.989   2.624  13.616  0.00  0.00    +0.000 HD
ATOM     69  H   UNL     1      -8.602   2.019  15.435  0.00  0.00    +0.000 HD
ATOM     70  H   UNL     1      -7.423   0.757  15.108  0.00  0.00    +0.000 HD
ENDBRANCH  52  54
BRANCH  51  71
ATOM     71  C   UNL     1     -11.809   0.802  16.086  0.00  0.00    +0.000 C 
ATOM     72  H   UNL     1     -12.335   0.866  15.135  0.00  0.00    +0.000 HD
ATOM     73  H   UNL     1     -11.112   1.645  16.135  0.00  0.00    +0.000 HD
ATOM     74  H   UNL     1     -12.566   0.883  16.871  0.00  0.00    +0.000 HD
ENDBRANCH  51  71
ENDBRANCH   2  51
BRANCH   1  75
ATOM     75  O   UNL     1      -9.589   0.004  18.861  0.00  0.00    +0.000 OA
BRANCH  75  76
ATOM     76  C   UNL     1      -9.561   1.416  18.932  0.00  0.00    +0.000 C 
ATOM     77  H   UNL     1      -9.658   1.793  19.947  0.00  0.00    +0.000 HD
ATOM     78  H   UNL     1      -8.650   1.807  18.474  0.00  0.00    +0.000 HD
ATOM     79  H   UNL     1     -10.413   1.798  18.363  0.00  0.00    +0.000 HD
ENDBRANCH  75  76
ENDBRANCH   1  75
TORSDOF 6
ENDMDL
MODEL 7
REMARK VINA RESULT:    -7.055      3.097      8.816
REMARK INTER + INTRA:          -9.761
REMARK INTER:                  -9.269
REMARK INTRA:                  -0.492
REMARK UNBOUND:                -0.850
REMARK  Name = 
REMARK  6 active torsions:
REMARK  status: ('A' for Active; 'I' for Inactive)
REMARK    1  A    between atoms: C_1  and  O_2
REMARK    2  A    between atoms: O_2  and  C_3
REMARK    3  A    between atoms: C_4  and  N_5
REMARK    4  A    between atoms: N_5  and  C_6
REMARK    5  A    between atoms: C_7  and  C_9
REMARK    6  A    between atoms: C_18  and  C_19
REMARK                            x       y       z     vdW  Elec       q    Type
REMARK                         _______ _______ _______ _____ _____    ______ ____
ROOT
ATOM      1  C   UNL     1     -11.344  -1.662  17.630  0.00  0.00    +0.000 C 
ATOM      2  C   UNL     1     -10.995  -0.740  18.847  0.00  0.00    +0.000 C 
ATOM      3  C   UNL     1     -10.273   0.497  18.345  0.00  0.00    +0.000 C 
ATOM      4  C   UNL     1     -11.188   1.288  17.393  0.00  0.00    +0.000 C 
ATOM      5  O   UNL     1     -12.275   0.532  16.862  0.00  0.00    +0.000 OA
ATOM      6  C   UNL     1     -11.995  -0.835  16.457  0.00  0.00    +0.000 C 
ATOM      7  N   UNL     1     -11.277  -0.794  15.178  0.00  0.00    +0.000 N 
ATOM      8  C   UNL     1     -11.250  -1.706  14.113  0.00  0.00    +0.000 A 
ATOM      9  C   UNL     1     -11.459  -3.089  14.040  0.00  0.00    +0.000 A 
ATOM     10  C   UNL     1     -11.738  -3.631  12.778  0.00  0.00    +0.000 A 
ATOM     11  C   UNL     1     -11.882  -2.813  11.660  0.00  0.00    +0.000 A 
ATOM     12  C   UNL     1     -11.416  -1.503  11.695  0.00  0.00    +0.000 A 
ATOM     13  C   UNL     1     -10.883  -1.022  12.901  0.00  0.00    +0.000 A 
ATOM     14  C   UNL     1     -10.087   0.072  13.292  0.00  0.00    +0.000 A 
ATOM     15  C   UNL     1      -8.717   0.152  12.911  0.00  0.00    +0.000 A 
ATOM     16  C   UNL     1      -7.868   0.850  13.811  0.00  0.00    +0.000 A 
ATOM     17  C   UNL     1      -8.574   1.438  14.874  0.00  0.00    +0.000 A 
ATOM     18  C   UNL     1      -8.202   2.455  15.781  0.00  0.00    +0.000 A 
ATOM     19  C   UNL     1      -7.026   3.151  16.114  0.00  0.00    +0.000 A 
ATOM     20  C   UNL     1      -7.113   4.317  16.887  0.00  0.00    +0.000 A 
ATOM     21  C   UNL     1      -8.347   4.825  17.286  0.00  0.00    +0.000 A 
ATOM     22  C   UNL     1      -9.515   4.092  17.101  0.00  0.00    +0.000 A 
ATOM     23  C   UNL     1      -9.427   2.855  16.455  0.00  0.00    +0.000 A 
ATOM     24  N   UNL     1     -10.420   1.866  16.319  0.00  0.00    +0.000 N 
ATOM     25  C   UNL     1      -9.863   1.171  15.314  0.00  0.00    +0.000 A 
ATOM     26  C   UNL     1     -10.547   0.221  14.603  0.00  0.00    +0.000 A 
ATOM     27  C   UNL     1      -6.523   0.770  13.365  0.00  0.00    +0.000 C 
ATOM     28  O   UNL     1      -5.462   1.186  13.807  0.00  0.00    +0.000 OA
ATOM     29  N   UNL     1      -6.627   0.037  12.182  0.00  0.00    +0.000 N 
ATOM     30  C   UNL     1      -7.952  -0.489  11.850  0.00  0.00    +0.000 C 
ATOM     31  H   UNL     1     -12.151  -2.302  17.999  0.00  0.00    +0.000 HD
ATOM     32  H   UNL     1     -11.951  -0.368  19.245  0.00  0.00    +0.000 HD
ATOM     33  H   UNL     1      -9.977   1.167  19.163  0.00  0.00    +0.000 HD
ATOM     34  H   UNL     1      -9.324   0.209  17.875  0.00  0.00    +0.000 HD
ATOM     35  H   UNL     1     -11.627   2.117  17.936  0.00  0.00    +0.000 HD
ATOM     36  H   UNL     1     -11.413  -3.718  14.921  0.00  0.00    +0.000 HD
ATOM     37  H   UNL     1     -11.908  -4.699  12.683  0.00  0.00    +0.000 HD
ATOM     38  H   UNL     1     -12.312  -3.208  10.744  0.00  0.00    +0.000 HD
ATOM     39  H   UNL     1     -11.500  -0.853  10.827  0.00  0.00    +0.000 HD
ATOM     40  H   UNL     1      -6.054   2.805  15.766  0.00  0.00    +0.000 HD
ATOM     41  H   UNL     1      -6.207   4.862  17.138  0.00  0.00    +0.000 HD
ATOM     42  H   UNL     1      -8.404   5.798  17.769  0.00  0.00    +0.000 HD
ATOM     43  H   UNL     1     -10.478   4.483  17.416  0.00  0.00    +0.000 HD
ATOM     44  H   UNL     1      -5.861   0.076  11.529  0.00  0.00    +0.000 HD
ATOM     45  H   UNL     1      -7.935  -1.579  11.956  0.00  0.00    +0.000 HD
ATOM     46  H   UNL     1      -8.239  -0.173  10.850  0.00  0.00    +0.000 HD
ENDROOT
BRANCH   6  47
ATOM     47  C   UNL     1     -13.401  -1.388  16.170  0.00  0.00    +0.000 C 
ATOM     48  H   UNL     1     -14.029  -0.621  15.706  0.00  0.00    +0.000 HD
ATOM     49  H   UNL     1     -13.360  -2.228  15.464  0.00  0.00    +0.000 HD
ATOM     50  H   UNL     1     -13.898  -1.735  17.080  0.00  0.00    +0.000 HD
ENDBRANCH   6  47
BRANCH   2  51
ATOM     51  N   UNL     1     -10.366  -1.431  20.000  0.00  0.00    +0.000 N 
ATOM     52  C   UNL     1     -10.914  -1.125  21.258  0.00  0.00    +0.000 C 
ATOM     53  O   UNL     1     -11.839  -0.318  21.374  0.00  0.00    +0.000 OA
BRANCH  52  54
ATOM     54  C   UNL     1     -10.330  -1.842  22.480  0.00  0.00    +0.000 C 
ATOM     55  C   UNL     1     -11.473  -2.189  23.445  0.00  0.00    +0.000 C 
ATOM     56  C   UNL     1     -10.957  -2.843  24.718  0.00  0.00    +0.000 C 
ATOM     57  C   UNL     1      -9.939  -1.947  25.410  0.00  0.00    +0.000 C 
ATOM     58  C   UNL     1      -8.776  -1.619  24.479  0.00  0.00    +0.000 C 
ATOM     59  C   UNL     1      -9.257  -0.988  23.173  0.00  0.00    +0.000 C 
ATOM     60  H   UNL     1      -9.824  -2.756  22.143  0.00  0.00    +0.000 HD
ATOM     61  H   UNL     1     -12.204  -2.861  22.980  0.00  0.00    +0.000 HD
ATOM     62  H   UNL     1     -12.032  -1.279  23.699  0.00  0.00    +0.000 HD
ATOM     63  H   UNL     1     -11.795  -3.048  25.394  0.00  0.00    +0.000 HD
ATOM     64  H   UNL     1     -10.496  -3.809  24.476  0.00  0.00    +0.000 HD
ATOM     65  H   UNL     1     -10.429  -1.016  25.726  0.00  0.00    +0.000 HD
ATOM     66  H   UNL     1      -9.566  -2.438  26.315  0.00  0.00    +0.000 HD
ATOM     67  H   UNL     1      -8.216  -2.537  24.259  0.00  0.00    +0.000 HD
ATOM     68  H   UNL     1      -8.083  -0.936  24.983  0.00  0.00    +0.000 HD
ATOM     69  H   UNL     1      -8.399  -0.863  22.499  0.00  0.00    +0.000 HD
ATOM     70  H   UNL     1      -9.639   0.018  23.380  0.00  0.00    +0.000 HD
ENDBRANCH  52  54
BRANCH  51  71
ATOM     71  C   UNL     1      -8.976  -1.869  19.883  0.00  0.00    +0.000 C 
ATOM     72  H   UNL     1      -8.874  -2.907  19.570  0.00  0.00    +0.000 HD
ATOM     73  H   UNL     1      -8.508  -1.774  20.868  0.00  0.00    +0.000 HD
ATOM     74  H   UNL     1      -8.444  -1.263  19.145  0.00  0.00    +0.000 HD
ENDBRANCH  51  71
ENDBRANCH   2  51
BRANCH   1  75
ATOM     75  O   UNL     1     -10.378  -2.651  17.233  0.00  0.00    +0.000 OA
BRANCH  75  76
ATOM     76  C   UNL     1     -10.671  -4.022  17.426  0.00  0.00    +0.000 C 
ATOM     77  H   UNL     1     -10.903  -4.266  18.459  0.00  0.00    +0.000 HD
ATOM     78  H   UNL     1     -11.489  -4.336  16.775  0.00  0.00    +0.000 HD
ATOM     79  H   UNL     1      -9.782  -4.597  17.149  0.00  0.00    +0.000 HD
ENDBRANCH  75  76
ENDBRANCH   1  75
TORSDOF 6
ENDMDL
MODEL 8
REMARK VINA RESULT:    -6.855      2.537      8.137
REMARK INTER + INTRA:          -9.507
REMARK INTER:                  -8.870
REMARK INTRA:                  -0.638
REMARK UNBOUND:                -0.850
REMARK  Name = 
REMARK  6 active torsions:
REMARK  status: ('A' for Active; 'I' for Inactive)
REMARK    1  A    between atoms: C_1  and  O_2
REMARK    2  A    between atoms: O_2  and  C_3
REMARK    3  A    between atoms: C_4  and  N_5
REMARK    4  A    between atoms: N_5  and  C_6
REMARK    5  A    between atoms: C_7  and  C_9
REMARK    6  A    between atoms: C_18  and  C_19
REMARK                            x       y       z     vdW  Elec       q    Type
REMARK                         _______ _______ _______ _____ _____    ______ ____
ROOT
ATOM      1  C   UNL     1     -10.459  -2.081  19.183  0.00  0.00    +0.000 C 
ATOM      2  C   UNL     1      -9.843  -2.952  18.036  0.00  0.00    +0.000 C 
ATOM      3  C   UNL     1      -9.992  -2.217  16.716  0.00  0.00    +0.000 C 
ATOM      4  C   UNL     1      -9.225  -0.884  16.768  0.00  0.00    +0.000 C 
ATOM      5  O   UNL     1      -8.925  -0.431  18.087  0.00  0.00    +0.000 OA
ATOM      6  C   UNL     1      -9.963  -0.587  19.091  0.00  0.00    +0.000 C 
ATOM      7  N   UNL     1     -10.976   0.449  18.866  0.00  0.00    +0.000 N 
ATOM      8  C   UNL     1     -11.830   1.107  19.763  0.00  0.00    +0.000 A 
ATOM      9  C   UNL     1     -12.368   0.743  21.005  0.00  0.00    +0.000 A 
ATOM     10  C   UNL     1     -12.869   1.772  21.814  0.00  0.00    +0.000 A 
ATOM     11  C   UNL     1     -12.761   3.106  21.431  0.00  0.00    +0.000 A 
ATOM     12  C   UNL     1     -12.477   3.426  20.108  0.00  0.00    +0.000 A 
ATOM     13  C   UNL     1     -12.226   2.376  19.212  0.00  0.00    +0.000 A 
ATOM     14  C   UNL     1     -12.181   2.228  17.812  0.00  0.00    +0.000 A 
ATOM     15  C   UNL     1     -13.367   2.319  17.028  0.00  0.00    +0.000 A 
ATOM     16  C   UNL     1     -13.373   1.558  15.829  0.00  0.00    +0.000 A 
ATOM     17  C   UNL     1     -12.139   0.933  15.580  0.00  0.00    +0.000 A 
ATOM     18  C   UNL     1     -11.608   0.373  14.397  0.00  0.00    +0.000 A 
ATOM     19  C   UNL     1     -12.079   0.063  13.109  0.00  0.00    +0.000 A 
ATOM     20  C   UNL     1     -11.160  -0.228  12.092  0.00  0.00    +0.000 A 
ATOM     21  C   UNL     1      -9.788  -0.163  12.323  0.00  0.00    +0.000 A 
ATOM     22  C   UNL     1      -9.287  -0.002  13.611  0.00  0.00    +0.000 A 
ATOM     23  C   UNL     1     -10.196   0.148  14.663  0.00  0.00    +0.000 A 
ATOM     24  N   UNL     1      -9.942   0.139  16.048  0.00  0.00    +0.000 N 
ATOM     25  C   UNL     1     -11.088   0.706  16.457  0.00  0.00    +0.000 A 
ATOM     26  C   UNL     1     -11.268   1.173  17.732  0.00  0.00    +0.000 A 
ATOM     27  C   UNL     1     -14.641   1.661  15.200  0.00  0.00    +0.000 C 
ATOM     28  O   UNL     1     -15.118   1.178  14.183  0.00  0.00    +0.000 OA
ATOM     29  N   UNL     1     -15.345   2.514  16.048  0.00  0.00    +0.000 N 
ATOM     30  C   UNL     1     -14.672   2.913  17.285  0.00  0.00    +0.000 C 
ATOM     31  H   UNL     1      -9.997  -2.470  20.095  0.00  0.00    +0.000 HD
ATOM     32  H   UNL     1      -8.758  -2.990  18.217  0.00  0.00    +0.000 HD
ATOM     33  H   UNL     1      -9.603  -2.798  15.870  0.00  0.00    +0.000 HD
ATOM     34  H   UNL     1     -11.056  -2.082  16.484  0.00  0.00    +0.000 HD
ATOM     35  H   UNL     1      -8.275  -1.006  16.262  0.00  0.00    +0.000 HD
ATOM     36  H   UNL     1     -12.392  -0.289  21.333  0.00  0.00    +0.000 HD
ATOM     37  H   UNL     1     -13.291   1.528  22.785  0.00  0.00    +0.000 HD
ATOM     38  H   UNL     1     -12.945   3.899  22.151  0.00  0.00    +0.000 HD
ATOM     39  H   UNL     1     -12.407   4.462  19.783  0.00  0.00    +0.000 HD
ATOM     40  H   UNL     1     -13.146   0.061  12.889  0.00  0.00    +0.000 HD
ATOM     41  H   UNL     1     -11.520  -0.459  11.093  0.00  0.00    +0.000 HD
ATOM     42  H   UNL     1      -9.091  -0.260  11.493  0.00  0.00    +0.000 HD
ATOM     43  H   UNL     1      -8.218   0.044  13.795  0.00  0.00    +0.000 HD
ATOM     44  H   UNL     1     -16.172   2.967  15.690  0.00  0.00    +0.000 HD
ATOM     45  H   UNL     1     -15.181   2.439  18.131  0.00  0.00    +0.000 HD
ATOM     46  H   UNL     1     -14.653   3.997  17.367  0.00  0.00    +0.000 HD
ENDROOT
BRANCH   6  47
ATOM     47  C   UNL     1      -9.223  -0.222  20.389  0.00  0.00    +0.000 C 
ATOM     48  H   UNL     1      -8.640  -1.075  20.753  0.00  0.00    +0.000 HD
ATOM     49  H   UNL     1      -8.509   0.596  20.223  0.00  0.00    +0.000 HD
ATOM     50  H   UNL     1      -9.911   0.086  21.181  0.00  0.00    +0.000 HD
ENDBRANCH   6  47
BRANCH   2  51
ATOM     51  N   UNL     1     -10.261  -4.375  18.033  0.00  0.00    +0.000 N 
ATOM     52  C   UNL     1      -9.291  -5.290  18.480  0.00  0.00    +0.000 C 
ATOM     53  O   UNL     1      -8.168  -4.914  18.825  0.00  0.00    +0.000 OA
BRANCH  52  54
ATOM     54  C   UNL     1      -9.683  -6.770  18.537  0.00  0.00    +0.000 C 
ATOM     55  C   UNL     1      -8.979  -7.424  19.735  0.00  0.00    +0.000 C 
ATOM     56  C   UNL     1      -9.269  -8.916  19.814  0.00  0.00    +0.000 C 
ATOM     57  C   UNL     1      -8.864  -9.612  18.522  0.00  0.00    +0.000 C 
ATOM     58  C   UNL     1      -9.580  -8.999  17.323  0.00  0.00    +0.000 C 
ATOM     59  C   UNL     1      -9.339  -7.493  17.227  0.00  0.00    +0.000 C 
ATOM     60  H   UNL     1     -10.773  -6.840  18.650  0.00  0.00    +0.000 HD
ATOM     61  H   UNL     1      -9.280  -6.960  20.683  0.00  0.00    +0.000 HD
ATOM     62  H   UNL     1      -7.896  -7.262  19.661  0.00  0.00    +0.000 HD
ATOM     63  H   UNL     1      -8.727  -9.353  20.660  0.00  0.00    +0.000 HD
ATOM     64  H   UNL     1     -10.338  -9.074  20.001  0.00  0.00    +0.000 HD
ATOM     65  H   UNL     1      -7.778  -9.521  18.385  0.00  0.00    +0.000 HD
ATOM     66  H   UNL     1      -9.092 -10.681  18.589  0.00  0.00    +0.000 HD
ATOM     67  H   UNL     1     -10.657  -9.195  17.403  0.00  0.00    +0.000 HD
ATOM     68  H   UNL     1      -9.237  -9.485  16.402  0.00  0.00    +0.000 HD
ATOM     69  H   UNL     1      -9.952  -7.085  16.413  0.00  0.00    +0.000 HD
ATOM     70  H   UNL     1      -8.295  -7.315  16.950  0.00  0.00    +0.000 HD
ENDBRANCH  52  54
BRANCH  51  71
ATOM     71  C   UNL     1     -11.306  -4.799  17.102  0.00  0.00    +0.000 C 
ATOM     72  H   UNL     1     -12.220  -5.123  17.596  0.00  0.00    +0.000 HD
ATOM     73  H   UNL     1     -10.922  -5.647  16.527  0.00  0.00    +0.000 HD
ATOM     74  H   UNL     1     -11.582  -3.977  16.436  0.00  0.00    +0.000 HD
ENDBRANCH  51  71
ENDBRANCH   2  51
BRANCH   1  75
ATOM     75  O   UNL     1     -11.852  -2.257  19.491  0.00  0.00    +0.000 OA
BRANCH  75  76
ATOM     76  C   UNL     1     -12.221  -2.825  20.732  0.00  0.00    +0.000 C 
ATOM     77  H   UNL     1     -13.022  -3.554  20.645  0.00  0.00    +0.000 HD
ATOM     78  H   UNL     1     -11.356  -3.277  21.222  0.00  0.00    +0.000 HD
ATOM     79  H   UNL     1     -12.587  -2.018  21.375  0.00  0.00    +0.000 HD
ENDBRANCH  75  76
ENDBRANCH   1  75
TORSDOF 6
ENDMDL
MODEL 9
REMARK VINA RESULT:    -6.827      3.200      8.477
REMARK INTER + INTRA:          -9.473
REMARK INTER:                  -8.720
REMARK INTRA:                  -0.753
REMARK UNBOUND:                -0.850
REMARK  Name = 
REMARK  6 active torsions:
REMARK  status: ('A' for Active; 'I' for Inactive)
REMARK    1  A    between atoms: C_1  and  O_2
REMARK    2  A    between atoms: O_2  and  C_3
REMARK    3  A    between atoms: C_4  and  N_5
REMARK    4  A    between atoms: N_5  and  C_6
REMARK    5  A    between atoms: C_7  and  C_9
REMARK    6  A    between atoms: C_18  and  C_19
REMARK                            x       y       z     vdW  Elec       q    Type
REMARK                         _______ _______ _______ _____ _____    ______ ____
ROOT
ATOM      1  C   UNL     1     -10.395  -2.698  16.905  0.00  0.00    +0.000 C 
ATOM      2  C   UNL     1      -9.994  -3.807  15.874  0.00  0.00    +0.000 C 
ATOM      3  C   UNL     1     -10.288  -3.312  14.470  0.00  0.00    +0.000 C 
ATOM      4  C   UNL     1      -9.450  -2.056  14.170  0.00  0.00    +0.000 C 
ATOM      5  O   UNL     1      -8.944  -1.399  15.331  0.00  0.00    +0.000 OA
ATOM      6  C   UNL     1      -9.838  -1.289  16.471  0.00  0.00    +0.000 C 
ATOM      7  N   UNL     1     -10.815  -0.233  16.186  0.00  0.00    +0.000 N 
ATOM      8  C   UNL     1     -11.498   0.640  17.044  0.00  0.00    +0.000 A 
ATOM      9  C   UNL     1     -11.875   0.549  18.390  0.00  0.00    +0.000 A 
ATOM     10  C   UNL     1     -12.202   1.742  19.049  0.00  0.00    +0.000 A 
ATOM     11  C   UNL     1     -12.077   2.974  18.410  0.00  0.00    +0.000 A 
ATOM     12  C   UNL     1     -11.965   3.027  17.024  0.00  0.00    +0.000 A 
ATOM     13  C   UNL     1     -11.899   1.816  16.318  0.00  0.00    +0.000 A 
ATOM     14  C   UNL     1     -12.059   1.416  14.978  0.00  0.00    +0.000 A 
ATOM     15  C   UNL     1     -13.336   1.458  14.349  0.00  0.00    +0.000 A 
ATOM     16  C   UNL     1     -13.551   0.497  13.326  0.00  0.00    +0.000 A 
ATOM     17  C   UNL     1     -12.400  -0.258  13.044  0.00  0.00    +0.000 A 
ATOM     18  C   UNL     1     -12.071  -1.062  11.929  0.00  0.00    +0.000 A 
ATOM     19  C   UNL     1     -12.734  -1.560  10.794  0.00  0.00    +0.000 A 
ATOM     20  C   UNL     1     -11.983  -2.100   9.741  0.00  0.00    +0.000 A 
ATOM     21  C   UNL     1     -10.591  -2.104   9.778  0.00  0.00    +0.000 A 
ATOM     22  C   UNL     1      -9.907  -1.754  10.938  0.00  0.00    +0.000 A 
ATOM     23  C   UNL     1     -10.650  -1.346  12.050  0.00  0.00    +0.000 A 
ATOM     24  N   UNL     1     -10.205  -1.126  13.368  0.00  0.00    +0.000 N 
ATOM     25  C   UNL     1     -11.250  -0.406  13.806  0.00  0.00    +0.000 A 
ATOM     26  C   UNL     1     -11.224   0.295  14.982  0.00  0.00    +0.000 A 
ATOM     27  C   UNL     1     -14.888   0.584  12.856  0.00  0.00    +0.000 C 
ATOM     28  O   UNL     1     -15.528  -0.034  12.018  0.00  0.00    +0.000 OA
ATOM     29  N   UNL     1     -15.419   1.629  13.611  0.00  0.00    +0.000 N 
ATOM     30  C   UNL     1     -14.559   2.189  14.654  0.00  0.00    +0.000 C 
ATOM     31  H   UNL     1      -9.832  -2.952  17.808  0.00  0.00    +0.000 HD
ATOM     32  H   UNL     1      -8.898  -3.898  15.919  0.00  0.00    +0.000 HD
ATOM     33  H   UNL     1     -10.052  -4.064  13.706  0.00  0.00    +0.000 HD
ATOM     34  H   UNL     1     -11.365  -3.137  14.354  0.00  0.00    +0.000 HD
ATOM     35  H   UNL     1      -8.588  -2.342  13.579  0.00  0.00    +0.000 HD
ATOM     36  H   UNL     1     -11.909  -0.403  18.908  0.00  0.00    +0.000 HD
ATOM     37  H   UNL     1     -12.496   1.711  20.094  0.00  0.00    +0.000 HD
ATOM     38  H   UNL     1     -12.115   3.895  18.984  0.00  0.00    +0.000 HD
ATOM     39  H   UNL     1     -11.886   3.978  16.504  0.00  0.00    +0.000 HD
ATOM     40  H   UNL     1     -13.820  -1.518  10.717  0.00  0.00    +0.000 HD
ATOM     41  H   UNL     1     -12.493  -2.478   8.858  0.00  0.00    +0.000 HD
ATOM     42  H   UNL     1     -10.024  -2.403   8.900  0.00  0.00    +0.000 HD
ATOM     43  H   UNL     1      -8.821  -1.760  10.972  0.00  0.00    +0.000 HD
ATOM     44  H   UNL     1     -16.262   2.074  13.282  0.00  0.00    +0.000 HD
ATOM     45  H   UNL     1     -14.968   1.916  15.632  0.00  0.00    +0.000 HD
ATOM     46  H   UNL     1     -14.469   3.266  14.526  0.00  0.00    +0.000 HD
ENDROOT
BRANCH   6  47
ATOM     47  C   UNL     1      -8.904  -0.756  17.571  0.00  0.00    +0.000 C 
ATOM     48  H   UNL     1      -9.081   0.310  17.743  0.00  0.00    +0.000 HD
ATOM     49  H   UNL     1      -9.089  -1.262  18.528  0.00  0.00    +0.000 HD
ATOM     50  H   UNL     1      -7.850  -0.892  17.315  0.00  0.00    +0.000 HD
ENDBRANCH   6  47
BRANCH   2  51
ATOM     51  N   UNL     1     -10.484  -5.170  16.194  0.00  0.00    +0.000 N 
ATOM     52  C   UNL     1      -9.488  -6.152  16.336  0.00  0.00    +0.000 C 
ATOM     53  O   UNL     1      -8.295  -5.880  16.179  0.00  0.00    +0.000 OA
BRANCH  52  54
ATOM     54  C   UNL     1      -9.935  -7.570  16.707  0.00  0.00    +0.000 C 
ATOM     55  C   UNL     1      -9.146  -8.032  17.940  0.00  0.00    +0.000 C 
ATOM     56  C   UNL     1      -9.490  -9.464  18.326  0.00  0.00    +0.000 C 
ATOM     57  C   UNL     1      -9.242 -10.409  17.159  0.00  0.00    +0.000 C 
ATOM     58  C   UNL     1     -10.046  -9.987  15.932  0.00  0.00    +0.000 C 
ATOM     59  C   UNL     1      -9.751  -8.542  15.532  0.00  0.00    +0.000 C 
ATOM     60  H   UNL     1     -11.011  -7.553  16.926  0.00  0.00    +0.000 HD
ATOM     61  H   UNL     1      -9.333  -7.384  18.806  0.00  0.00    +0.000 HD
ATOM     62  H   UNL     1      -8.069  -7.953  17.742  0.00  0.00    +0.000 HD
ATOM     63  H   UNL     1      -8.887  -9.769  19.188  0.00  0.00    +0.000 HD
ATOM     64  H   UNL     1     -10.542  -9.521  18.633  0.00  0.00    +0.000 HD
ATOM     65  H   UNL     1      -8.172 -10.411  16.912  0.00  0.00    +0.000 HD
ATOM     66  H   UNL     1      -9.509 -11.432  17.447  0.00  0.00    +0.000 HD
ATOM     67  H   UNL     1     -11.117 -10.100  16.143  0.00  0.00    +0.000 HD
ATOM     68  H   UNL     1      -9.815 -10.655  15.094  0.00  0.00    +0.000 HD
ATOM     69  H   UNL     1     -10.423  -8.255  14.712  0.00  0.00    +0.000 HD
ATOM     70  H   UNL     1      -8.732  -8.481  15.136  0.00  0.00    +0.000 HD
ENDBRANCH  52  54
BRANCH  51  71
ATOM     71  C   UNL     1     -11.839  -5.542  15.789  0.00  0.00    +0.000 C 
ATOM     72  H   UNL     1     -11.908  -5.856  14.748  0.00  0.00    +0.000 HD
ATOM     73  H   UNL     1     -12.481  -4.664  15.911  0.00  0.00    +0.000 HD
ATOM     74  H   UNL     1     -12.206  -6.375  16.394  0.00  0.00    +0.000 HD
ENDBRANCH  51  71
ENDBRANCH   2  51
BRANCH   1  75
ATOM     75  O   UNL     1     -11.739  -2.706  17.416  0.00  0.00    +0.000 OA
BRANCH  75  76
ATOM     76  C   UNL     1     -11.978  -3.170  18.731  0.00  0.00    +0.000 C 
ATOM     77  H   UNL     1     -11.177  -3.800  19.111  0.00  0.00    +0.000 HD
ATOM     78  H   UNL     1     -12.150  -2.333  19.411  0.00  0.00    +0.000 HD
ATOM     79  H   UNL     1     -12.887  -3.780  18.712  0.00  0.00    +0.000 HD
ENDBRANCH  75  76
ENDBRANCH   1  75
TORSDOF 6
ENDMDL
