REMARK  Name = 
REMARK  1 active torsions:
REMARK  status: ('A' for Active; 'I' for Inactive)
REMARK    1  A    between atoms: C_6  and  C_7
REMARK                            x       y       z     vdW  Elec       q    Type
REMARK                         _______ _______ _______ _____ _____    ______ ____
ROOT
ATOM      1  C   UNL     1      -0.239   0.460   0.763  0.00  0.00    +0.000 A 
ATOM      2  C   UNL     1      -0.339   1.470   1.704  0.00  0.00    +0.000 A 
ATOM      3  N   UNL     1       0.489   2.495   1.330  0.00  0.00    +0.000 N 
ATOM      4  C   UNL     1       1.127   2.184   0.153  0.00  0.00    +0.000 A 
ATOM      5  C   UNL     1       2.065   2.920  -0.583  0.00  0.00    +0.000 A 
ATOM      6  C   UNL     1       2.559   2.356  -1.769  0.00  0.00    +0.000 A 
ATOM      7 BR   UNL     1       3.831   3.390  -2.733  0.00  0.00    +0.000 Br
ATOM      8  C   UNL     1       2.124   1.099  -2.196  0.00  0.00    +0.000 A 
ATOM      9 BR   UNL     1       2.746   0.276  -3.793  0.00  0.00    +0.000 Br
ATOM     10  C   UNL     1       1.190   0.378  -1.437  0.00  0.00    +0.000 A 
ATOM     11  C   UNL     1       0.678   0.924  -0.240  0.00  0.00    +0.000 A 
ATOM     12  H   UNL     1      -0.925   1.555   2.610  0.00  0.00    +0.000 HD
ATOM     13  H   UNL     1       0.621   3.355   1.844  0.00  0.00    +0.000 HD
ATOM     14  H   UNL     1       2.399   3.895  -0.242  0.00  0.00    +0.000 HD
ATOM     15  H   UNL     1       0.854  -0.604  -1.762  0.00  0.00    +0.000 HD
ENDROOT
BRANCH   1  21
ATOM     16  N   UNL     1      -1.956  -3.348  -1.414  0.00  0.00    +0.000 N 
ATOM     17  C   UNL     1      -1.755  -2.654  -0.239  0.00  0.00    +0.000 A 
ATOM     18  N   UNL     1      -2.157  -3.242   0.890  0.00  0.00    +0.000 NA
ATOM     19  C   UNL     1      -1.907  -2.579   2.032  0.00  0.00    +0.000 A 
ATOM     20  C   UNL     1      -1.290  -1.355   2.076  0.00  0.00    +0.000 A 
ATOM     21  C   UNL     1      -0.943  -0.818   0.855  0.00  0.00    +0.000 A 
ATOM     22  N   UNL     1      -1.179  -1.453  -0.312  0.00  0.00    +0.000 NA
ATOM     23  H   UNL     1      -2.689  -4.030  -1.297  0.00  0.00    +0.000 HD
ATOM     24  H   UNL     1      -2.016  -2.714  -2.198  0.00  0.00    +0.000 HD
ATOM     25  H   UNL     1      -2.213  -3.088   2.941  0.00  0.00    +0.000 HD
ATOM     26  H   UNL     1      -1.074  -0.872   3.017  0.00  0.00    +0.000 HD
ENDBRANCH   1  21
TORSDOF 1
