MODEL 1
REMARK VINA RESULT:    -9.641      0.000      0.000
REMARK INTER + INTRA:         -15.701
REMARK INTER:                 -14.713
REMARK INTRA:                  -0.987
REMARK UNBOUND:                -0.987
REMARK  Name = 
REMARK  11 active torsions:
REMARK  status: ('A' for Active; 'I' for Inactive)
REMARK    1  A    between atoms: C_1  and  O_2
REMARK    2  A    between atoms: O_2  and  C_3
REMARK    3  A    between atoms: C_3  and  C_5
REMARK    4  A    between atoms: C_9  and  N_10
REMARK    5  A    between atoms: C_11  and  C_13
REMARK    6  A    between atoms: C_13  and  C_14
REMARK    7  A    between atoms: C_14  and  N_15
REMARK    8  A    between atoms: N_15  and  C_16
REMARK    9  A    between atoms: N_15  and  C_17
REMARK   10  A    between atoms: N_20  and  C_21
REMARK   11  A    between atoms: C_28  and  C_29
REMARK                            x       y       z     vdW  Elec       q    Type
REMARK                         _______ _______ _______ _____ _____    ______ ____
ROOT
ATOM      1  C   UNL     1      -8.252  -5.973  19.083  0.00  0.00    +0.000 C 
ATOM      2  C   UNL     1      -7.535  -6.223  17.700  0.00  0.00    +0.000 C 
ATOM      3  C   UNL     1      -8.388  -6.906  16.621  0.00  0.00    +0.000 C 
ATOM      4  N   UNL     1      -9.002  -8.060  17.268  0.00  0.00    +0.000 N 
ATOM      5  C   UNL     1     -10.027  -7.652  18.204  0.00  0.00    +0.000 C 
ATOM      6  C   UNL     1      -9.278  -7.088  19.402  0.00  0.00    +0.000 C 
ATOM      7  H   UNL     1      -6.668  -6.876  17.866  0.00  0.00    +0.000 HD
ATOM      8  H   UNL     1      -7.133  -5.283  17.299  0.00  0.00    +0.000 HD
ATOM      9  H   UNL     1      -7.734  -7.183  15.787  0.00  0.00    +0.000 HD
ATOM     10  H   UNL     1      -9.149  -6.223  16.220  0.00  0.00    +0.000 HD
ATOM     11  H   UNL     1     -10.688  -8.471  18.501  0.00  0.00    +0.000 HD
ATOM     12  H   UNL     1     -10.684  -6.889  17.769  0.00  0.00    +0.000 HD
ATOM     13  H   UNL     1      -8.722  -7.898  19.870  0.00  0.00    +0.000 HD
ATOM     14  H   UNL     1     -10.033  -6.735  20.119  0.00  0.00    +0.000 HD
ENDROOT
BRANCH   4  15
ATOM     15  C   UNL     1      -9.129  -9.252  16.576  0.00  0.00    +0.000 A 
ATOM     16  N   UNL     1      -9.403  -9.200  15.244  0.00  0.00    +0.000 NA
ATOM     17  C   UNL     1      -9.430 -10.333  14.520  0.00  0.00    +0.000 A 
ATOM     18  N   UNL     1      -9.188 -11.581  14.934  0.00  0.00    +0.000 NA
ATOM     19  C   UNL     1      -8.902 -11.608  16.242  0.00  0.00    +0.000 A 
ATOM     20  N   UNL     1      -8.567 -12.758  16.896  0.00  0.00    +0.000 N 
ATOM     21  C   UNL     1      -8.313 -12.485  18.207  0.00  0.00    +0.000 A 
ATOM     22  C   UNL     1      -8.488 -11.126  18.411  0.00  0.00    +0.000 A 
ATOM     23  C   UNL     1      -8.864 -10.542  17.137  0.00  0.00    +0.000 A 
ATOM     24  H   UNL     1      -9.668 -10.222  13.466  0.00  0.00    +0.000 HD
ATOM     25  H   UNL     1      -8.489 -13.658  16.447  0.00  0.00    +0.000 HD
ATOM     26  H   UNL     1      -8.023 -13.271  18.892  0.00  0.00    +0.000 HD
BRANCH  22  27
ATOM     27  C   UNL     1      -8.267 -10.490  19.732  0.00  0.00    +0.000 C 
ATOM     28  H   UNL     1      -8.338 -11.225  20.542  0.00  0.00    +0.000 HD
ATOM     29  H   UNL     1      -9.028  -9.740  19.952  0.00  0.00    +0.000 HD
ATOM     30  H   UNL     1      -7.267 -10.053  19.781  0.00  0.00    +0.000 HD
ENDBRANCH  22  27
ENDBRANCH   4  15
BRANCH   1  32
ATOM     31  N   UNL     1      -8.834  -3.819  20.122  0.00  0.00    +0.000 N 
ATOM     32  C   UNL     1      -9.009  -4.625  19.011  0.00  0.00    +0.000 C 
ATOM     33  O   UNL     1      -9.749  -4.376  18.063  0.00  0.00    +0.000 OA
ATOM     34  H   UNL     1      -8.144  -4.150  20.800  0.00  0.00    +0.000 HD
BRANCH  31  39
ATOM     35  C   UNL     1      -9.873  -0.763  21.941  0.00  0.00    +0.000 A 
ATOM     36  C   UNL     1     -10.133   0.120  20.888  0.00  0.00    +0.000 A 
ATOM     37  C   UNL     1      -9.995  -0.308  19.572  0.00  0.00    +0.000 A 
ATOM     38  C   UNL     1      -9.582  -1.614  19.296  0.00  0.00    +0.000 A 
ATOM     39  C   UNL     1      -9.306  -2.506  20.332  0.00  0.00    +0.000 A 
ATOM     40  C   UNL     1      -9.471  -2.078  21.659  0.00  0.00    +0.000 A 
ATOM     41  H   UNL     1     -10.439   1.148  21.073  0.00  0.00    +0.000 HD
ATOM     42  H   UNL     1     -10.199   0.376  18.751  0.00  0.00    +0.000 HD
ATOM     43  H   UNL     1      -9.482  -1.903  18.255  0.00  0.00    +0.000 HD
ATOM     44  H   UNL     1      -9.261  -2.758  22.481  0.00  0.00    +0.000 HD
BRANCH  35  45
ATOM     45  C   UNL     1      -9.984  -0.336  23.365  0.00  0.00    +0.000 C 
ATOM     46  O   UNL     1      -9.961   0.828  23.731  0.00  0.00    +0.000 OA
BRANCH  45  47
ATOM     47  O   UNL     1     -10.134  -1.421  24.167  0.00  0.00    +0.000 OA
BRANCH  47  48
ATOM     48  C   UNL     1      -9.258  -1.465  25.293  0.00  0.00    +0.000 C 
ATOM     49  H   UNL     1      -8.467  -0.725  25.131  0.00  0.00    +0.000 HD
ATOM     50  H   UNL     1      -8.795  -2.453  25.374  0.00  0.00    +0.000 HD
ATOM     51  H   UNL     1      -9.789  -1.205  26.214  0.00  0.00    +0.000 HD
ENDBRANCH  47  48
ENDBRANCH  45  47
ENDBRANCH  35  45
ENDBRANCH  31  39
ENDBRANCH   1  32
BRANCH   1  52
ATOM     52  C   UNL     1      -7.099  -5.912  20.167  0.00  0.00    +0.000 C 
ATOM     53  H   UNL     1      -6.676  -6.929  20.187  0.00  0.00    +0.000 HD
ATOM     54  H   UNL     1      -7.536  -5.745  21.161  0.00  0.00    +0.000 HD
BRANCH  52  55
ATOM     55  N   UNL     1      -5.946  -4.988  19.972  0.00  0.00    +0.000 NA
BRANCH  55  56
ATOM     56  C   UNL     1      -5.646  -4.111  21.117  0.00  0.00    +0.000 C 
ATOM     57  H   UNL     1      -5.587  -3.062  20.853  0.00  0.00    +0.000 HD
ATOM     58  H   UNL     1      -4.644  -4.343  21.493  0.00  0.00    +0.000 HD
ATOM     59  H   UNL     1      -6.362  -4.224  21.938  0.00  0.00    +0.000 HD
ENDBRANCH  55  56
BRANCH  55  60
ATOM     60  C   UNL     1      -4.725  -5.783  19.731  0.00  0.00    +0.000 C 
ATOM     61  H   UNL     1      -4.875  -6.517  18.936  0.00  0.00    +0.000 HD
ATOM     62  H   UNL     1      -4.398  -6.314  20.636  0.00  0.00    +0.000 HD
ATOM     63  H   UNL     1      -3.905  -5.129  19.410  0.00  0.00    +0.000 HD
ENDBRANCH  55  60
ENDBRANCH  52  55
ENDBRANCH   1  52
TORSDOF 11
ENDMDL
MODEL 2
REMARK VINA RESULT:    -9.500      2.138      3.656
REMARK INTER + INTRA:         -15.486
REMARK INTER:                 -13.836
REMARK INTRA:                  -1.650
REMARK UNBOUND:                -0.987
REMARK  Name = 
REMARK  11 active torsions:
REMARK  status: ('A' for Active; 'I' for Inactive)
REMARK    1  A    between atoms: C_1  and  O_2
REMARK    2  A    between atoms: O_2  and  C_3
REMARK    3  A    between atoms: C_3  and  C_5
REMARK    4  A    between atoms: C_9  and  N_10
REMARK    5  A    between atoms: C_11  and  C_13
REMARK    6  A    between atoms: C_13  and  C_14
REMARK    7  A    between atoms: C_14  and  N_15
REMARK    8  A    between atoms: N_15  and  C_16
REMARK    9  A    between atoms: N_15  and  C_17
REMARK   10  A    between atoms: N_20  and  C_21
REMARK   11  A    between atoms: C_28  and  C_29
REMARK                            x       y       z     vdW  Elec       q    Type
REMARK                         _______ _______ _______ _____ _____    ______ ____
ROOT
ATOM      1  C   UNL     1      -9.738  -6.088  16.599  0.00  0.00    +0.000 C 
ATOM      2  C   UNL     1     -10.791  -7.262  16.574  0.00  0.00    +0.000 C 
ATOM      3  C   UNL     1     -10.586  -8.365  17.621  0.00  0.00    +0.000 C 
ATOM      4  N   UNL     1      -9.178  -8.736  17.541  0.00  0.00    +0.000 N 
ATOM      5  C   UNL     1      -8.330  -7.693  18.077  0.00  0.00    +0.000 C 
ATOM      6  C   UNL     1      -8.337  -6.590  17.031  0.00  0.00    +0.000 C 
ATOM      7  H   UNL     1     -10.744  -7.756  15.594  0.00  0.00    +0.000 HD
ATOM      8  H   UNL     1     -11.812  -6.866  16.663  0.00  0.00    +0.000 HD
ATOM      9  H   UNL     1     -11.260  -9.196  17.386  0.00  0.00    +0.000 HD
ATOM     10  H   UNL     1     -10.848  -8.015  18.629  0.00  0.00    +0.000 HD
ATOM     11  H   UNL     1      -7.311  -8.033  18.286  0.00  0.00    +0.000 HD
ATOM     12  H   UNL     1      -8.715  -7.318  19.033  0.00  0.00    +0.000 HD
ATOM     13  H   UNL     1      -7.852  -6.966  16.132  0.00  0.00    +0.000 HD
ATOM     14  H   UNL     1      -7.728  -5.764  17.426  0.00  0.00    +0.000 HD
ENDROOT
BRANCH   4  15
ATOM     15  C   UNL     1      -8.806 -10.064  17.663  0.00  0.00    +0.000 A 
ATOM     16  N   UNL     1      -8.600 -10.565  18.912  0.00  0.00    +0.000 NA
ATOM     17  C   UNL     1      -8.341 -11.875  19.074  0.00  0.00    +0.000 A 
ATOM     18  N   UNL     1      -8.274 -12.824  18.135  0.00  0.00    +0.000 NA
ATOM     19  C   UNL     1      -8.499 -12.314  16.918  0.00  0.00    +0.000 A 
ATOM     20  N   UNL     1      -8.537 -13.087  15.794  0.00  0.00    +0.000 N 
ATOM     21  C   UNL     1      -8.799 -12.308  14.707  0.00  0.00    +0.000 A 
ATOM     22  C   UNL     1      -8.933 -10.997  15.132  0.00  0.00    +0.000 A 
ATOM     23  C   UNL     1      -8.747 -10.988  16.572  0.00  0.00    +0.000 A 
ATOM     24  H   UNL     1      -8.173 -12.206  20.094  0.00  0.00    +0.000 HD
ATOM     25  H   UNL     1      -8.423 -14.090  15.797  0.00  0.00    +0.000 HD
ATOM     26  H   UNL     1      -8.876 -12.742  13.718  0.00  0.00    +0.000 HD
BRANCH  22  27
ATOM     27  C   UNL     1      -9.246  -9.890  14.198  0.00  0.00    +0.000 C 
ATOM     28  H   UNL     1     -10.207 -10.055  13.697  0.00  0.00    +0.000 HD
ATOM     29  H   UNL     1      -8.509  -9.816  13.396  0.00  0.00    +0.000 HD
ATOM     30  H   UNL     1      -9.324  -8.944  14.740  0.00  0.00    +0.000 HD
ENDBRANCH  22  27
ENDBRANCH   4  15
BRANCH   1  32
ATOM     31  N   UNL     1      -9.183  -4.254  18.145  0.00  0.00    +0.000 N 
ATOM     32  C   UNL     1     -10.206  -5.025  17.622  0.00  0.00    +0.000 C 
ATOM     33  O   UNL     1     -11.386  -4.964  17.962  0.00  0.00    +0.000 OA
ATOM     34  H   UNL     1      -8.265  -4.396  17.717  0.00  0.00    +0.000 HD
BRANCH  31  39
ATOM     35  C   UNL     1      -8.603  -2.152  21.140  0.00  0.00    +0.000 A 
ATOM     36  C   UNL     1      -9.298  -0.985  20.807  0.00  0.00    +0.000 A 
ATOM     37  C   UNL     1      -9.988  -0.907  19.601  0.00  0.00    +0.000 A 
ATOM     38  C   UNL     1      -9.976  -1.985  18.713  0.00  0.00    +0.000 A 
ATOM     39  C   UNL     1      -9.279  -3.153  19.021  0.00  0.00    +0.000 A 
ATOM     40  C   UNL     1      -8.606  -3.238  20.249  0.00  0.00    +0.000 A 
ATOM     41  H   UNL     1      -9.311  -0.124  21.472  0.00  0.00    +0.000 HD
ATOM     42  H   UNL     1     -10.532  -0.001  19.340  0.00  0.00    +0.000 HD
ATOM     43  H   UNL     1     -10.523  -1.878  17.781  0.00  0.00    +0.000 HD
ATOM     44  H   UNL     1      -8.056  -4.139  20.509  0.00  0.00    +0.000 HD
BRANCH  35  45
ATOM     45  C   UNL     1      -7.831  -2.266  22.410  0.00  0.00    +0.000 C 
ATOM     46  O   UNL     1      -7.174  -1.358  22.892  0.00  0.00    +0.000 OA
BRANCH  45  47
ATOM     47  O   UNL     1      -7.991  -3.505  22.943  0.00  0.00    +0.000 OA
BRANCH  47  48
ATOM     48  C   UNL     1      -8.366  -3.525  24.321  0.00  0.00    +0.000 C 
ATOM     49  H   UNL     1      -7.570  -4.031  24.876  0.00  0.00    +0.000 HD
ATOM     50  H   UNL     1      -9.292  -4.091  24.452  0.00  0.00    +0.000 HD
ATOM     51  H   UNL     1      -8.468  -2.510  24.714  0.00  0.00    +0.000 HD
ENDBRANCH  47  48
ENDBRANCH  45  47
ENDBRANCH  35  45
ENDBRANCH  31  39
ENDBRANCH   1  32
BRANCH   1  52
ATOM     52  C   UNL     1      -9.717  -5.488  15.134  0.00  0.00    +0.000 C 
ATOM     53  H   UNL     1     -10.316  -6.189  14.533  0.00  0.00    +0.000 HD
ATOM     54  H   UNL     1      -8.696  -5.535  14.731  0.00  0.00    +0.000 HD
BRANCH  52  55
ATOM     55  N   UNL     1     -10.287  -4.133  14.880  0.00  0.00    +0.000 NA
BRANCH  55  56
ATOM     56  C   UNL     1      -9.567  -3.330  13.877  0.00  0.00    +0.000 C 
ATOM     57  H   UNL     1     -10.077  -3.276  12.922  0.00  0.00    +0.000 HD
ATOM     58  H   UNL     1      -8.617  -3.821  13.639  0.00  0.00    +0.000 HD
ATOM     59  H   UNL     1      -9.358  -2.311  14.218  0.00  0.00    +0.000 HD
ENDBRANCH  55  56
BRANCH  55  60
ATOM     60  C   UNL     1     -11.669  -4.277  14.379  0.00  0.00    +0.000 C 
ATOM     61  H   UNL     1     -11.998  -3.379  13.851  0.00  0.00    +0.000 HD
ATOM     62  H   UNL     1     -12.379  -4.481  15.191  0.00  0.00    +0.000 HD
ATOM     63  H   UNL     1     -11.727  -5.106  13.663  0.00  0.00    +0.000 HD
ENDBRANCH  55  60
ENDBRANCH  52  55
ENDBRANCH   1  52
TORSDOF 11
ENDMDL
MODEL 3
REMARK VINA RESULT:    -9.351      2.093      3.803
REMARK INTER + INTRA:         -15.259
REMARK INTER:                 -15.499
REMARK INTRA:                   0.240
REMARK UNBOUND:                -0.987
REMARK  Name = 
REMARK  11 active torsions:
REMARK  status: ('A' for Active; 'I' for Inactive)
REMARK    1  A    between atoms: C_1  and  O_2
REMARK    2  A    between atoms: O_2  and  C_3
REMARK    3  A    between atoms: C_3  and  C_5
REMARK    4  A    between atoms: C_9  and  N_10
REMARK    5  A    between atoms: C_11  and  C_13
REMARK    6  A    between atoms: C_13  and  C_14
REMARK    7  A    between atoms: C_14  and  N_15
REMARK    8  A    between atoms: N_15  and  C_16
REMARK    9  A    between atoms: N_15  and  C_17
REMARK   10  A    between atoms: N_20  and  C_21
REMARK   11  A    between atoms: C_28  and  C_29
REMARK                            x       y       z     vdW  Elec       q    Type
REMARK                         _______ _______ _______ _____ _____    ______ ____
ROOT
ATOM      1  C   UNL     1     -10.178  -5.566  17.324  0.00  0.00    +0.000 C 
ATOM      2  C   UNL     1     -10.851  -6.772  18.087  0.00  0.00    +0.000 C 
ATOM      3  C   UNL     1      -9.989  -8.034  18.231  0.00  0.00    +0.000 C 
ATOM      4  N   UNL     1      -9.453  -8.307  16.902  0.00  0.00    +0.000 N 
ATOM      5  C   UNL     1      -8.447  -7.334  16.534  0.00  0.00    +0.000 C 
ATOM      6  C   UNL     1      -9.216  -6.060  16.215  0.00  0.00    +0.000 C 
ATOM      7  H   UNL     1     -11.753  -7.077  17.538  0.00  0.00    +0.000 HD
ATOM      8  H   UNL     1     -11.195  -6.456  19.080  0.00  0.00    +0.000 HD
ATOM      9  H   UNL     1     -10.622  -8.845  18.610  0.00  0.00    +0.000 HD
ATOM     10  H   UNL     1      -9.183  -7.888  18.963  0.00  0.00    +0.000 HD
ATOM     11  H   UNL     1      -7.836  -7.649  15.684  0.00  0.00    +0.000 HD
ATOM     12  H   UNL     1      -7.741  -7.160  17.354  0.00  0.00    +0.000 HD
ATOM     13  H   UNL     1      -9.826  -6.240  15.332  0.00  0.00    +0.000 HD
ATOM     14  H   UNL     1      -8.474  -5.288  15.965  0.00  0.00    +0.000 HD
ENDROOT
BRANCH   4  15
ATOM     15  C   UNL     1      -9.354  -9.612  16.453  0.00  0.00    +0.000 A 
ATOM     16  N   UNL     1      -9.556  -9.857  15.129  0.00  0.00    +0.000 NA
ATOM     17  C   UNL     1      -9.364 -11.095  14.639  0.00  0.00    +0.000 A 
ATOM     18  N   UNL     1      -8.956 -12.186  15.295  0.00  0.00    +0.000 NA
ATOM     19  C   UNL     1      -8.745 -11.919  16.590  0.00  0.00    +0.000 A 
ATOM     20  N   UNL     1      -8.274 -12.855  17.465  0.00  0.00    +0.000 N 
ATOM     21  C   UNL     1      -8.141 -12.302  18.703  0.00  0.00    +0.000 A 
ATOM     22  C   UNL     1      -8.536 -10.977  18.634  0.00  0.00    +0.000 A 
ATOM     23  C   UNL     1      -8.925 -10.712  17.260  0.00  0.00    +0.000 A 
ATOM     24  H   UNL     1      -9.556 -11.224  13.578  0.00  0.00    +0.000 HD
ATOM     25  H   UNL     1      -8.031 -13.798  17.202  0.00  0.00    +0.000 HD
ATOM     26  H   UNL     1      -7.771 -12.887  19.536  0.00  0.00    +0.000 HD
BRANCH  22  27
ATOM     27  C   UNL     1      -8.493 -10.076  19.810  0.00  0.00    +0.000 C 
ATOM     28  H   UNL     1      -9.130  -9.197  19.658  0.00  0.00    +0.000 HD
ATOM     29  H   UNL     1      -7.490  -9.682  19.982  0.00  0.00    +0.000 HD
ATOM     30  H   UNL     1      -8.864 -10.592  20.699  0.00  0.00    +0.000 HD
ENDBRANCH  22  27
ENDBRANCH   4  15
BRANCH   1  32
ATOM     31  N   UNL     1      -8.270  -5.404  18.872  0.00  0.00    +0.000 N 
ATOM     32  C   UNL     1      -9.359  -4.734  18.340  0.00  0.00    +0.000 C 
ATOM     33  O   UNL     1      -9.730  -3.610  18.668  0.00  0.00    +0.000 OA
ATOM     34  H   UNL     1      -8.069  -6.315  18.453  0.00  0.00    +0.000 HD
BRANCH  31  39
ATOM     35  C   UNL     1      -6.776  -3.645  21.770  0.00  0.00    +0.000 A 
ATOM     36  C   UNL     1      -5.419  -3.947  21.616  0.00  0.00    +0.000 A 
ATOM     37  C   UNL     1      -4.994  -4.707  20.531  0.00  0.00    +0.000 A 
ATOM     38  C   UNL     1      -5.921  -5.186  19.602  0.00  0.00    +0.000 A 
ATOM     39  C   UNL     1      -7.280  -4.907  19.744  0.00  0.00    +0.000 A 
ATOM     40  C   UNL     1      -7.701  -4.117  20.825  0.00  0.00    +0.000 A 
ATOM     41  H   UNL     1      -4.677  -3.602  22.334  0.00  0.00    +0.000 HD
ATOM     42  H   UNL     1      -3.939  -4.941  20.408  0.00  0.00    +0.000 HD
ATOM     43  H   UNL     1      -5.546  -5.780  18.775  0.00  0.00    +0.000 HD
ATOM     44  H   UNL     1      -8.756  -3.888  20.954  0.00  0.00    +0.000 HD
BRANCH  35  45
ATOM     45  C   UNL     1      -7.275  -2.854  22.931  0.00  0.00    +0.000 C 
ATOM     46  O   UNL     1      -7.266  -1.635  22.979  0.00  0.00    +0.000 OA
BRANCH  45  47
ATOM     47  O   UNL     1      -7.749  -3.687  23.892  0.00  0.00    +0.000 OA
BRANCH  47  48
ATOM     48  C   UNL     1      -8.717  -3.108  24.768  0.00  0.00    +0.000 C 
ATOM     49  H   UNL     1      -8.569  -3.541  25.763  0.00  0.00    +0.000 HD
ATOM     50  H   UNL     1      -9.728  -3.356  24.431  0.00  0.00    +0.000 HD
ATOM     51  H   UNL     1      -8.582  -2.025  24.840  0.00  0.00    +0.000 HD
ENDBRANCH  47  48
ENDBRANCH  45  47
ENDBRANCH  35  45
ENDBRANCH  31  39
ENDBRANCH   1  32
BRANCH   1  52
ATOM     52  C   UNL     1     -11.367  -4.710  16.726  0.00  0.00    +0.000 C 
ATOM     53  H   UNL     1     -11.688  -4.056  17.551  0.00  0.00    +0.000 HD
ATOM     54  H   UNL     1     -12.222  -5.366  16.508  0.00  0.00    +0.000 HD
BRANCH  52  55
ATOM     55  N   UNL     1     -11.122  -3.814  15.559  0.00  0.00    +0.000 NA
BRANCH  55  56
ATOM     56  C   UNL     1     -11.694  -4.277  14.283  0.00  0.00    +0.000 C 
ATOM     57  H   UNL     1     -12.301  -5.169  14.382  0.00  0.00    +0.000 HD
ATOM     58  H   UNL     1     -10.881  -4.586  13.617  0.00  0.00    +0.000 HD
ATOM     59  H   UNL     1     -12.285  -3.507  13.777  0.00  0.00    +0.000 HD
ENDBRANCH  55  56
BRANCH  55  60
ATOM     60  C   UNL     1     -11.729  -2.495  15.827  0.00  0.00    +0.000 C 
ATOM     61  H   UNL     1     -11.269  -1.711  15.220  0.00  0.00    +0.000 HD
ATOM     62  H   UNL     1     -11.639  -2.210  16.885  0.00  0.00    +0.000 HD
ATOM     63  H   UNL     1     -12.796  -2.509  15.572  0.00  0.00    +0.000 HD
ENDBRANCH  55  60
ENDBRANCH  52  55
ENDBRANCH   1  52
TORSDOF 11
ENDMDL
MODEL 4
REMARK VINA RESULT:    -9.300      2.985      4.889
REMARK INTER + INTRA:         -15.181
REMARK INTER:                 -14.462
REMARK INTRA:                  -0.719
REMARK UNBOUND:                -0.987
REMARK  Name = 
REMARK  11 active torsions:
REMARK  status: ('A' for Active; 'I' for Inactive)
REMARK    1  A    between atoms: C_1  and  O_2
REMARK    2  A    between atoms: O_2  and  C_3
REMARK    3  A    between atoms: C_3  and  C_5
REMARK    4  A    between atoms: C_9  and  N_10
REMARK    5  A    between atoms: C_11  and  C_13
REMARK    6  A    between atoms: C_13  and  C_14
REMARK    7  A    between atoms: C_14  and  N_15
REMARK    8  A    between atoms: N_15  and  C_16
REMARK    9  A    between atoms: N_15  and  C_17
REMARK   10  A    between atoms: N_20  and  C_21
REMARK   11  A    between atoms: C_28  and  C_29
REMARK                            x       y       z     vdW  Elec       q    Type
REMARK                         _______ _______ _______ _____ _____    ______ ____
ROOT
ATOM      1  C   UNL     1      -8.760  -5.987  18.746  0.00  0.00    +0.000 C 
ATOM      2  C   UNL     1      -7.799  -6.387  17.561  0.00  0.00    +0.000 C 
ATOM      3  C   UNL     1      -8.443  -7.189  16.422  0.00  0.00    +0.000 C 
ATOM      4  N   UNL     1      -9.189  -8.267  17.064  0.00  0.00    +0.000 N 
ATOM      5  C   UNL     1     -10.366  -7.760  17.736  0.00  0.00    +0.000 C 
ATOM      6  C   UNL     1      -9.848  -7.063  18.985  0.00  0.00    +0.000 C 
ATOM      7  H   UNL     1      -6.991  -7.015  17.960  0.00  0.00    +0.000 HD
ATOM      8  H   UNL     1      -7.311  -5.497  17.143  0.00  0.00    +0.000 HD
ATOM      9  H   UNL     1      -7.648  -7.556  15.763  0.00  0.00    +0.000 HD
ATOM     10  H   UNL     1      -9.102  -6.559  15.810  0.00  0.00    +0.000 HD
ATOM     11  H   UNL     1     -11.086  -8.543  17.990  0.00  0.00    +0.000 HD
ATOM     12  H   UNL     1     -10.915  -7.053  17.102  0.00  0.00    +0.000 HD
ATOM     13  H   UNL     1      -9.405  -7.814  19.637  0.00  0.00    +0.000 HD
ATOM     14  H   UNL     1     -10.719  -6.635  19.502  0.00  0.00    +0.000 HD
ENDROOT
BRANCH   4  15
ATOM     15  C   UNL     1      -9.204  -9.529  16.496  0.00  0.00    +0.000 A 
ATOM     16  N   UNL     1      -9.440  -9.634  15.159  0.00  0.00    +0.000 NA
ATOM     17  C   UNL     1      -9.358 -10.833  14.556  0.00  0.00    +0.000 A 
ATOM     18  N   UNL     1      -9.035 -12.010  15.103  0.00  0.00    +0.000 NA
ATOM     19  C   UNL     1      -8.789 -11.881  16.412  0.00  0.00    +0.000 A 
ATOM     20  N   UNL     1      -8.388 -12.929  17.190  0.00  0.00    +0.000 N 
ATOM     21  C   UNL     1      -8.196 -12.505  18.471  0.00  0.00    +0.000 A 
ATOM     22  C   UNL     1      -8.480 -11.151  18.529  0.00  0.00    +0.000 A 
ATOM     23  C   UNL     1      -8.860 -10.730  17.193  0.00  0.00    +0.000 A 
ATOM     24  H   UNL     1      -9.571 -10.849  13.492  0.00  0.00    +0.000 HD
ATOM     25  H   UNL     1      -8.228 -13.861  16.838  0.00  0.00    +0.000 HD
ATOM     26  H   UNL     1      -7.868 -13.192  19.241  0.00  0.00    +0.000 HD
BRANCH  22  27
ATOM     27  C   UNL     1      -8.349 -10.368  19.782  0.00  0.00    +0.000 C 
ATOM     28  H   UNL     1      -7.436  -9.761  19.774  0.00  0.00    +0.000 HD
ATOM     29  H   UNL     1      -8.261 -11.014  20.655  0.00  0.00    +0.000 HD
ATOM     30  H   UNL     1      -9.191  -9.681  19.891  0.00  0.00    +0.000 HD
ENDBRANCH  22  27
ENDBRANCH   4  15
BRANCH   1  32
ATOM     31  N   UNL     1      -9.997  -4.631  17.105  0.00  0.00    +0.000 N 
ATOM     32  C   UNL     1      -9.466  -4.658  18.383  0.00  0.00    +0.000 C 
ATOM     33  O   UNL     1      -9.460  -3.714  19.169  0.00  0.00    +0.000 OA
ATOM     34  H   UNL     1      -9.964  -5.519  16.598  0.00  0.00    +0.000 HD
BRANCH  31  39
ATOM     35  C   UNL     1     -11.223  -2.296  14.503  0.00  0.00    +0.000 A 
ATOM     36  C   UNL     1     -12.307  -1.695  15.150  0.00  0.00    +0.000 A 
ATOM     37  C   UNL     1     -12.613  -2.040  16.462  0.00  0.00    +0.000 A 
ATOM     38  C   UNL     1     -11.850  -2.999  17.133  0.00  0.00    +0.000 A 
ATOM     39  C   UNL     1     -10.773  -3.619  16.503  0.00  0.00    +0.000 A 
ATOM     40  C   UNL     1     -10.451  -3.249  15.187  0.00  0.00    +0.000 A 
ATOM     41  H   UNL     1     -12.930  -0.958  14.645  0.00  0.00    +0.000 HD
ATOM     42  H   UNL     1     -13.455  -1.572  16.968  0.00  0.00    +0.000 HD
ATOM     43  H   UNL     1     -12.128  -3.242  18.154  0.00  0.00    +0.000 HD
ATOM     44  H   UNL     1      -9.615  -3.721  14.677  0.00  0.00    +0.000 HD
BRANCH  35  45
ATOM     45  C   UNL     1     -10.877  -1.973  13.090  0.00  0.00    +0.000 C 
ATOM     46  O   UNL     1     -10.763  -0.837  12.659  0.00  0.00    +0.000 OA
BRANCH  45  47
ATOM     47  O   UNL     1     -10.692  -3.116  12.381  0.00  0.00    +0.000 OA
BRANCH  47  48
ATOM     48  C   UNL     1     -11.794  -3.502  11.560  0.00  0.00    +0.000 C 
ATOM     49  H   UNL     1     -12.599  -2.777  11.718  0.00  0.00    +0.000 HD
ATOM     50  H   UNL     1     -12.158  -4.491  11.854  0.00  0.00    +0.000 HD
ATOM     51  H   UNL     1     -11.519  -3.485  10.501  0.00  0.00    +0.000 HD
ENDBRANCH  47  48
ENDBRANCH  45  47
ENDBRANCH  35  45
ENDBRANCH  31  39
ENDBRANCH   1  32
BRANCH   1  52
ATOM     52  C   UNL     1      -7.834  -5.801  20.016  0.00  0.00    +0.000 C 
ATOM     53  H   UNL     1      -7.449  -6.810  20.236  0.00  0.00    +0.000 HD
ATOM     54  H   UNL     1      -8.447  -5.514  20.882  0.00  0.00    +0.000 HD
BRANCH  52  55
ATOM     55  N   UNL     1      -6.640  -4.911  19.940  0.00  0.00    +0.000 NA
BRANCH  55  56
ATOM     56  C   UNL     1      -6.437  -4.035  21.107  0.00  0.00    +0.000 C 
ATOM     57  H   UNL     1      -6.174  -4.574  22.009  0.00  0.00    +0.000 HD
ATOM     58  H   UNL     1      -7.385  -3.548  21.359  0.00  0.00    +0.000 HD
ATOM     59  H   UNL     1      -5.682  -3.261  20.932  0.00  0.00    +0.000 HD
ENDBRANCH  55  56
BRANCH  55  60
ATOM     60  C   UNL     1      -5.424  -5.742  19.832  0.00  0.00    +0.000 C 
ATOM     61  H   UNL     1      -5.671  -6.793  19.666  0.00  0.00    +0.000 HD
ATOM     62  H   UNL     1      -4.798  -5.671  20.732  0.00  0.00    +0.000 HD
ATOM     63  H   UNL     1      -4.820  -5.419  18.975  0.00  0.00    +0.000 HD
ENDBRANCH  55  60
ENDBRANCH  52  55
ENDBRANCH   1  52
TORSDOF 11
ENDMDL
MODEL 5
REMARK VINA RESULT:    -9.044      2.062      2.696
REMARK INTER + INTRA:         -14.789
REMARK INTER:                 -13.522
REMARK INTRA:                  -1.268
REMARK UNBOUND:                -0.987
REMARK  Name = 
REMARK  11 active torsions:
REMARK  status: ('A' for Active; 'I' for Inactive)
REMARK    1  A    between atoms: C_1  and  O_2
REMARK    2  A    between atoms: O_2  and  C_3
REMARK    3  A    between atoms: C_3  and  C_5
REMARK    4  A    between atoms: C_9  and  N_10
REMARK    5  A    between atoms: C_11  and  C_13
REMARK    6  A    between atoms: C_13  and  C_14
REMARK    7  A    between atoms: C_14  and  N_15
REMARK    8  A    between atoms: N_15  and  C_16
REMARK    9  A    between atoms: N_15  and  C_17
REMARK   10  A    between atoms: N_20  and  C_21
REMARK   11  A    between atoms: C_28  and  C_29
REMARK                            x       y       z     vdW  Elec       q    Type
REMARK                         _______ _______ _______ _____ _____    ______ ____
ROOT
ATOM      1  C   UNL     1      -8.715  -5.902  18.907  0.00  0.00    +0.000 C 
ATOM      2  C   UNL     1      -7.806  -6.242  17.663  0.00  0.00    +0.000 C 
ATOM      3  C   UNL     1      -8.496  -7.001  16.521  0.00  0.00    +0.000 C 
ATOM      4  N   UNL     1      -9.204  -8.111  17.148  0.00  0.00    +0.000 N 
ATOM      5  C   UNL     1     -10.353  -7.644  17.895  0.00  0.00    +0.000 C 
ATOM      6  C   UNL     1      -9.783  -6.997  19.148  0.00  0.00    +0.000 C 
ATOM      7  H   UNL     1      -6.976  -6.880  17.998  0.00  0.00    +0.000 HD
ATOM      8  H   UNL     1      -7.344  -5.330  17.262  0.00  0.00    +0.000 HD
ATOM      9  H   UNL     1      -7.730  -7.331  15.811  0.00  0.00    +0.000 HD
ATOM     10  H   UNL     1      -9.187  -6.351  15.967  0.00  0.00    +0.000 HD
ATOM     11  H   UNL     1     -11.055  -8.444  18.147  0.00  0.00    +0.000 HD
ATOM     12  H   UNL     1     -10.935  -6.916  17.318  0.00  0.00    +0.000 HD
ATOM     13  H   UNL     1      -9.305  -7.771  19.746  0.00  0.00    +0.000 HD
ATOM     14  H   UNL     1     -10.633  -6.600  19.722  0.00  0.00    +0.000 HD
ENDROOT
BRANCH   4  15
ATOM     15  C   UNL     1      -9.236  -9.348  16.528  0.00  0.00    +0.000 A 
ATOM     16  N   UNL     1      -9.477  -9.393  15.188  0.00  0.00    +0.000 NA
ATOM     17  C   UNL     1      -9.411 -10.567  14.535  0.00  0.00    +0.000 A 
ATOM     18  N   UNL     1      -9.101 -11.769  15.030  0.00  0.00    +0.000 NA
ATOM     19  C   UNL     1      -8.850 -11.699  16.343  0.00  0.00    +0.000 A 
ATOM     20  N   UNL     1      -8.461 -12.784  17.074  0.00  0.00    +0.000 N 
ATOM     21  C   UNL     1      -8.260 -12.417  18.372  0.00  0.00    +0.000 A 
ATOM     22  C   UNL     1      -8.527 -11.063  18.488  0.00  0.00    +0.000 A 
ATOM     23  C   UNL     1      -8.905 -10.582  17.172  0.00  0.00    +0.000 A 
ATOM     24  H   UNL     1      -9.627 -10.534  13.471  0.00  0.00    +0.000 HD
ATOM     25  H   UNL     1      -8.313 -13.702  16.683  0.00  0.00    +0.000 HD
ATOM     26  H   UNL     1      -7.939 -13.141  19.110  0.00  0.00    +0.000 HD
BRANCH  22  27
ATOM     27  C   UNL     1      -8.383 -10.336  19.772  0.00  0.00    +0.000 C 
ATOM     28  H   UNL     1      -9.300  -9.791  20.022  0.00  0.00    +0.000 HD
ATOM     29  H   UNL     1      -7.599  -9.580  19.723  0.00  0.00    +0.000 HD
ATOM     30  H   UNL     1      -8.194 -11.038  20.588  0.00  0.00    +0.000 HD
ENDBRANCH  22  27
ENDBRANCH   4  15
BRANCH   1  32
ATOM     31  N   UNL     1      -9.499  -3.717  19.726  0.00  0.00    +0.000 N 
ATOM     32  C   UNL     1      -9.446  -4.566  18.634  0.00  0.00    +0.000 C 
ATOM     33  O   UNL     1      -9.982  -4.358  17.548  0.00  0.00    +0.000 OA
ATOM     34  H   UNL     1      -8.957  -4.017  20.541  0.00  0.00    +0.000 HD
BRANCH  31  39
ATOM     35  C   UNL     1      -9.902  -0.121  18.930  0.00  0.00    +0.000 A 
ATOM     36  C   UNL     1     -10.992   0.227  19.733  0.00  0.00    +0.000 A 
ATOM     37  C   UNL     1     -11.574  -0.724  20.566  0.00  0.00    +0.000 A 
ATOM     38  C   UNL     1     -11.084  -2.032  20.590  0.00  0.00    +0.000 A 
ATOM     39  C   UNL     1     -10.006  -2.403  19.788  0.00  0.00    +0.000 A 
ATOM     40  C   UNL     1      -9.405  -1.434  18.969  0.00  0.00    +0.000 A 
ATOM     41  H   UNL     1     -11.406   1.233  19.721  0.00  0.00    +0.000 HD
ATOM     42  H   UNL     1     -12.421  -0.455  21.193  0.00  0.00    +0.000 HD
ATOM     43  H   UNL     1     -11.573  -2.742  21.250  0.00  0.00    +0.000 HD
ATOM     44  H   UNL     1      -8.563  -1.703  18.335  0.00  0.00    +0.000 HD
BRANCH  35  45
ATOM     45  C   UNL     1      -9.266   0.860  18.006  0.00  0.00    +0.000 C 
ATOM     46  O   UNL     1      -8.060   1.007  17.893  0.00  0.00    +0.000 OA
BRANCH  45  47
ATOM     47  O   UNL     1     -10.219   1.532  17.310  0.00  0.00    +0.000 OA
BRANCH  47  48
ATOM     48  C   UNL     1     -10.107   2.954  17.353  0.00  0.00    +0.000 C 
ATOM     49  H   UNL     1     -10.580   3.300  18.277  0.00  0.00    +0.000 HD
ATOM     50  H   UNL     1     -10.638   3.401  16.506  0.00  0.00    +0.000 HD
ATOM     51  H   UNL     1      -9.059   3.265  17.365  0.00  0.00    +0.000 HD
ENDBRANCH  47  48
ENDBRANCH  45  47
ENDBRANCH  35  45
ENDBRANCH  31  39
ENDBRANCH   1  32
BRANCH   1  52
ATOM     52  C   UNL     1      -7.732  -5.763  20.141  0.00  0.00    +0.000 C 
ATOM     53  H   UNL     1      -7.252  -6.750  20.233  0.00  0.00    +0.000 HD
ATOM     54  H   UNL     1      -8.315  -5.621  21.062  0.00  0.00    +0.000 HD
BRANCH  52  55
ATOM     55  N   UNL     1      -6.625  -4.766  20.098  0.00  0.00    +0.000 NA
BRANCH  55  56
ATOM     56  C   UNL     1      -6.449  -3.973  21.327  0.00  0.00    +0.000 C 
ATOM     57  H   UNL     1      -7.354  -3.475  21.652  0.00  0.00    +0.000 HD
ATOM     58  H   UNL     1      -5.755  -3.150  21.125  0.00  0.00    +0.000 HD
ATOM     59  H   UNL     1      -6.057  -4.563  22.161  0.00  0.00    +0.000 HD
ENDBRANCH  55  56
BRANCH  55  60
ATOM     60  C   UNL     1      -5.347  -5.473  19.877  0.00  0.00    +0.000 C 
ATOM     61  H   UNL     1      -5.057  -5.456  18.824  0.00  0.00    +0.000 HD
ATOM     62  H   UNL     1      -5.396  -6.520  20.206  0.00  0.00    +0.000 HD
ATOM     63  H   UNL     1      -4.541  -4.981  20.436  0.00  0.00    +0.000 HD
ENDBRANCH  55  60
ENDBRANCH  52  55
ENDBRANCH   1  52
TORSDOF 11
ENDMDL
MODEL 6
REMARK VINA RESULT:    -9.010      3.862      6.096
REMARK INTER + INTRA:         -14.738
REMARK INTER:                 -12.926
REMARK INTRA:                  -1.812
REMARK UNBOUND:                -0.987
REMARK  Name = 
REMARK  11 active torsions:
REMARK  status: ('A' for Active; 'I' for Inactive)
REMARK    1  A    between atoms: C_1  and  O_2
REMARK    2  A    between atoms: O_2  and  C_3
REMARK    3  A    between atoms: C_3  and  C_5
REMARK    4  A    between atoms: C_9  and  N_10
REMARK    5  A    between atoms: C_11  and  C_13
REMARK    6  A    between atoms: C_13  and  C_14
REMARK    7  A    between atoms: C_14  and  N_15
REMARK    8  A    between atoms: N_15  and  C_16
REMARK    9  A    between atoms: N_15  and  C_17
REMARK   10  A    between atoms: N_20  and  C_21
REMARK   11  A    between atoms: C_28  and  C_29
REMARK                            x       y       z     vdW  Elec       q    Type
REMARK                         _______ _______ _______ _____ _____    ______ ____
ROOT
ATOM      1  C   UNL     1     -10.148  -6.193  17.426  0.00  0.00    +0.000 C 
ATOM      2  C   UNL     1      -8.814  -6.628  16.706  0.00  0.00    +0.000 C 
ATOM      3  C   UNL     1      -8.951  -7.759  15.677  0.00  0.00    +0.000 C 
ATOM      4  N   UNL     1      -9.721  -8.808  16.336  0.00  0.00    +0.000 N 
ATOM      5  C   UNL     1     -11.106  -8.419  16.495  0.00  0.00    +0.000 C 
ATOM      6  C   UNL     1     -11.110  -7.392  17.616  0.00  0.00    +0.000 C 
ATOM      7  H   UNL     1      -8.105  -6.986  17.464  0.00  0.00    +0.000 HD
ATOM      8  H   UNL     1      -8.335  -5.763  16.228  0.00  0.00    +0.000 HD
ATOM      9  H   UNL     1      -7.946  -8.086  15.386  0.00  0.00    +0.000 HD
ATOM     10  H   UNL     1      -9.452  -7.412  14.763  0.00  0.00    +0.000 HD
ATOM     11  H   UNL     1     -11.764  -9.261  16.728  0.00  0.00    +0.000 HD
ATOM     12  H   UNL     1     -11.506  -7.982  15.573  0.00  0.00    +0.000 HD
ATOM     13  H   UNL     1     -10.809  -7.889  18.537  0.00  0.00    +0.000 HD
ATOM     14  H   UNL     1     -12.148  -7.049  17.738  0.00  0.00    +0.000 HD
ENDROOT
BRANCH   4  15
ATOM     15  C   UNL     1      -9.392 -10.137  16.132  0.00  0.00    +0.000 A 
ATOM     16  N   UNL     1      -9.420 -10.621  14.859  0.00  0.00    +0.000 NA
ATOM     17  C   UNL     1      -9.006 -11.877  14.611  0.00  0.00    +0.000 A 
ATOM     18  N   UNL     1      -8.518 -12.770  15.478  0.00  0.00    +0.000 NA
ATOM     19  C   UNL     1      -8.481 -12.267  16.718  0.00  0.00    +0.000 A 
ATOM     20  N   UNL     1      -7.976 -12.964  17.777  0.00  0.00    +0.000 N 
ATOM     21  C   UNL     1      -8.050 -12.204  18.906  0.00  0.00    +0.000 A 
ATOM     22  C   UNL     1      -8.619 -10.986  18.575  0.00  0.00    +0.000 A 
ATOM     23  C   UNL     1      -8.898 -11.011  17.151  0.00  0.00    +0.000 A 
ATOM     24  H   UNL     1      -9.068 -12.205  13.578  0.00  0.00    +0.000 HD
ATOM     25  H   UNL     1      -7.577 -13.888  17.704  0.00  0.00    +0.000 HD
ATOM     26  H   UNL     1      -7.690 -12.582  19.855  0.00  0.00    +0.000 HD
BRANCH  22  27
ATOM     27  C   UNL     1      -8.825  -9.911  19.575  0.00  0.00    +0.000 C 
ATOM     28  H   UNL     1      -9.775 -10.042  20.106  0.00  0.00    +0.000 HD
ATOM     29  H   UNL     1      -8.887  -8.928  19.106  0.00  0.00    +0.000 HD
ATOM     30  H   UNL     1      -8.032  -9.932  20.326  0.00  0.00    +0.000 HD
ENDBRANCH  22  27
ENDBRANCH   4  15
BRANCH   1  32
ATOM     31  N   UNL     1     -10.001  -4.298  15.861  0.00  0.00    +0.000 N 
ATOM     32  C   UNL     1     -10.862  -5.135  16.550  0.00  0.00    +0.000 C 
ATOM     33  O   UNL     1     -12.087  -5.040  16.561  0.00  0.00    +0.000 OA
ATOM     34  H   UNL     1      -9.010  -4.545  15.919  0.00  0.00    +0.000 HD
BRANCH  31  39
ATOM     35  C   UNL     1     -11.113  -2.782  12.669  0.00  0.00    +0.000 A 
ATOM     36  C   UNL     1     -11.093  -1.419  12.981  0.00  0.00    +0.000 A 
ATOM     37  C   UNL     1     -10.679  -0.999  14.240  0.00  0.00    +0.000 A 
ATOM     38  C   UNL     1     -10.298  -1.936  15.204  0.00  0.00    +0.000 A 
ATOM     39  C   UNL     1     -10.322  -3.300  14.917  0.00  0.00    +0.000 A 
ATOM     40  C   UNL     1     -10.715  -3.719  13.637  0.00  0.00    +0.000 A 
ATOM     41  H   UNL     1     -11.402  -0.667  12.256  0.00  0.00    +0.000 HD
ATOM     42  H   UNL     1     -10.661   0.061  14.485  0.00  0.00    +0.000 HD
ATOM     43  H   UNL     1      -9.988  -1.564  16.175  0.00  0.00    +0.000 HD
ATOM     44  H   UNL     1     -10.742  -4.778  13.393  0.00  0.00    +0.000 HD
BRANCH  35  45
ATOM     45  C   UNL     1     -11.574  -3.274  11.339  0.00  0.00    +0.000 C 
ATOM     46  O   UNL     1     -11.577  -4.449  11.012  0.00  0.00    +0.000 OA
BRANCH  45  47
ATOM     47  O   UNL     1     -12.000  -2.233  10.579  0.00  0.00    +0.000 OA
BRANCH  47  48
ATOM     48  C   UNL     1     -11.764  -2.373   9.178  0.00  0.00    +0.000 C 
ATOM     49  H   UNL     1     -10.905  -3.039   9.048  0.00  0.00    +0.000 HD
ATOM     50  H   UNL     1     -11.518  -1.403   8.737  0.00  0.00    +0.000 HD
ATOM     51  H   UNL     1     -12.628  -2.823   8.678  0.00  0.00    +0.000 HD
ENDBRANCH  47  48
ENDBRANCH  45  47
ENDBRANCH  35  45
ENDBRANCH  31  39
ENDBRANCH   1  32
BRANCH   1  52
ATOM     52  C   UNL     1      -9.711  -5.569  18.814  0.00  0.00    +0.000 C 
ATOM     53  H   UNL     1      -9.239  -6.400  19.362  0.00  0.00    +0.000 HD
ATOM     54  H   UNL     1     -10.604  -5.293  19.393  0.00  0.00    +0.000 HD
BRANCH  52  55
ATOM     55  N   UNL     1      -8.734  -4.443  18.847  0.00  0.00    +0.000 NA
BRANCH  55  56
ATOM     56  C   UNL     1      -9.286  -3.148  19.277  0.00  0.00    +0.000 C 
ATOM     57  H   UNL     1      -9.995  -3.231  20.093  0.00  0.00    +0.000 HD
ATOM     58  H   UNL     1      -9.877  -2.720  18.460  0.00  0.00    +0.000 HD
ATOM     59  H   UNL     1      -8.511  -2.428  19.562  0.00  0.00    +0.000 HD
ENDBRANCH  55  56
BRANCH  55  60
ATOM     60  C   UNL     1      -7.654  -4.768  19.801  0.00  0.00    +0.000 C 
ATOM     61  H   UNL     1      -7.822  -5.735  20.281  0.00  0.00    +0.000 HD
ATOM     62  H   UNL     1      -7.557  -4.005  20.585  0.00  0.00    +0.000 HD
ATOM     63  H   UNL     1      -6.693  -4.837  19.276  0.00  0.00    +0.000 HD
ENDBRANCH  55  60
ENDBRANCH  52  55
ENDBRANCH   1  52
TORSDOF 11
ENDMDL
MODEL 7
REMARK VINA RESULT:    -8.925      4.020      6.064
REMARK INTER + INTRA:         -14.608
REMARK INTER:                 -13.549
REMARK INTRA:                  -1.059
REMARK UNBOUND:                -0.987
REMARK  Name = 
REMARK  11 active torsions:
REMARK  status: ('A' for Active; 'I' for Inactive)
REMARK    1  A    between atoms: C_1  and  O_2
REMARK    2  A    between atoms: O_2  and  C_3
REMARK    3  A    between atoms: C_3  and  C_5
REMARK    4  A    between atoms: C_9  and  N_10
REMARK    5  A    between atoms: C_11  and  C_13
REMARK    6  A    between atoms: C_13  and  C_14
REMARK    7  A    between atoms: C_14  and  N_15
REMARK    8  A    between atoms: N_15  and  C_16
REMARK    9  A    between atoms: N_15  and  C_17
REMARK   10  A    between atoms: N_20  and  C_21
REMARK   11  A    between atoms: C_28  and  C_29
REMARK                            x       y       z     vdW  Elec       q    Type
REMARK                         _______ _______ _______ _____ _____    ______ ____
ROOT
ATOM      1  C   UNL     1      -9.778  -6.274  17.089  0.00  0.00    +0.000 C 
ATOM      2  C   UNL     1      -8.566  -6.816  16.237  0.00  0.00    +0.000 C 
ATOM      3  C   UNL     1      -8.866  -8.033  15.350  0.00  0.00    +0.000 C 
ATOM      4  N   UNL     1      -9.556  -8.992  16.205  0.00  0.00    +0.000 N 
ATOM      5  C   UNL     1     -10.898  -8.546  16.514  0.00  0.00    +0.000 C 
ATOM      6  C   UNL     1     -10.726  -7.420  17.522  0.00  0.00    +0.000 C 
ATOM      7  H   UNL     1      -7.765  -7.126  16.922  0.00  0.00    +0.000 HD
ATOM      8  H   UNL     1      -8.141  -6.015  15.618  0.00  0.00    +0.000 HD
ATOM      9  H   UNL     1      -7.918  -8.417  14.957  0.00  0.00    +0.000 HD
ATOM     10  H   UNL     1      -9.483  -7.756  14.484  0.00  0.00    +0.000 HD
ATOM     11  H   UNL     1     -11.533  -9.341  16.915  0.00  0.00    +0.000 HD
ATOM     12  H   UNL     1     -11.415  -8.183  15.618  0.00  0.00    +0.000 HD
ATOM     13  H   UNL     1     -10.310  -7.839  18.437  0.00  0.00    +0.000 HD
ATOM     14  H   UNL     1     -11.731  -7.034  17.751  0.00  0.00    +0.000 HD
ENDROOT
BRANCH   4  15
ATOM     15  C   UNL     1      -9.284 -10.344  16.086  0.00  0.00    +0.000 A 
ATOM     16  N   UNL     1      -9.310 -10.901  14.844  0.00  0.00    +0.000 NA
ATOM     17  C   UNL     1      -8.949 -12.186  14.678  0.00  0.00    +0.000 A 
ATOM     18  N   UNL     1      -8.518 -13.047  15.606  0.00  0.00    +0.000 NA
ATOM     19  C   UNL     1      -8.483 -12.474  16.815  0.00  0.00    +0.000 A 
ATOM     20  N   UNL     1      -8.030 -13.128  17.924  0.00  0.00    +0.000 N 
ATOM     21  C   UNL     1      -8.092 -12.300  19.005  0.00  0.00    +0.000 A 
ATOM     22  C   UNL     1      -8.598 -11.080  18.591  0.00  0.00    +0.000 A 
ATOM     23  C   UNL     1      -8.850 -11.177  17.165  0.00  0.00    +0.000 A 
ATOM     24  H   UNL     1      -9.005 -12.571  13.665  0.00  0.00    +0.000 HD
ATOM     25  H   UNL     1      -7.672 -14.071  17.913  0.00  0.00    +0.000 HD
ATOM     26  H   UNL     1      -7.767 -12.636  19.982  0.00  0.00    +0.000 HD
BRANCH  22  27
ATOM     27  C   UNL     1      -8.774  -9.939  19.522  0.00  0.00    +0.000 C 
ATOM     28  H   UNL     1      -9.816  -9.855  19.851  0.00  0.00    +0.000 HD
ATOM     29  H   UNL     1      -8.543  -8.987  19.043  0.00  0.00    +0.000 HD
ATOM     30  H   UNL     1      -8.165 -10.081  20.417  0.00  0.00    +0.000 HD
ENDBRANCH  22  27
ENDBRANCH   4  15
BRANCH   1  32
ATOM     31  N   UNL     1      -9.905  -4.815  15.110  0.00  0.00    +0.000 N 
ATOM     32  C   UNL     1     -10.587  -5.280  16.221  0.00  0.00    +0.000 C 
ATOM     33  O   UNL     1     -11.704  -4.909  16.575  0.00  0.00    +0.000 OA
ATOM     34  H   UNL     1      -9.003  -5.263  14.930  0.00  0.00    +0.000 HD
BRANCH  31  39
ATOM     35  C   UNL     1      -9.867  -2.253  12.434  0.00  0.00    +0.000 A 
ATOM     36  C   UNL     1     -11.173  -2.336  11.943  0.00  0.00    +0.000 A 
ATOM     37  C   UNL     1     -12.079  -3.220  12.522  0.00  0.00    +0.000 A 
ATOM     38  C   UNL     1     -11.683  -4.038  13.582  0.00  0.00    +0.000 A 
ATOM     39  C   UNL     1     -10.382  -3.980  14.079  0.00  0.00    +0.000 A 
ATOM     40  C   UNL     1      -9.478  -3.068  13.510  0.00  0.00    +0.000 A 
ATOM     41  H   UNL     1     -11.504  -1.724  11.106  0.00  0.00    +0.000 HD
ATOM     42  H   UNL     1     -13.097  -3.285  12.143  0.00  0.00    +0.000 HD
ATOM     43  H   UNL     1     -12.420  -4.717  13.999  0.00  0.00    +0.000 HD
ATOM     44  H   UNL     1      -8.458  -3.007  13.881  0.00  0.00    +0.000 HD
BRANCH  35  45
ATOM     45  C   UNL     1      -8.859  -1.338  11.826  0.00  0.00    +0.000 C 
ATOM     46  O   UNL     1      -8.087  -0.649  12.472  0.00  0.00    +0.000 OA
BRANCH  45  47
ATOM     47  O   UNL     1      -8.922  -1.410  10.472  0.00  0.00    +0.000 OA
BRANCH  47  48
ATOM     48  C   UNL     1      -8.967  -0.150   9.802  0.00  0.00    +0.000 C 
ATOM     49  H   UNL     1      -9.615  -0.259   8.927  0.00  0.00    +0.000 HD
ATOM     50  H   UNL     1      -7.967   0.132   9.458  0.00  0.00    +0.000 HD
ATOM     51  H   UNL     1      -9.390   0.623  10.450  0.00  0.00    +0.000 HD
ENDBRANCH  47  48
ENDBRANCH  45  47
ENDBRANCH  35  45
ENDBRANCH  31  39
ENDBRANCH   1  32
BRANCH   1  52
ATOM     52  C   UNL     1      -9.140  -5.540  18.338  0.00  0.00    +0.000 C 
ATOM     53  H   UNL     1      -9.940  -5.523  19.095  0.00  0.00    +0.000 HD
ATOM     54  H   UNL     1      -8.938  -4.490  18.085  0.00  0.00    +0.000 HD
BRANCH  52  55
ATOM     55  N   UNL     1      -7.945  -6.125  19.011  0.00  0.00    +0.000 NA
BRANCH  55  56
ATOM     56  C   UNL     1      -6.902  -5.155  19.388  0.00  0.00    +0.000 C 
ATOM     57  H   UNL     1      -7.266  -4.137  19.458  0.00  0.00    +0.000 HD
ATOM     58  H   UNL     1      -6.150  -5.110  18.593  0.00  0.00    +0.000 HD
ATOM     59  H   UNL     1      -6.402  -5.412  20.327  0.00  0.00    +0.000 HD
ENDBRANCH  55  56
BRANCH  55  60
ATOM     60  C   UNL     1      -8.369  -6.781  20.264  0.00  0.00    +0.000 C 
ATOM     61  H   UNL     1      -8.835  -6.070  20.951  0.00  0.00    +0.000 HD
ATOM     62  H   UNL     1      -7.526  -7.260  20.780  0.00  0.00    +0.000 HD
ATOM     63  H   UNL     1      -9.118  -7.554  20.051  0.00  0.00    +0.000 HD
ENDBRANCH  55  60
ENDBRANCH  52  55
ENDBRANCH   1  52
TORSDOF 11
ENDMDL
MODEL 8
REMARK VINA RESULT:    -8.900      3.977      5.940
REMARK INTER + INTRA:         -14.570
REMARK INTER:                 -13.288
REMARK INTRA:                  -1.283
REMARK UNBOUND:                -0.987
REMARK  Name = 
REMARK  11 active torsions:
REMARK  status: ('A' for Active; 'I' for Inactive)
REMARK    1  A    between atoms: C_1  and  O_2
REMARK    2  A    between atoms: O_2  and  C_3
REMARK    3  A    between atoms: C_3  and  C_5
REMARK    4  A    between atoms: C_9  and  N_10
REMARK    5  A    between atoms: C_11  and  C_13
REMARK    6  A    between atoms: C_13  and  C_14
REMARK    7  A    between atoms: C_14  and  N_15
REMARK    8  A    between atoms: N_15  and  C_16
REMARK    9  A    between atoms: N_15  and  C_17
REMARK   10  A    between atoms: N_20  and  C_21
REMARK   11  A    between atoms: C_28  and  C_29
REMARK                            x       y       z     vdW  Elec       q    Type
REMARK                         _______ _______ _______ _____ _____    ______ ____
ROOT
ATOM      1  C   UNL     1     -10.352  -5.770  17.389  0.00  0.00    +0.000 C 
ATOM      2  C   UNL     1      -8.843  -6.172  17.165  0.00  0.00    +0.000 C 
ATOM      3  C   UNL     1      -8.608  -7.545  16.518  0.00  0.00    +0.000 C 
ATOM      4  N   UNL     1      -9.443  -8.484  17.259  0.00  0.00    +0.000 N 
ATOM      5  C   UNL     1     -10.845  -8.284  16.965  0.00  0.00    +0.000 C 
ATOM      6  C   UNL     1     -11.232  -7.007  17.695  0.00  0.00    +0.000 C 
ATOM      7  H   UNL     1      -8.339  -6.202  18.140  0.00  0.00    +0.000 HD
ATOM      8  H   UNL     1      -8.322  -5.404  16.579  0.00  0.00    +0.000 HD
ATOM      9  H   UNL     1      -7.540  -7.781  16.583  0.00  0.00    +0.000 HD
ATOM     10  H   UNL     1      -8.870  -7.536  15.452  0.00  0.00    +0.000 HD
ATOM     11  H   UNL     1     -11.474  -9.123  17.276  0.00  0.00    +0.000 HD
ATOM     12  H   UNL     1     -11.016  -8.175  15.887  0.00  0.00    +0.000 HD
ATOM     13  H   UNL     1     -11.152  -7.187  18.766  0.00  0.00    +0.000 HD
ATOM     14  H   UNL     1     -12.288  -6.807  17.462  0.00  0.00    +0.000 HD
ENDROOT
BRANCH   4  15
ATOM     15  C   UNL     1      -8.968  -9.753  17.543  0.00  0.00    +0.000 A 
ATOM     16  N   UNL     1      -8.704 -10.068  18.841  0.00  0.00    +0.000 NA
ATOM     17  C   UNL     1      -8.342 -11.323  19.166  0.00  0.00    +0.000 A 
ATOM     18  N   UNL     1      -8.217 -12.380  18.357  0.00  0.00    +0.000 NA
ATOM     19  C   UNL     1      -8.500 -12.053  17.090  0.00  0.00    +0.000 A 
ATOM     20  N   UNL     1      -8.496 -12.968  16.078  0.00  0.00    +0.000 N 
ATOM     21  C   UNL     1      -8.835 -12.360  14.906  0.00  0.00    +0.000 A 
ATOM     22  C   UNL     1      -9.063 -11.018  15.160  0.00  0.00    +0.000 A 
ATOM     23  C   UNL     1      -8.855 -10.806  16.582  0.00  0.00    +0.000 A 
ATOM     24  H   UNL     1      -8.132 -11.503  20.216  0.00  0.00    +0.000 HD
ATOM     25  H   UNL     1      -8.305 -13.950  16.208  0.00  0.00    +0.000 HD
ATOM     26  H   UNL     1      -8.894 -12.925  13.984  0.00  0.00    +0.000 HD
BRANCH  22  27
ATOM     27  C   UNL     1      -9.475 -10.070  14.098  0.00  0.00    +0.000 C 
ATOM     28  H   UNL     1      -9.063  -9.071  14.279  0.00  0.00    +0.000 HD
ATOM     29  H   UNL     1     -10.557  -9.938  14.071  0.00  0.00    +0.000 HD
ATOM     30  H   UNL     1      -9.101 -10.401  13.126  0.00  0.00    +0.000 HD
ENDBRANCH  22  27
ENDBRANCH   4  15
BRANCH   1  32
ATOM     31  N   UNL     1     -10.217  -3.948  15.739  0.00  0.00    +0.000 N 
ATOM     32  C   UNL     1     -10.884  -5.107  16.095  0.00  0.00    +0.000 C 
ATOM     33  O   UNL     1     -11.865  -5.568  15.516  0.00  0.00    +0.000 OA
ATOM     34  H   UNL     1      -9.389  -3.729  16.297  0.00  0.00    +0.000 HD
BRANCH  31  39
ATOM     35  C   UNL     1     -11.791  -1.568  13.375  0.00  0.00    +0.000 A 
ATOM     36  C   UNL     1     -10.813  -1.469  12.380  0.00  0.00    +0.000 A 
ATOM     37  C   UNL     1      -9.644  -2.217  12.475  0.00  0.00    +0.000 A 
ATOM     38  C   UNL     1      -9.434  -3.056  13.572  0.00  0.00    +0.000 A 
ATOM     39  C   UNL     1     -10.391  -3.161  14.581  0.00  0.00    +0.000 A 
ATOM     40  C   UNL     1     -11.581  -2.424  14.468  0.00  0.00    +0.000 A 
ATOM     41  H   UNL     1     -10.942  -0.809  11.523  0.00  0.00    +0.000 HD
ATOM     42  H   UNL     1      -8.883  -2.143  11.702  0.00  0.00    +0.000 HD
ATOM     43  H   UNL     1      -8.506  -3.617  13.609  0.00  0.00    +0.000 HD
ATOM     44  H   UNL     1     -12.339  -2.491  15.244  0.00  0.00    +0.000 HD
BRANCH  35  45
ATOM     45  C   UNL     1     -13.045  -0.765  13.322  0.00  0.00    +0.000 C 
ATOM     46  O   UNL     1     -13.421  -0.029  14.220  0.00  0.00    +0.000 OA
BRANCH  45  47
ATOM     47  O   UNL     1     -13.675  -0.960  12.135  0.00  0.00    +0.000 OA
BRANCH  47  48
ATOM     48  C   UNL     1     -14.507   0.119  11.709  0.00  0.00    +0.000 C 
ATOM     49  H   UNL     1     -15.071  -0.220  10.834  0.00  0.00    +0.000 HD
ATOM     50  H   UNL     1     -13.894   0.975  11.414  0.00  0.00    +0.000 HD
ATOM     51  H   UNL     1     -15.218   0.398  12.492  0.00  0.00    +0.000 HD
ENDBRANCH  47  48
ENDBRANCH  45  47
ENDBRANCH  35  45
ENDBRANCH  31  39
ENDBRANCH   1  32
BRANCH   1  52
ATOM     52  C   UNL     1     -10.355  -4.739  18.590  0.00  0.00    +0.000 C 
ATOM     53  H   UNL     1     -10.319  -5.361  19.498  0.00  0.00    +0.000 HD
ATOM     54  H   UNL     1     -11.319  -4.211  18.621  0.00  0.00    +0.000 HD
BRANCH  52  55
ATOM     55  N   UNL     1      -9.247  -3.750  18.722  0.00  0.00    +0.000 NA
BRANCH  55  56
ATOM     56  C   UNL     1      -9.671  -2.343  18.817  0.00  0.00    +0.000 C 
ATOM     57  H   UNL     1      -9.044  -1.664  18.252  0.00  0.00    +0.000 HD
ATOM     58  H   UNL     1      -9.557  -2.004  19.852  0.00  0.00    +0.000 HD
ATOM     59  H   UNL     1     -10.712  -2.191  18.512  0.00  0.00    +0.000 HD
ENDBRANCH  55  56
BRANCH  55  60
ATOM     60  C   UNL     1      -8.489  -4.036  19.957  0.00  0.00    +0.000 C 
ATOM     61  H   UNL     1      -8.747  -5.015  20.367  0.00  0.00    +0.000 HD
ATOM     62  H   UNL     1      -8.668  -3.278  20.732  0.00  0.00    +0.000 HD
ATOM     63  H   UNL     1      -7.413  -4.055  19.745  0.00  0.00    +0.000 HD
ENDBRANCH  55  60
ENDBRANCH  52  55
ENDBRANCH   1  52
TORSDOF 11
ENDMDL
MODEL 9
REMARK VINA RESULT:    -8.898      3.448      9.232
REMARK INTER + INTRA:         -14.568
REMARK INTER:                 -13.226
REMARK INTRA:                  -1.342
REMARK UNBOUND:                -0.987
REMARK  Name = 
REMARK  11 active torsions:
REMARK  status: ('A' for Active; 'I' for Inactive)
REMARK    1  A    between atoms: C_1  and  O_2
REMARK    2  A    between atoms: O_2  and  C_3
REMARK    3  A    between atoms: C_3  and  C_5
REMARK    4  A    between atoms: C_9  and  N_10
REMARK    5  A    between atoms: C_11  and  C_13
REMARK    6  A    between atoms: C_13  and  C_14
REMARK    7  A    between atoms: C_14  and  N_15
REMARK    8  A    between atoms: N_15  and  C_16
REMARK    9  A    between atoms: N_15  and  C_17
REMARK   10  A    between atoms: N_20  and  C_21
REMARK   11  A    between atoms: C_28  and  C_29
REMARK                            x       y       z     vdW  Elec       q    Type
REMARK                         _______ _______ _______ _____ _____    ______ ____
ROOT
ATOM      1  C   UNL     1     -10.361  -6.585  17.150  0.00  0.00    +0.000 C 
ATOM      2  C   UNL     1      -8.979  -5.983  16.686  0.00  0.00    +0.000 C 
ATOM      3  C   UNL     1      -7.793  -6.232  17.629  0.00  0.00    +0.000 C 
ATOM      4  N   UNL     1      -8.260  -5.869  18.963  0.00  0.00    +0.000 N 
ATOM      5  C   UNL     1      -9.211  -6.837  19.465  0.00  0.00    +0.000 C 
ATOM      6  C   UNL     1     -10.496  -6.577  18.693  0.00  0.00    +0.000 C 
ATOM      7  H   UNL     1      -9.081  -4.892  16.602  0.00  0.00    +0.000 HD
ATOM      8  H   UNL     1      -8.721  -6.341  15.681  0.00  0.00    +0.000 HD
ATOM      9  H   UNL     1      -6.949  -5.620  17.292  0.00  0.00    +0.000 HD
ATOM     10  H   UNL     1      -7.465  -7.279  17.593  0.00  0.00    +0.000 HD
ATOM     11  H   UNL     1      -9.375  -6.758  20.544  0.00  0.00    +0.000 HD
ATOM     12  H   UNL     1      -8.864  -7.864  19.297  0.00  0.00    +0.000 HD
ATOM     13  H   UNL     1     -10.867  -5.591  18.968  0.00  0.00    +0.000 HD
ATOM     14  H   UNL     1     -11.231  -7.323  19.029  0.00  0.00    +0.000 HD
ENDROOT
BRANCH   4  15
ATOM     15  C   UNL     1      -7.410  -5.214  19.837  0.00  0.00    +0.000 A 
ATOM     16  N   UNL     1      -6.147  -5.699  19.996  0.00  0.00    +0.000 NA
ATOM     17  C   UNL     1      -5.263  -5.028  20.755  0.00  0.00    +0.000 A 
ATOM     18  N   UNL     1      -5.441  -3.870  21.399  0.00  0.00    +0.000 NA
ATOM     19  C   UNL     1      -6.681  -3.402  21.214  0.00  0.00    +0.000 A 
ATOM     20  N   UNL     1      -7.099  -2.207  21.725  0.00  0.00    +0.000 N 
ATOM     21  C   UNL     1      -8.393  -1.979  21.367  0.00  0.00    +0.000 A 
ATOM     22  C   UNL     1      -8.830  -3.051  20.606  0.00  0.00    +0.000 A 
ATOM     23  C   UNL     1      -7.721  -3.981  20.492  0.00  0.00    +0.000 A 
ATOM     24  H   UNL     1      -4.279  -5.476  20.851  0.00  0.00    +0.000 HD
ATOM     25  H   UNL     1      -6.507  -1.585  22.255  0.00  0.00    +0.000 HD
ATOM     26  H   UNL     1      -8.904  -1.074  21.672  0.00  0.00    +0.000 HD
BRANCH  22  27
ATOM     27  C   UNL     1     -10.196  -3.110  20.033  0.00  0.00    +0.000 C 
ATOM     28  H   UNL     1     -10.948  -3.252  20.817  0.00  0.00    +0.000 HD
ATOM     29  H   UNL     1     -10.315  -3.958  19.358  0.00  0.00    +0.000 HD
ATOM     30  H   UNL     1     -10.437  -2.173  19.524  0.00  0.00    +0.000 HD
ENDBRANCH  22  27
ENDBRANCH   4  15
BRANCH   1  32
ATOM     31  N   UNL     1      -9.224  -8.625  16.372  0.00  0.00    +0.000 N 
ATOM     32  C   UNL     1     -10.449  -8.052  16.665  0.00  0.00    +0.000 C 
ATOM     33  O   UNL     1     -11.542  -8.589  16.498  0.00  0.00    +0.000 OA
ATOM     34  H   UNL     1      -8.407  -8.061  16.616  0.00  0.00    +0.000 HD
BRANCH  31  39
ATOM     35  C   UNL     1      -8.624 -12.265  16.720  0.00  0.00    +0.000 A 
ATOM     36  C   UNL     1      -8.514 -12.663  15.384  0.00  0.00    +0.000 A 
ATOM     37  C   UNL     1      -8.605 -11.718  14.367  0.00  0.00    +0.000 A 
ATOM     38  C   UNL     1      -8.824 -10.373  14.674  0.00  0.00    +0.000 A 
ATOM     39  C   UNL     1      -8.950  -9.957  15.998  0.00  0.00    +0.000 A 
ATOM     40  C   UNL     1      -8.830 -10.909  17.023  0.00  0.00    +0.000 A 
ATOM     41  H   UNL     1      -8.361 -13.706  15.115  0.00  0.00    +0.000 HD
ATOM     42  H   UNL     1      -8.518 -12.025  13.327  0.00  0.00    +0.000 HD
ATOM     43  H   UNL     1      -8.895  -9.672  13.848  0.00  0.00    +0.000 HD
ATOM     44  H   UNL     1      -8.925 -10.606  18.063  0.00  0.00    +0.000 HD
BRANCH  35  45
ATOM     45  C   UNL     1      -8.557 -13.249  17.837  0.00  0.00    +0.000 C 
ATOM     46  O   UNL     1      -8.512 -12.938  19.016  0.00  0.00    +0.000 OA
BRANCH  45  47
ATOM     47  O   UNL     1      -8.577 -14.514  17.347  0.00  0.00    +0.000 OA
BRANCH  47  48
ATOM     48  C   UNL     1      -9.747 -15.267  17.666  0.00  0.00    +0.000 C 
ATOM     49  H   UNL     1     -10.280 -14.735  18.461  0.00  0.00    +0.000 HD
ATOM     50  H   UNL     1      -9.470 -16.257  18.040  0.00  0.00    +0.000 HD
ATOM     51  H   UNL     1     -10.411 -15.347  16.801  0.00  0.00    +0.000 HD
ENDBRANCH  47  48
ENDBRANCH  45  47
ENDBRANCH  35  45
ENDBRANCH  31  39
ENDBRANCH   1  32
BRANCH   1  52
ATOM     52  C   UNL     1     -11.477  -5.698  16.462  0.00  0.00    +0.000 C 
ATOM     53  H   UNL     1     -12.227  -5.524  17.250  0.00  0.00    +0.000 HD
ATOM     54  H   UNL     1     -11.985  -6.283  15.683  0.00  0.00    +0.000 HD
BRANCH  52  55
ATOM     55  N   UNL     1     -11.126  -4.353  15.921  0.00  0.00    +0.000 NA
BRANCH  55  56
ATOM     56  C   UNL     1     -11.462  -4.143  14.503  0.00  0.00    +0.000 C 
ATOM     57  H   UNL     1     -12.476  -4.431  14.252  0.00  0.00    +0.000 HD
ATOM     58  H   UNL     1     -10.843  -4.802  13.886  0.00  0.00    +0.000 HD
ATOM     59  H   UNL     1     -11.304  -3.110  14.176  0.00  0.00    +0.000 HD
ENDBRANCH  55  56
BRANCH  55  60
ATOM     60  C   UNL     1     -11.864  -3.321  16.677  0.00  0.00    +0.000 C 
ATOM     61  H   UNL     1     -12.808  -3.066  16.189  0.00  0.00    +0.000 HD
ATOM     62  H   UNL     1     -11.276  -2.401  16.794  0.00  0.00    +0.000 HD
ATOM     63  H   UNL     1     -12.115  -3.692  17.679  0.00  0.00    +0.000 HD
ENDBRANCH  55  60
ENDBRANCH  52  55
ENDBRANCH   1  52
TORSDOF 11
ENDMDL
