
 OpenBabel01112422123D

 74 76  0  0  1  0  0  0  0  0999 V2000
    9.7243   -6.6146    6.8913 N   0  0  0  0  0  0  0  0  0  0  0  0
    9.3626   -6.1838    5.6651 C   0  0  0  0  0  0  0  0  0  0  0  0
    8.2780   -5.3799    5.7233 N   0  0  0  0  0  0  0  0  0  0  0  0
   10.0300   -6.5630    4.6390 N   0  0  0  0  0  0  0  0  0  0  0  0
    9.5521   -6.1346    3.3274 C   0  0  0  0  0  0  0  0  0  0  0  0
   10.5149   -6.6549    2.2613 C   0  0  0  0  0  0  0  0  0  0  0  0
   10.0102   -6.2877    0.8666 C   0  0  0  0  0  0  0  0  0  0  0  0
   10.9251   -6.7477   -0.2801 C   0  0  3  0  0  0  0  0  0  0  0  0
   11.0838   -8.2122   -0.3400 N   0  0  0  0  0  0  0  0  0  0  0  0
   10.3380   -6.2424   -1.6157 C   0  0  0  0  0  0  0  0  0  0  0  0
    9.3549   -5.5219   -1.6946 O   0  0  0  0  0  0  0  0  0  0  0  0
   11.0426   -6.6566   -2.7321 N   0  0  0  0  0  0  0  0  0  0  0  0
   10.5960   -6.2851   -4.0634 C   0  0  0  0  0  0  0  0  0  0  0  0
   11.1908   -4.9432   -4.5286 C   0  0  0  0  0  0  0  0  0  0  0  0
   12.6602   -4.9221   -4.5507 N   0  0  0  0  0  0  0  0  0  0  0  0
   13.2077   -5.9270   -5.4628 C   0  0  0  0  0  0  0  0  0  0  0  0
   14.7290   -5.9141   -5.4366 C   0  0  0  0  0  0  0  0  0  0  0  0
   15.2923   -6.2707   -4.0575 C   0  0  0  0  0  0  0  0  0  0  0  0
   16.8176   -6.1991   -4.0155 C   0  0  0  0  0  0  0  0  0  0  0  0
   17.3704   -4.8280   -4.4059 C   0  0  0  0  0  0  0  0  0  0  0  0
   16.8341   -3.7725   -3.5259 N   0  0  0  0  0  0  0  0  0  0  0  0
   17.7412   -2.9849   -2.8322 C   0  0  0  0  0  0  0  0  0  0  0  0
   18.2808   -1.8017   -3.1307 C   0  0  0  0  0  0  0  0  0  0  0  0
   17.9804   -1.0138   -4.2593 C   0  0  0  0  0  0  0  0  0  0  0  0
   18.5147    0.1501   -4.7769 C   0  0  0  0  0  0  0  0  0  0  0  0
   17.7611    0.5036   -5.9305 C   0  0  0  0  0  0  0  0  0  0  0  0
   17.8391    1.5671   -6.8457 C   0  0  0  0  0  0  0  0  0  0  0  0
   16.9288    1.6245   -7.9060 C   0  0  0  0  0  0  0  0  0  0  0  0
   15.9423    0.6489   -8.0483 C   0  0  0  0  0  0  0  0  0  0  0  0
   15.8371   -0.4127   -7.1440 C   0  0  0  0  0  0  0  0  0  0  0  0
   16.7678   -0.4601   -6.0945 C   0  0  0  0  0  0  0  0  0  0  0  0
   16.9225   -1.3599   -5.0716 N   0  0  0  0  0  0  0  0  0  0  0  0
   19.2252   -1.4589   -2.0414 C   0  0  0  0  0  0  0  0  0  0  0  0
   19.9442   -0.4768   -1.9748 O   0  0  0  0  0  0  0  0  0  0  0  0
   19.1525   -2.4468   -1.1222 N   0  0  0  0  0  0  0  0  0  0  0  0
   18.2671   -3.3884   -1.4989 C   0  0  0  0  0  0  0  0  0  0  0  0
   17.9318   -4.3905   -0.8926 O   0  0  0  0  0  0  0  0  0  0  0  0
    9.4648   -6.0587    7.6911 H   0  0  0  0  0  0  0  0  0  0  0  0
   10.6781   -6.9595    6.9163 H   0  0  0  0  0  0  0  0  0  0  0  0
    7.6893   -5.4389    6.5414 H   0  0  0  0  0  0  0  0  0  0  0  0
    7.7683   -5.2354    4.8622 H   0  0  0  0  0  0  0  0  0  0  0  0
    9.4832   -5.0420    3.2613 H   0  0  0  0  0  0  0  0  0  0  0  0
    8.5581   -6.5621    3.1456 H   0  0  0  0  0  0  0  0  0  0  0  0
   10.6052   -7.7420    2.3634 H   0  0  0  0  0  0  0  0  0  0  0  0
   11.5142   -6.2325    2.4213 H   0  0  0  0  0  0  0  0  0  0  0  0
    9.9030   -5.1949    0.8143 H   0  0  0  0  0  0  0  0  0  0  0  0
    9.0001   -6.6967    0.7247 H   0  0  0  0  0  0  0  0  0  0  0  0
   11.9119   -6.2875   -0.1682 H   0  0  0  0  0  0  0  0  0  0  0  0
   10.1521   -8.6346   -0.3674 H   0  0  0  0  0  0  0  0  0  0  0  0
   11.4850   -8.5307    0.5442 H   0  0  0  0  0  0  0  0  0  0  0  0
   11.7247   -7.3929   -2.5936 H   0  0  0  0  0  0  0  0  0  0  0  0
    9.5052   -6.2156   -4.0741 H   0  0  0  0  0  0  0  0  0  0  0  0
   10.8661   -7.1028   -4.7373 H   0  0  0  0  0  0  0  0  0  0  0  0
   10.8687   -4.1486   -3.8439 H   0  0  0  0  0  0  0  0  0  0  0  0
   10.8049   -4.6778   -5.5185 H   0  0  0  0  0  0  0  0  0  0  0  0
   12.9671   -5.1080   -3.5964 H   0  0  0  0  0  0  0  0  0  0  0  0
   12.8697   -5.7204   -6.4845 H   0  0  0  0  0  0  0  0  0  0  0  0
   12.8875   -6.9376   -5.1957 H   0  0  0  0  0  0  0  0  0  0  0  0
   15.0645   -4.9256   -5.7655 H   0  0  0  0  0  0  0  0  0  0  0  0
   15.1035   -6.6391   -6.1695 H   0  0  0  0  0  0  0  0  0  0  0  0
   14.9668   -7.2781   -3.7720 H   0  0  0  0  0  0  0  0  0  0  0  0
   14.8867   -5.6046   -3.2896 H   0  0  0  0  0  0  0  0  0  0  0  0
   17.2332   -6.9620   -4.6841 H   0  0  0  0  0  0  0  0  0  0  0  0
   17.1498   -6.4495   -2.9998 H   0  0  0  0  0  0  0  0  0  0  0  0
   17.1165   -4.5840   -5.4419 H   0  0  0  0  0  0  0  0  0  0  0  0
   18.4669   -4.8593   -4.3652 H   0  0  0  0  0  0  0  0  0  0  0  0
   16.2329   -4.2060   -2.8185 H   0  0  0  0  0  0  0  0  0  0  0  0
   19.3488    0.6936   -4.3656 H   0  0  0  0  0  0  0  0  0  0  0  0
   18.5989    2.3313   -6.7280 H   0  0  0  0  0  0  0  0  0  0  0  0
   16.9937    2.4404   -8.6179 H   0  0  0  0  0  0  0  0  0  0  0  0
   15.2414    0.7185   -8.8774 H   0  0  0  0  0  0  0  0  0  0  0  0
   15.0583   -1.1619   -7.2527 H   0  0  0  0  0  0  0  0  0  0  0  0
   16.3389   -2.1737   -4.9258 H   0  0  0  0  0  0  0  0  0  0  0  0
   19.6706   -2.4577   -0.2607 H   0  0  0  0  0  0  0  0  0  0  0  0
  1  2  1  0  0  0  0
  1 38  1  0  0  0  0
  1 39  1  0  0  0  0
  2  3  1  0  0  0  0
  2  4  2  0  0  0  0
  3 40  1  0  0  0  0
  3 41  1  0  0  0  0
  4  5  1  0  0  0  0
  5  6  1  0  0  0  0
  5 42  1  0  0  0  0
  5 43  1  0  0  0  0
  6  7  1  0  0  0  0
  6 44  1  0  0  0  0
  6 45  1  0  0  0  0
  7  8  1  0  0  0  0
  7 46  1  0  0  0  0
  7 47  1  0  0  0  0
  8  9  1  0  0  0  0
  8 10  1  0  0  0  0
  8 48  1  0  0  0  0
  9 49  1  0  0  0  0
  9 50  1  0  0  0  0
 10 11  2  0  0  0  0
 10 12  1  0  0  0  0
 12 13  1  0  0  0  0
 12 51  1  0  0  0  0
 13 14  1  0  0  0  0
 13 52  1  0  0  0  0
 13 53  1  0  0  0  0
 14 15  1  0  0  0  0
 14 54  1  0  0  0  0
 14 55  1  0  0  0  0
 15 16  1  0  0  0  0
 15 56  1  0  0  0  0
 16 17  1  0  0  0  0
 16 57  1  0  0  0  0
 16 58  1  0  0  0  0
 17 18  1  0  0  0  0
 17 59  1  0  0  0  0
 17 60  1  0  0  0  0
 18 19  1  0  0  0  0
 18 61  1  0  0  0  0
 18 62  1  0  0  0  0
 19 20  1  0  0  0  0
 19 63  1  0  0  0  0
 19 64  1  0  0  0  0
 20 21  1  0  0  0  0
 20 65  1  0  0  0  0
 20 66  1  0  0  0  0
 21 22  1  0  0  0  0
 21 67  1  0  0  0  0
 22 23  2  0  0  0  0
 22 36  1  0  0  0  0
 23 24  1  0  0  0  0
 23 33  1  0  0  0  0
 24 25  2  0  0  0  0
 24 32  1  0  0  0  0
 25 26  1  0  0  0  0
 25 68  1  0  0  0  0
 26 27  1  0  0  0  0
 26 31  2  0  0  0  0
 27 28  2  0  0  0  0
 27 69  1  0  0  0  0
 28 29  1  0  0  0  0
 28 70  1  0  0  0  0
 29 30  2  0  0  0  0
 29 71  1  0  0  0  0
 30 31  1  0  0  0  0
 30 72  1  0  0  0  0
 31 32  1  0  0  0  0
 32 73  1  0  0  0  0
 33 34  2  0  0  0  0
 33 35  1  0  0  0  0
 35 36  1  0  0  0  0
 35 74  1  0  0  0  0
 36 37  2  0  0  0  0
M  END
$$$$
