REMARK  Name = 
REMARK  9 active torsions:
REMARK  status: ('A' for Active; 'I' for Inactive)
REMARK    1  A    between atoms: N_1  and  C_2
REMARK    2  A    between atoms: C_2  and  C_3
REMARK    3  A    between atoms: C_3  and  C_4
REMARK    4  A    between atoms: C_4  and  N_5
REMARK    5  A    between atoms: C_9  and  C_10
REMARK    6  A    between atoms: N_15  and  C_16
REMARK    7  A    between atoms: C_20  and  O_21
REMARK    8  A    between atoms: O_21  and  C_22
REMARK    9  A    between atoms: C_22  and  C_25
REMARK                            x       y       z     vdW  Elec       q    Type
REMARK                         _______ _______ _______ _____ _____    ______ ____
ROOT
ATOM      1  C   UNL     1      -2.491   0.971   2.156  0.00  0.00    +0.000 A 
ATOM      2  C   UNL     1      -3.238   1.382   3.237  0.00  0.00    +0.000 A 
ATOM      3  C   UNL     1      -2.769   1.030   4.480  0.00  0.00    +0.000 A 
ATOM      4  N   UNL     1      -1.624   0.349   4.680  0.00  0.00    +0.000 NA
ATOM      5  C   UNL     1      -0.943  -0.003   3.583  0.00  0.00    +0.000 A 
ATOM      6  N   UNL     1       0.268  -0.680   3.769  0.00  0.00    +0.000 N 
ATOM      7  N   UNL     1      -1.353   0.277   2.339  0.00  0.00    +0.000 NA
ATOM      8  H   UNL     1      -4.151   1.960   3.134  0.00  0.00    +0.000 HD
ATOM      9  H   UNL     1      -3.315   1.294   5.378  0.00  0.00    +0.000 HD
ATOM     10  H   UNL     1       0.360  -0.882   4.756  0.00  0.00    +0.000 HD
ENDROOT
BRANCH   1  15
ATOM     11  N   UNL     1      -1.161   1.803  -2.346  0.00  0.00    +0.000 N 
ATOM     12  C   UNL     1      -0.048   1.593  -1.576  0.00  0.00    +0.000 A 
ATOM     13  C   UNL     1      -0.470   1.323  -0.298  0.00  0.00    +0.000 A 
ATOM     14  C   UNL     1      -1.900   1.382  -0.268  0.00  0.00    +0.000 A 
ATOM     15  C   UNL     1      -2.884   1.231   0.755  0.00  0.00    +0.000 A 
ATOM     16  C   UNL     1      -4.240   1.334   0.370  0.00  0.00    +0.000 A 
ATOM     17  C   UNL     1      -4.616   1.603  -0.942  0.00  0.00    +0.000 A 
ATOM     18  C   UNL     1      -3.658   1.780  -1.935  0.00  0.00    +0.000 A 
ATOM     19  C   UNL     1      -2.306   1.666  -1.583  0.00  0.00    +0.000 A 
ATOM     20  H   UNL     1       0.949   1.655  -1.988  0.00  0.00    +0.000 HD
ATOM     21  H   UNL     1       0.186   1.108   0.536  0.00  0.00    +0.000 HD
ATOM     22  H   UNL     1      -5.028   1.188   1.102  0.00  0.00    +0.000 HD
ATOM     23  H   UNL     1      -5.671   1.675  -1.195  0.00  0.00    +0.000 HD
ATOM     24  H   UNL     1      -3.968   1.997  -2.952  0.00  0.00    +0.000 HD
BRANCH  11  25
ATOM     25  C   UNL     1      -1.103   2.197  -3.746  0.00  0.00    +0.000 C 
ATOM     26  H   UNL     1      -2.120   2.374  -4.106  0.00  0.00    +0.000 HD
ATOM     27  H   UNL     1      -0.576   3.159  -3.766  0.00  0.00    +0.000 HD
BRANCH  25  28
ATOM     28  C   UNL     1      -0.414   1.157  -4.630  0.00  0.00    +0.000 C 
ATOM     29  H   UNL     1       0.609   0.973  -4.280  0.00  0.00    +0.000 HD
ATOM     30  H   UNL     1      -0.943   0.199  -4.551  0.00  0.00    +0.000 HD
BRANCH  28  31
ATOM     31  C   UNL     1      -0.376   1.587  -6.094  0.00  0.00    +0.000 C 
ATOM     32  H   UNL     1       0.108   0.807  -6.691  0.00  0.00    +0.000 HD
ATOM     33  H   UNL     1      -1.395   1.711  -6.475  0.00  0.00    +0.000 HD
BRANCH  31  34
ATOM     34  N   UNL     1       0.353   2.839  -6.258  0.00  0.00    +0.000 NA
ATOM     35  H   UNL     1       0.415   3.073  -7.248  0.00  0.00    +0.000 HD
ATOM     36  H   UNL     1       1.313   2.728  -5.932  0.00  0.00    +0.000 HD
ENDBRANCH  31  34
ENDBRANCH  28  31
ENDBRANCH  25  28
ENDBRANCH  11  25
ENDBRANCH   1  15
BRANCH   6  37
ATOM     37  C   UNL     1       0.818  -1.673   2.934  0.00  0.00    +0.000 A 
ATOM     38  C   UNL     1       0.029  -2.404   2.033  0.00  0.00    +0.000 A 
ATOM     39  C   UNL     1       0.576  -3.425   1.262  0.00  0.00    +0.000 A 
ATOM     40  C   UNL     1       1.926  -3.726   1.381  0.00  0.00    +0.000 A 
ATOM     41  C   UNL     1       2.743  -2.991   2.243  0.00  0.00    +0.000 A 
ATOM     42  C   UNL     1       2.188  -1.977   3.028  0.00  0.00    +0.000 A 
ATOM     43  H   UNL     1      -1.034  -2.197   1.931  0.00  0.00    +0.000 HD
ATOM     44  H   UNL     1      -0.055  -3.984   0.577  0.00  0.00    +0.000 HD
ATOM     45  H   UNL     1       2.347  -4.532   0.786  0.00  0.00    +0.000 HD
ATOM     46  H   UNL     1       2.804  -1.400   3.714  0.00  0.00    +0.000 HD
BRANCH  41  47
ATOM     47  O   UNL     1       4.045  -3.395   2.246  0.00  0.00    +0.000 OA
BRANCH  47  48
ATOM     48  C   UNL     1       5.056  -2.445   2.589  0.00  0.00    +0.000 C 
ATOM     49  F   UNL     1       4.752  -1.235   2.048  0.00  0.00    +0.000 F 
ATOM     50  F   UNL     1       5.090  -2.300   3.936  0.00  0.00    +0.000 F 
BRANCH  48  51
ATOM     51  C   UNL     1       6.399  -2.928   2.035  0.00  0.00    +0.000 C 
ATOM     52  F   UNL     1       7.399  -2.048   2.303  0.00  0.00    +0.000 F 
ATOM     53  F   UNL     1       6.772  -4.112   2.592  0.00  0.00    +0.000 F 
ATOM     54  H   UNL     1       6.346  -3.070   0.950  0.00  0.00    +0.000 HD
ENDBRANCH  48  51
ENDBRANCH  47  48
ENDBRANCH  41  47
ENDBRANCH   6  37
TORSDOF 9
