REMARK  Name = 
REMARK  0 active torsions:
REMARK  status: ('A' for Active; 'I' for Inactive)
REMARK                            x       y       z     vdW  Elec       q    Type
REMARK                         _______ _______ _______ _____ _____    ______ ____
ROOT
ATOM      1  O   UNL     1      -3.272  -2.417   0.000  0.00  0.00    +0.000 OA
ATOM      2  C   UNL     1      -2.056  -2.277   0.000  0.00  0.00    +0.000 C 
ATOM      3  N   UNL     1      -1.201  -3.346  -0.000  0.00  0.00    +0.000 N 
ATOM      4  C   UNL     1       0.138  -3.064  -0.001  0.00  0.00    +0.000 C 
ATOM      5  O   UNL     1       0.987  -3.945  -0.003  0.00  0.00    +0.000 OA
ATOM      6  C   UNL     1       0.173  -1.633   0.000  0.00  0.00    +0.000 A 
ATOM      7  C   UNL     1      -1.175  -1.149   0.000  0.00  0.00    +0.000 A 
ATOM      8  C   UNL     1      -1.405   0.252   0.001  0.00  0.00    +0.000 A 
ATOM      9  C   UNL     1      -2.626   0.927   0.001  0.00  0.00    +0.000 A 
ATOM     10  C   UNL     1      -4.004   0.633  -0.000  0.00  0.00    +0.000 A 
ATOM     11  C   UNL     1      -4.940   1.676  -0.001  0.00  0.00    +0.000 A 
ATOM     12  C   UNL     1      -4.530   3.005  -0.000  0.00  0.00    +0.000 A 
ATOM     13  C   UNL     1      -3.174   3.334   0.001  0.00  0.00    +0.000 A 
ATOM     14  C   UNL     1      -2.244   2.286   0.001  0.00  0.00    +0.000 A 
ATOM     15  N   UNL     1      -0.854   2.353   0.002  0.00  0.00    +0.000 N 
ATOM     16  C   UNL     1      -0.337   1.092   0.001  0.00  0.00    +0.000 A 
ATOM     17  C   UNL     1       0.955   0.628   0.001  0.00  0.00    +0.000 A 
ATOM     18  N   UNL     1       2.158   1.269   0.000  0.00  0.00    +0.000 N 
ATOM     19  C   UNL     1       3.185   0.329   0.000  0.00  0.00    +0.000 A 
ATOM     20  C   UNL     1       4.570   0.539  -0.000  0.00  0.00    +0.000 A 
ATOM     21  C   UNL     1       5.402  -0.582  -0.001  0.00  0.00    +0.000 A 
ATOM     22  C   UNL     1       4.868  -1.866  -0.001  0.00  0.00    +0.000 A 
ATOM     23  C   UNL     1       3.481  -2.067   0.000  0.00  0.00    +0.000 A 
ATOM     24  C   UNL     1       2.611  -0.960   0.000  0.00  0.00    +0.000 A 
ATOM     25  C   UNL     1       1.242  -0.699   0.001  0.00  0.00    +0.000 A 
ATOM     26  H   UNL     1      -1.538  -4.293  -0.001  0.00  0.00    +0.000 HD
ATOM     27  H   UNL     1      -4.368  -0.389  -0.000  0.00  0.00    +0.000 HD
ATOM     28  H   UNL     1      -6.002   1.438  -0.002  0.00  0.00    +0.000 HD
ATOM     29  H   UNL     1      -5.275   3.797  -0.001  0.00  0.00    +0.000 HD
ATOM     30  H   UNL     1      -2.858   4.373   0.002  0.00  0.00    +0.000 HD
ATOM     31  H   UNL     1      -0.327   3.214   0.002  0.00  0.00    +0.000 HD
ATOM     32  H   UNL     1       2.302   2.268   0.000  0.00  0.00    +0.000 HD
ATOM     33  H   UNL     1       4.993   1.539  -0.001  0.00  0.00    +0.000 HD
ATOM     34  H   UNL     1       6.481  -0.450  -0.002  0.00  0.00    +0.000 HD
ATOM     35  H   UNL     1       5.530  -2.728  -0.001  0.00  0.00    +0.000 HD
ATOM     36  H   UNL     1       3.109  -3.085   0.001  0.00  0.00    +0.000 HD
ENDROOT
TORSDOF 0
