
 OpenBabel01112422303D

 56 61  0  0  1  0  0  0  0  0999 V2000
    1.2663   -8.2090    4.4702 C   0  0  0  0  0  0  0  0  0  0  0  0
    0.8639   -7.6099    3.2194 N   0  0  0  0  0  0  0  0  0  0  0  0
    1.5165   -6.5685    2.6309 C   0  0  0  0  0  0  0  0  0  0  0  0
    0.8647   -6.2308    1.4625 C   0  0  0  0  0  0  0  0  0  0  0  0
    1.3304   -5.1841    0.5922 C   0  0  0  0  0  0  0  0  0  0  0  0
    2.0982   -4.1110    0.8849 C   0  0  0  0  0  0  0  0  0  0  0  0
    2.5954   -3.6468    2.1393 C   0  0  0  0  0  0  0  0  0  0  0  0
    3.9022   -3.7842    2.6294 C   0  0  0  0  0  0  0  0  0  0  0  0
    3.8533   -3.2730    3.9039 N   0  0  0  0  0  0  0  0  0  0  0  0
    2.6233   -2.7458    4.2227 C   0  0  0  0  0  0  0  0  0  0  0  0
    2.1955   -2.0952    5.3963 C   0  0  0  0  0  0  0  0  0  0  0  0
    0.8770   -1.6596    5.4729 C   0  0  0  0  0  0  0  0  0  0  0  0
    0.0083   -1.8856    4.4156 C   0  0  0  0  0  0  0  0  0  0  0  0
    0.4444   -2.5463    3.2487 C   0  0  0  0  0  0  0  0  0  0  0  0
    1.7920   -2.9768    3.1363 C   0  0  0  0  0  0  0  0  0  0  0  0
    4.9218   -3.2937    4.8635 C   0  0  0  0  0  0  0  0  0  0  0  0
    6.2236   -3.8921    4.4016 C   0  0  0  0  0  0  0  0  0  0  0  0
    6.4848   -3.9870    2.8940 C   0  0  3  0  0  0  0  0  0  0  0  0
    7.7323   -4.9243    2.7242 C   0  0  0  0  0  0  0  0  0  0  0  0
    8.8906   -4.4353    3.4970 N   0  0  0  0  0  0  0  0  0  0  0  0
    5.2014   -4.3848    2.0847 C   0  0  0  0  0  0  0  0  0  0  0  0
    2.3116   -3.3574   -0.3700 C   0  0  0  0  0  0  0  0  0  0  0  0
    3.0033   -2.3698   -0.5287 O   0  0  0  0  0  0  0  0  0  0  0  0
    1.6203   -3.9933   -1.3384 N   0  0  0  0  0  0  0  0  0  0  0  0
    1.1129   -5.1588   -0.8858 C   0  0  0  0  0  0  0  0  0  0  0  0
    0.6283   -6.0216   -1.5719 O   0  0  0  0  0  0  0  0  0  0  0  0
   -0.2539   -7.1338    1.3438 C   0  0  0  0  0  0  0  0  0  0  0  0
   -1.3074   -7.3282    0.4189 C   0  0  0  0  0  0  0  0  0  0  0  0
   -2.2293   -8.3733    0.6003 C   0  0  0  0  0  0  0  0  0  0  0  0
   -2.1335   -9.2214    1.6960 C   0  0  0  0  0  0  0  0  0  0  0  0
   -1.1264   -9.0424    2.6429 C   0  0  0  0  0  0  0  0  0  0  0  0
   -0.2055   -7.9986    2.4495 C   0  0  0  0  0  0  0  0  0  0  0  0
    2.1509   -7.6924    4.8533 H   0  0  0  0  0  0  0  0  0  0  0  0
    1.5025   -9.2600    4.2904 H   0  0  0  0  0  0  0  0  0  0  0  0
    0.4439   -8.1050    5.1816 H   0  0  0  0  0  0  0  0  0  0  0  0
    2.4011   -6.1573    3.0970 H   0  0  0  0  0  0  0  0  0  0  0  0
    2.8740   -1.9238    6.2262 H   0  0  0  0  0  0  0  0  0  0  0  0
    0.5338   -1.1427    6.3644 H   0  0  0  0  0  0  0  0  0  0  0  0
   -1.0214   -1.5429    4.4900 H   0  0  0  0  0  0  0  0  0  0  0  0
   -0.2640   -2.7100    2.4403 H   0  0  0  0  0  0  0  0  0  0  0  0
    4.5595   -3.8717    5.7246 H   0  0  0  0  0  0  0  0  0  0  0  0
    5.0751   -2.2615    5.1967 H   0  0  0  0  0  0  0  0  0  0  0  0
    7.0185   -3.2911    4.8585 H   0  0  0  0  0  0  0  0  0  0  0  0
    6.2945   -4.8951    4.8380 H   0  0  0  0  0  0  0  0  0  0  0  0
    6.7832   -2.9943    2.5285 H   0  0  0  0  0  0  0  0  0  0  0  0
    8.0335   -5.0261    1.6786 H   0  0  0  0  0  0  0  0  0  0  0  0
    7.5068   -5.9297    3.1036 H   0  0  0  0  0  0  0  0  0  0  0  0
    9.1709   -3.5088    3.1772 H   0  0  0  0  0  0  0  0  0  0  0  0
    9.7008   -5.0416    3.3666 H   0  0  0  0  0  0  0  0  0  0  0  0
    5.0991   -5.4747    2.0335 H   0  0  0  0  0  0  0  0  0  0  0  0
    5.3323   -4.0341    1.0500 H   0  0  0  0  0  0  0  0  0  0  0  0
    1.6670   -3.7530   -2.3116 H   0  0  0  0  0  0  0  0  0  0  0  0
   -1.4143   -6.6903   -0.4520 H   0  0  0  0  0  0  0  0  0  0  0  0
   -3.0202   -8.5251   -0.1306 H   0  0  0  0  0  0  0  0  0  0  0  0
   -2.8490  -10.0314    1.8196 H   0  0  0  0  0  0  0  0  0  0  0  0
   -1.0570   -9.7043    3.5003 H   0  0  0  0  0  0  0  0  0  0  0  0
  1  2  1  0  0  0  0
  1 33  1  0  0  0  0
  1 34  1  0  0  0  0
  1 35  1  0  0  0  0
  2  3  1  0  0  0  0
  2 32  1  0  0  0  0
  3  4  2  0  0  0  0
  3 36  1  0  0  0  0
  4  5  1  0  0  0  0
  4 27  1  0  0  0  0
  5  6  2  0  0  0  0
  5 25  1  0  0  0  0
  6  7  1  0  0  0  0
  6 22  1  0  0  0  0
  7  8  2  0  0  0  0
  7 15  1  0  0  0  0
  8  9  1  0  0  0  0
  8 21  1  0  0  0  0
  9 10  1  0  0  0  0
  9 16  1  0  0  0  0
 10 11  1  0  0  0  0
 10 15  2  0  0  0  0
 11 12  2  0  0  0  0
 11 37  1  0  0  0  0
 12 13  1  0  0  0  0
 12 38  1  0  0  0  0
 13 14  2  0  0  0  0
 13 39  1  0  0  0  0
 14 15  1  0  0  0  0
 14 40  1  0  0  0  0
 16 17  1  0  0  0  0
 16 41  1  0  0  0  0
 16 42  1  0  0  0  0
 17 18  1  0  0  0  0
 17 43  1  0  0  0  0
 17 44  1  0  0  0  0
 18 19  1  0  0  0  0
 18 21  1  0  0  0  0
 18 45  1  0  0  0  0
 19 20  1  0  0  0  0
 19 46  1  0  0  0  0
 19 47  1  0  0  0  0
 20 48  1  0  0  0  0
 20 49  1  0  0  0  0
 21 50  1  0  0  0  0
 21 51  1  0  0  0  0
 22 23  2  0  0  0  0
 22 24  1  0  0  0  0
 24 25  1  0  0  0  0
 24 52  1  0  0  0  0
 25 26  2  0  0  0  0
 27 28  1  0  0  0  0
 27 32  2  0  0  0  0
 28 29  2  0  0  0  0
 28 53  1  0  0  0  0
 29 30  1  0  0  0  0
 29 54  1  0  0  0  0
 30 31  2  0  0  0  0
 30 55  1  0  0  0  0
 31 32  1  0  0  0  0
 31 56  1  0  0  0  0
M  END
$$$$
