REMARK  Name = 
REMARK  6 active torsions:
REMARK  status: ('A' for Active; 'I' for Inactive)
REMARK    1  A    between atoms: C_1  and  O_2
REMARK    2  A    between atoms: O_2  and  C_3
REMARK    3  A    between atoms: C_4  and  N_5
REMARK    4  A    between atoms: N_5  and  C_6
REMARK    5  A    between atoms: C_7  and  C_9
REMARK    6  A    between atoms: C_16  and  C_17
REMARK                            x       y       z     vdW  Elec       q    Type
REMARK                         _______ _______ _______ _____ _____    ______ ____
ROOT
ATOM      1  C   UNL     1       2.019  -0.494   0.817  0.00  0.00    +0.000 C 
ATOM      2  C   UNL     1       2.490  -1.370  -0.430  0.00  0.00    +0.000 C 
ATOM      3  C   UNL     1       1.391  -1.580  -1.480  0.00  0.00    +0.000 C 
ATOM      4  C   UNL     1       0.153  -0.791  -1.180  0.00  0.00    +0.000 C 
ATOM      5  O   UNL     1       0.725   0.542  -1.046  0.00  0.00    +0.000 OA
ATOM      6  C   UNL     1       1.235   0.810   0.295  0.00  0.00    +0.000 C 
ATOM      7  N   UNL     1       0.049   1.322   1.060  0.00  0.00    +0.000 N 
ATOM      8  C   UNL     1      -0.174   2.684   1.449  0.00  0.00    +0.000 A 
ATOM      9  C   UNL     1       0.230   3.362   2.608  0.00  0.00    +0.000 A 
ATOM     10  C   UNL     1      -0.219   4.677   2.785  0.00  0.00    +0.000 A 
ATOM     11  C   UNL     1      -0.917   5.354   1.783  0.00  0.00    +0.000 A 
ATOM     12  C   UNL     1      -1.296   4.714   0.602  0.00  0.00    +0.000 A 
ATOM     13  C   UNL     1      -1.070   3.331   0.501  0.00  0.00    +0.000 A 
ATOM     14  C   UNL     1      -1.718   2.305  -0.202  0.00  0.00    +0.000 A 
ATOM     15  C   UNL     1      -2.446   2.330  -1.421  0.00  0.00    +0.000 A 
ATOM     16  C   UNL     1      -3.064   1.102  -1.744  0.00  0.00    +0.000 A 
ATOM     17  C   UNL     1      -2.775   0.049  -0.871  0.00  0.00    +0.000 A 
ATOM     18  C   UNL     1      -2.734  -1.342  -1.345  0.00  0.00    +0.000 A 
ATOM     19  C   UNL     1      -3.790  -2.129  -1.838  0.00  0.00    +0.000 A 
ATOM     20  C   UNL     1      -4.720  -2.471  -0.867  0.00  0.00    +0.000 A 
ATOM     21  C   UNL     1      -4.319  -2.496   0.468  0.00  0.00    +0.000 A 
ATOM     22  C   UNL     1      -2.947  -2.365   0.812  0.00  0.00    +0.000 A 
ATOM     23  C   UNL     1      -2.037  -1.916  -0.214  0.00  0.00    +0.000 A 
ATOM     24  N   UNL     1      -0.852  -1.082  -0.102  0.00  0.00    +0.000 N 
ATOM     25  C   UNL     1      -1.663   0.024   0.012  0.00  0.00    +0.000 A 
ATOM     26  C   UNL     1      -1.161   1.205   0.434  0.00  0.00    +0.000 A 
ATOM     27  C   UNL     1      -3.315   1.034  -3.160  0.00  0.00    +0.000 C 
ATOM     28  O   UNL     1      -3.834   0.195  -3.876  0.00  0.00    +0.000 OA
ATOM     29  N   UNL     1      -2.573   2.099  -3.651  0.00  0.00    +0.000 N 
ATOM     30  C   UNL     1      -2.105   3.063  -2.641  0.00  0.00    +0.000 C 
ATOM     31  H   UNL     1       2.907  -0.187   1.388  0.00  0.00    +0.000 HD
ATOM     32  H   UNL     1       3.255  -0.749  -0.927  0.00  0.00    +0.000 HD
ATOM     33  H   UNL     1       1.811  -1.126  -2.398  0.00  0.00    +0.000 HD
ATOM     34  H   UNL     1       1.149  -2.580  -1.818  0.00  0.00    +0.000 HD
ATOM     35  H   UNL     1      -0.415  -0.772  -2.118  0.00  0.00    +0.000 HD
ATOM     36  H   UNL     1       0.773   2.855   3.401  0.00  0.00    +0.000 HD
ATOM     37  H   UNL     1      -0.039   5.179   3.734  0.00  0.00    +0.000 HD
ATOM     38  H   UNL     1      -1.248   6.376   1.956  0.00  0.00    +0.000 HD
ATOM     39  H   UNL     1      -1.934   5.224  -0.113  0.00  0.00    +0.000 HD
ATOM     40  H   UNL     1      -3.989  -2.215  -2.898  0.00  0.00    +0.000 HD
ATOM     41  H   UNL     1      -5.740  -2.703  -1.159  0.00  0.00    +0.000 HD
ATOM     42  H   UNL     1      -5.080  -2.589   1.242  0.00  0.00    +0.000 HD
ATOM     43  H   UNL     1      -2.669  -2.312   1.864  0.00  0.00    +0.000 HD
ATOM     44  H   UNL     1      -1.865   1.721  -4.291  0.00  0.00    +0.000 HD
ATOM     45  H   UNL     1      -2.666   3.988  -2.758  0.00  0.00    +0.000 HD
ATOM     46  H   UNL     1      -1.025   3.201  -2.762  0.00  0.00    +0.000 HD
ENDROOT
BRANCH   6  47
ATOM     47  C   UNL     1       2.272   1.932   0.047  0.00  0.00    +0.000 C 
ATOM     48  H   UNL     1       1.863   2.714  -0.607  0.00  0.00    +0.000 HD
ATOM     49  H   UNL     1       2.614   2.395   0.977  0.00  0.00    +0.000 HD
ATOM     50  H   UNL     1       3.153   1.546  -0.478  0.00  0.00    +0.000 HD
ENDBRANCH   6  47
BRANCH   2  51
ATOM     51  N   UNL     1       3.199  -2.638  -0.096  0.00  0.00    +0.000 N 
ATOM     52  C   UNL     1       4.488  -2.537   0.458  0.00  0.00    +0.000 C 
ATOM     53  O   UNL     1       5.092  -1.455   0.400  0.00  0.00    +0.000 OA
BRANCH  51  54
ATOM     54  C   UNL     1       2.474  -3.907  -0.091  0.00  0.00    +0.000 C 
ATOM     55  H   UNL     1       2.062  -4.079   0.903  0.00  0.00    +0.000 HD
ATOM     56  H   UNL     1       3.152  -4.709  -0.392  0.00  0.00    +0.000 HD
ATOM     57  H   UNL     1       1.664  -3.965  -0.812  0.00  0.00    +0.000 HD
ENDBRANCH  51  54
BRANCH  52  58
ATOM     58  C   UNL     1       5.144  -3.772   1.149  0.00  0.00    +0.000 C 
ATOM     59  F   UNL     1       4.322  -4.839   1.354  0.00  0.00    +0.000 F 
ATOM     60  F   UNL     1       5.616  -3.449   2.388  0.00  0.00    +0.000 F 
ATOM     61  F   UNL     1       6.207  -4.249   0.444  0.00  0.00    +0.000 F 
ENDBRANCH  52  58
ENDBRANCH   2  51
BRANCH   1  62
ATOM     62  O   UNL     1       1.259  -1.379   1.652  0.00  0.00    +0.000 OA
BRANCH  62  63
ATOM     63  C   UNL     1       0.973  -0.858   2.942  0.00  0.00    +0.000 C 
ATOM     64  H   UNL     1      -0.110  -0.742   3.031  0.00  0.00    +0.000 HD
ATOM     65  H   UNL     1       1.303  -1.582   3.691  0.00  0.00    +0.000 HD
ATOM     66  H   UNL     1       1.465   0.100   3.139  0.00  0.00    +0.000 HD
ENDBRANCH  62  63
ENDBRANCH   1  62
TORSDOF 6
