REMARK  Name = 
REMARK  9 active torsions:
REMARK  status: ('A' for Active; 'I' for Inactive)
REMARK    1  A    between atoms: C_1  and  O_2
REMARK    2  A    between atoms: O_2  and  C_3
REMARK    3  A    between atoms: C_4  and  N_5
REMARK    4  A    between atoms: N_5  and  C_6
REMARK    5  A    between atoms: C_7  and  C_9
REMARK    6  A    between atoms: C_9  and  C_10
REMARK    7  A    between atoms: C_10  and  C_11
REMARK    8  A    between atoms: C_11  and  O_13
REMARK    9  A    between atoms: C_17  and  C_18
REMARK                            x       y       z     vdW  Elec       q    Type
REMARK                         _______ _______ _______ _____ _____    ______ ____
ROOT
ATOM      1  C   UNL     1       1.663  -0.458   0.933  0.00  0.00    +0.000 C 
ATOM      2  C   UNL     1       1.531   1.034   0.476  0.00  0.00    +0.000 C 
ATOM      3  C   UNL     1      -0.011   1.524   0.060  0.00  0.00    +0.000 C 
ATOM      4  C   UNL     1      -1.166   1.004   1.190  0.00  0.00    +0.000 C 
ATOM      5  O   UNL     1      -0.361   0.157   1.942  0.00  0.00    +0.000 OA
ATOM      6  C   UNL     1       0.246  -0.953   1.163  0.00  0.00    +0.000 C 
ATOM      7  N   UNL     1      -0.422  -1.303  -0.194  0.00  0.00    +0.000 N 
ATOM      8  C   UNL     1      -0.017  -1.281  -1.629  0.00  0.00    +0.000 A 
ATOM      9  C   UNL     1       1.079  -1.799  -2.366  0.00  0.00    +0.000 A 
ATOM     10  C   UNL     1       1.108  -1.747  -3.786  0.00  0.00    +0.000 A 
ATOM     11  C   UNL     1       0.106  -1.160  -4.532  0.00  0.00    +0.000 A 
ATOM     12  C   UNL     1      -0.963  -0.612  -3.895  0.00  0.00    +0.000 A 
ATOM     13  C   UNL     1      -1.065  -0.706  -2.495  0.00  0.00    +0.000 A 
ATOM     14  C   UNL     1      -2.142  -0.482  -1.694  0.00  0.00    +0.000 A 
ATOM     15  C   UNL     1      -3.412  -0.038  -2.112  0.00  0.00    +0.000 A 
ATOM     16  C   UNL     1      -4.461  -0.632  -1.424  0.00  0.00    +0.000 A 
ATOM     17  C   UNL     1      -4.032  -1.020  -0.099  0.00  0.00    +0.000 A 
ATOM     18  C   UNL     1      -4.663  -0.241   0.915  0.00  0.00    +0.000 A 
ATOM     19  C   UNL     1      -5.956   0.282   1.108  0.00  0.00    +0.000 A 
ATOM     20  C   UNL     1      -6.143   1.159   2.166  0.00  0.00    +0.000 A 
ATOM     21  C   UNL     1      -5.173   1.241   3.166  0.00  0.00    +0.000 A 
ATOM     22  C   UNL     1      -4.003   0.482   3.140  0.00  0.00    +0.000 A 
ATOM     23  C   UNL     1      -3.636   0.215   1.823  0.00  0.00    +0.000 A 
ATOM     24  N   UNL     1      -2.403   0.209   1.163  0.00  0.00    +0.000 N 
ATOM     25  C   UNL     1      -2.685  -0.858   0.385  0.00  0.00    +0.000 A 
ATOM     26  C   UNL     1      -1.731  -1.045  -0.516  0.00  0.00    +0.000 A 
ATOM     27  C   UNL     1      -5.684  -0.187  -2.012  0.00  0.00    +0.000 C 
ATOM     28  O   UNL     1      -6.836  -0.490  -1.896  0.00  0.00    +0.000 OA
ATOM     29  N   UNL     1      -5.272   0.862  -2.854  0.00  0.00    +0.000 N 
ATOM     30  C   UNL     1      -3.864   1.180  -2.792  0.00  0.00    +0.000 C 
ATOM     31  H   UNL     1       2.233  -0.402   1.870  0.00  0.00    +0.000 HD
ATOM     32  H   UNL     1       1.564   1.600   1.418  0.00  0.00    +0.000 HD
ATOM     33  H   UNL     1      -0.017   2.623   0.098  0.00  0.00    +0.000 HD
ATOM     34  H   UNL     1      -0.258   1.304  -0.977  0.00  0.00    +0.000 HD
ATOM     35  H   UNL     1      -1.445   1.903   1.753  0.00  0.00    +0.000 HD
ATOM     36  H   UNL     1       1.878  -2.343  -1.897  0.00  0.00    +0.000 HD
ATOM     37  H   UNL     1       1.937  -2.216  -4.311  0.00  0.00    +0.000 HD
ATOM     38  H   UNL     1       0.118  -1.180  -5.623  0.00  0.00    +0.000 HD
ATOM     39  H   UNL     1      -1.813  -0.229  -4.470  0.00  0.00    +0.000 HD
ATOM     40  H   UNL     1      -6.762   0.096   0.407  0.00  0.00    +0.000 HD
ATOM     41  H   UNL     1      -7.056   1.729   2.227  0.00  0.00    +0.000 HD
ATOM     42  H   UNL     1      -5.388   1.829   4.068  0.00  0.00    +0.000 HD
ATOM     43  H   UNL     1      -4.202  -0.462   3.718  0.00  0.00    +0.000 HD
ATOM     44  H   UNL     1      -5.993   1.454  -3.283  0.00  0.00    +0.000 HD
ATOM     45  H   UNL     1      -3.759   2.043  -2.112  0.00  0.00    +0.000 HD
ATOM     46  H   UNL     1      -3.441   1.415  -3.766  0.00  0.00    +0.000 HD
ENDROOT
BRANCH   6  47
ATOM     47  C   UNL     1       0.249  -1.857   2.428  0.00  0.00    +0.000 C 
ATOM     48  H   UNL     1       0.767  -2.804   2.398  0.00  0.00    +0.000 HD
ATOM     49  H   UNL     1      -0.753  -1.983   2.850  0.00  0.00    +0.000 HD
ATOM     50  H   UNL     1       0.774  -1.289   3.232  0.00  0.00    +0.000 HD
ENDBRANCH   6  47
BRANCH   2  51
ATOM     51  N   UNL     1       2.841   1.456  -0.178  0.00  0.00    +0.000 N 
ATOM     52  C   UNL     1       3.856   1.692   0.790  0.00  0.00    +0.000 C 
ATOM     53  O   UNL     1       3.635   2.329   1.814  0.00  0.00    +0.000 OA
BRANCH  51  54
ATOM     54  C   UNL     1       3.238   0.841  -1.442  0.00  0.00    +0.000 C 
ATOM     55  H   UNL     1       2.397   0.731  -2.116  0.00  0.00    +0.000 HD
ATOM     56  H   UNL     1       3.731  -0.123  -1.287  0.00  0.00    +0.000 HD
ATOM     57  H   UNL     1       4.005   1.475  -1.919  0.00  0.00    +0.000 HD
ENDBRANCH  51  54
BRANCH  52  58
ATOM     58  C   UNL     1       5.236   0.992   0.618  0.00  0.00    +0.000 C 
ATOM     59  H   UNL     1       5.078  -0.081   0.517  0.00  0.00    +0.000 HD
ATOM     60  H   UNL     1       5.748   1.359  -0.268  0.00  0.00    +0.000 HD
BRANCH  58  61
ATOM     61  C   UNL     1       6.103   1.229   1.869  0.00  0.00    +0.000 C 
ATOM     62  H   UNL     1       6.260   2.297   2.026  0.00  0.00    +0.000 HD
ATOM     63  H   UNL     1       5.606   0.806   2.749  0.00  0.00    +0.000 HD
BRANCH  61  64
ATOM     64  C   UNL     1       7.466   0.579   1.786  0.00  0.00    +0.000 C 
ATOM     65  O   UNL     1       7.898  -0.057   0.841  0.00  0.00    +0.000 OA
BRANCH  64  66
ATOM     66  O   UNL     1       8.194   0.776   2.918  0.00  0.00    +0.000 OA
ATOM     67  H   UNL     1       7.725   1.292   3.605  0.00  0.00    +0.000 HD
ENDBRANCH  64  66
ENDBRANCH  61  64
ENDBRANCH  58  61
ENDBRANCH  52  58
ENDBRANCH   2  51
BRANCH   1  68
ATOM     68  O   UNL     1       2.445  -1.318   0.094  0.00  0.00    +0.000 OA
BRANCH  68  69
ATOM     69  C   UNL     1       2.544  -2.680   0.498  0.00  0.00    +0.000 C 
ATOM     70  H   UNL     1       3.196  -2.771   1.366  0.00  0.00    +0.000 HD
ATOM     71  H   UNL     1       2.967  -3.263  -0.324  0.00  0.00    +0.000 HD
ATOM     72  H   UNL     1       1.566  -3.128   0.675  0.00  0.00    +0.000 HD
ENDBRANCH  68  69
ENDBRANCH   1  68
TORSDOF 9
