MODEL 1
REMARK VINA RESULT:   -11.402      0.000      0.000
REMARK INTER + INTRA:         -18.096
REMARK INTER:                 -17.068
REMARK INTRA:                  -1.028
REMARK UNBOUND:                -1.028
REMARK  Name = 
REMARK  9 active torsions:
REMARK  status: ('A' for Active; 'I' for Inactive)
REMARK    1  A    between atoms: N_1  and  C_2
REMARK    2  A    between atoms: C_2  and  C_3
REMARK    3  A    between atoms: C_3  and  C_4
REMARK    4  A    between atoms: C_4  and  N_5
REMARK    5  A    between atoms: C_9  and  C_10
REMARK    6  A    between atoms: N_15  and  C_16
REMARK    7  A    between atoms: C_20  and  O_21
REMARK    8  A    between atoms: O_21  and  C_22
REMARK    9  A    between atoms: C_22  and  C_25
REMARK                            x       y       z     vdW  Elec       q    Type
REMARK                         _______ _______ _______ _____ _____    ______ ____
ROOT
ATOM      1  C   UNL     1      -9.654  -6.746  18.396  0.00  0.00    +0.000 A 
ATOM      2  C   UNL     1     -10.710  -6.461  17.559  0.00  0.00    +0.000 A 
ATOM      3  C   UNL     1     -11.067  -5.138  17.447  0.00  0.00    +0.000 A 
ATOM      4  N   UNL     1     -10.424  -4.136  18.077  0.00  0.00    +0.000 NA
ATOM      5  C   UNL     1      -9.398  -4.488  18.861  0.00  0.00    +0.000 A 
ATOM      6  N   UNL     1      -8.694  -3.459  19.497  0.00  0.00    +0.000 N 
ATOM      7  N   UNL     1      -9.012  -5.757  19.044  0.00  0.00    +0.000 NA
ATOM      8  H   UNL     1     -11.242  -7.226  17.003  0.00  0.00    +0.000 HD
ATOM      9  H   UNL     1     -11.904  -4.837  16.828  0.00  0.00    +0.000 HD
ATOM     10  H   UNL     1      -9.184  -2.593  19.317  0.00  0.00    +0.000 HD
ENDROOT
BRANCH   1  15
ATOM     11  N   UNL     1      -8.865 -11.151  16.752  0.00  0.00    +0.000 N 
ATOM     12  C   UNL     1      -9.326 -10.362  15.732  0.00  0.00    +0.000 A 
ATOM     13  C   UNL     1      -9.508  -9.097  16.232  0.00  0.00    +0.000 A 
ATOM     14  C   UNL     1      -9.162  -9.102  17.621  0.00  0.00    +0.000 A 
ATOM     15  C   UNL     1      -9.178  -8.121  18.658  0.00  0.00    +0.000 A 
ATOM     16  C   UNL     1      -8.716  -8.518  19.933  0.00  0.00    +0.000 A 
ATOM     17  C   UNL     1      -8.290  -9.816  20.192  0.00  0.00    +0.000 A 
ATOM     18  C   UNL     1      -8.301 -10.782  19.191  0.00  0.00    +0.000 A 
ATOM     19  C   UNL     1      -8.738 -10.410  17.913  0.00  0.00    +0.000 A 
ATOM     20  H   UNL     1      -9.493 -10.756  14.739  0.00  0.00    +0.000 HD
ATOM     21  H   UNL     1      -9.861  -8.251  15.657  0.00  0.00    +0.000 HD
ATOM     22  H   UNL     1      -8.672  -7.799  20.745  0.00  0.00    +0.000 HD
ATOM     23  H   UNL     1      -7.944 -10.079  21.189  0.00  0.00    +0.000 HD
ATOM     24  H   UNL     1      -7.973 -11.792  19.412  0.00  0.00    +0.000 HD
BRANCH  11  25
ATOM     25  C   UNL     1      -8.634 -12.582  16.616  0.00  0.00    +0.000 C 
ATOM     26  H   UNL     1      -7.746 -12.853  17.193  0.00  0.00    +0.000 HD
ATOM     27  H   UNL     1      -9.494 -13.071  17.089  0.00  0.00    +0.000 HD
BRANCH  25  28
ATOM     28  C   UNL     1      -8.462 -13.023  15.162  0.00  0.00    +0.000 C 
ATOM     29  H   UNL     1      -9.050 -12.380  14.495  0.00  0.00    +0.000 HD
ATOM     30  H   UNL     1      -7.414 -12.900  14.863  0.00  0.00    +0.000 HD
BRANCH  28  31
ATOM     31  C   UNL     1      -8.875 -14.477  14.954  0.00  0.00    +0.000 C 
ATOM     32  H   UNL     1      -9.888 -14.514  14.539  0.00  0.00    +0.000 HD
ATOM     33  H   UNL     1      -8.205 -14.957  14.233  0.00  0.00    +0.000 HD
BRANCH  31  34
ATOM     34  N   UNL     1      -8.842 -15.220  16.208  0.00  0.00    +0.000 NA
ATOM     35  H   UNL     1      -9.547 -14.850  16.845  0.00  0.00    +0.000 HD
ATOM     36  H   UNL     1      -7.943 -15.084  16.670  0.00  0.00    +0.000 HD
ENDBRANCH  31  34
ENDBRANCH  28  31
ENDBRANCH  25  28
ENDBRANCH  11  25
ENDBRANCH   1  15
BRANCH   6  37
ATOM     37  C   UNL     1      -8.083  -3.512  20.765  0.00  0.00    +0.000 A 
ATOM     38  C   UNL     1      -6.709  -3.752  20.916  0.00  0.00    +0.000 A 
ATOM     39  C   UNL     1      -6.133  -3.865  22.178  0.00  0.00    +0.000 A 
ATOM     40  C   UNL     1      -6.927  -3.734  23.309  0.00  0.00    +0.000 A 
ATOM     41  C   UNL     1      -8.291  -3.459  23.189  0.00  0.00    +0.000 A 
ATOM     42  C   UNL     1      -8.870  -3.362  21.921  0.00  0.00    +0.000 A 
ATOM     43  H   UNL     1      -6.067  -3.872  20.046  0.00  0.00    +0.000 HD
ATOM     44  H   UNL     1      -5.068  -4.060  22.272  0.00  0.00    +0.000 HD
ATOM     45  H   UNL     1      -6.476  -3.835  24.292  0.00  0.00    +0.000 HD
ATOM     46  H   UNL     1      -9.933  -3.159  21.805  0.00  0.00    +0.000 HD
BRANCH  41  47
ATOM     47  O   UNL     1      -8.938  -3.349  24.384  0.00  0.00    +0.000 OA
BRANCH  47  48
ATOM     48  C   UNL     1      -9.331  -2.051  24.833  0.00  0.00    +0.000 C 
ATOM     49  F   UNL     1      -8.518  -1.109  24.285  0.00  0.00    +0.000 F 
ATOM     50  F   UNL     1     -10.596  -1.800  24.414  0.00  0.00    +0.000 F 
BRANCH  48  51
ATOM     51  C   UNL     1      -9.217  -1.997  26.359  0.00  0.00    +0.000 C 
ATOM     52  F   UNL     1      -8.329  -2.913  26.828  0.00  0.00    +0.000 F 
ATOM     53  F   UNL     1      -8.774  -0.783  26.784  0.00  0.00    +0.000 F 
ATOM     54  H   UNL     1     -10.187  -2.185  26.830  0.00  0.00    +0.000 HD
ENDBRANCH  48  51
ENDBRANCH  47  48
ENDBRANCH  41  47
ENDBRANCH   6  37
TORSDOF 9
ENDMDL
MODEL 2
REMARK VINA RESULT:   -10.396      5.421      9.630
REMARK INTER + INTRA:         -16.590
REMARK INTER:                 -16.017
REMARK INTRA:                  -0.573
REMARK UNBOUND:                -1.028
REMARK  Name = 
REMARK  9 active torsions:
REMARK  status: ('A' for Active; 'I' for Inactive)
REMARK    1  A    between atoms: N_1  and  C_2
REMARK    2  A    between atoms: C_2  and  C_3
REMARK    3  A    between atoms: C_3  and  C_4
REMARK    4  A    between atoms: C_4  and  N_5
REMARK    5  A    between atoms: C_9  and  C_10
REMARK    6  A    between atoms: N_15  and  C_16
REMARK    7  A    between atoms: C_20  and  O_21
REMARK    8  A    between atoms: O_21  and  C_22
REMARK    9  A    between atoms: C_22  and  C_25
REMARK                            x       y       z     vdW  Elec       q    Type
REMARK                         _______ _______ _______ _____ _____    ______ ____
ROOT
ATOM      1  C   UNL     1      -9.713  -5.099  17.666  0.00  0.00    +0.000 A 
ATOM      2  C   UNL     1     -10.364  -4.013  17.124  0.00  0.00    +0.000 A 
ATOM      3  C   UNL     1     -11.258  -4.272  16.113  0.00  0.00    +0.000 A 
ATOM      4  N   UNL     1     -11.542  -5.511  15.667  0.00  0.00    +0.000 NA
ATOM      5  C   UNL     1     -10.883  -6.518  16.252  0.00  0.00    +0.000 A 
ATOM      6  N   UNL     1     -11.188  -7.817  15.829  0.00  0.00    +0.000 N 
ATOM      7  N   UNL     1      -9.975  -6.341  17.221  0.00  0.00    +0.000 NA
ATOM      8  H   UNL     1     -10.197  -2.997  17.468  0.00  0.00    +0.000 HD
ATOM      9  H   UNL     1     -11.789  -3.468  15.619  0.00  0.00    +0.000 HD
ATOM     10  H   UNL     1     -11.814  -7.744  15.038  0.00  0.00    +0.000 HD
ENDROOT
BRANCH   1  15
ATOM     11  N   UNL     1      -8.018  -2.705  21.424  0.00  0.00    +0.000 N 
ATOM     12  C   UNL     1      -9.172  -2.109  20.991  0.00  0.00    +0.000 A 
ATOM     13  C   UNL     1      -9.648  -2.843  19.933  0.00  0.00    +0.000 A 
ATOM     14  C   UNL     1      -8.748  -3.930  19.690  0.00  0.00    +0.000 A 
ATOM     15  C   UNL     1      -8.692  -4.983  18.728  0.00  0.00    +0.000 A 
ATOM     16  C   UNL     1      -7.627  -5.906  18.840  0.00  0.00    +0.000 A 
ATOM     17  C   UNL     1      -6.649  -5.788  19.822  0.00  0.00    +0.000 A 
ATOM     18  C   UNL     1      -6.685  -4.745  20.742  0.00  0.00    +0.000 A 
ATOM     19  C   UNL     1      -7.740  -3.826  20.664  0.00  0.00    +0.000 A 
ATOM     20  H   UNL     1      -9.561  -1.215  21.457  0.00  0.00    +0.000 HD
ATOM     21  H   UNL     1     -10.555  -2.619  19.385  0.00  0.00    +0.000 HD
ATOM     22  H   UNL     1      -7.561  -6.747  18.158  0.00  0.00    +0.000 HD
ATOM     23  H   UNL     1      -5.846  -6.520  19.871  0.00  0.00    +0.000 HD
ATOM     24  H   UNL     1      -5.910  -4.664  21.496  0.00  0.00    +0.000 HD
BRANCH  11  25
ATOM     25  C   UNL     1      -7.183  -2.157  22.484  0.00  0.00    +0.000 C 
ATOM     26  H   UNL     1      -6.341  -2.832  22.655  0.00  0.00    +0.000 HD
ATOM     27  H   UNL     1      -6.776  -1.218  22.091  0.00  0.00    +0.000 HD
BRANCH  25  28
ATOM     28  C   UNL     1      -7.946  -1.940  23.791  0.00  0.00    +0.000 C 
ATOM     29  H   UNL     1      -7.293  -1.484  24.545  0.00  0.00    +0.000 HD
ATOM     30  H   UNL     1      -8.766  -1.229  23.624  0.00  0.00    +0.000 HD
BRANCH  28  31
ATOM     31  C   UNL     1      -8.520  -3.243  24.341  0.00  0.00    +0.000 C 
ATOM     32  H   UNL     1      -8.120  -4.087  23.771  0.00  0.00    +0.000 HD
ATOM     33  H   UNL     1      -8.217  -3.374  25.385  0.00  0.00    +0.000 HD
BRANCH  31  34
ATOM     34  N   UNL     1      -9.976  -3.255  24.260  0.00  0.00    +0.000 NA
ATOM     35  H   UNL     1     -10.351  -3.934  24.921  0.00  0.00    +0.000 HD
ATOM     36  H   UNL     1     -10.270  -3.568  23.335  0.00  0.00    +0.000 HD
ENDBRANCH  31  34
ENDBRANCH  28  31
ENDBRANCH  25  28
ENDBRANCH  11  25
ENDBRANCH   1  15
BRANCH   6  37
ATOM     37  C   UNL     1     -10.303  -8.911  15.752  0.00  0.00    +0.000 A 
ATOM     38  C   UNL     1      -9.285  -8.974  14.789  0.00  0.00    +0.000 A 
ATOM     39  C   UNL     1      -8.461 -10.091  14.686  0.00  0.00    +0.000 A 
ATOM     40  C   UNL     1      -8.644 -11.161  15.551  0.00  0.00    +0.000 A 
ATOM     41  C   UNL     1      -9.626 -11.110  16.543  0.00  0.00    +0.000 A 
ATOM     42  C   UNL     1     -10.463  -9.995  16.634  0.00  0.00    +0.000 A 
ATOM     43  H   UNL     1      -9.130  -8.155  14.090  0.00  0.00    +0.000 HD
ATOM     44  H   UNL     1      -7.684 -10.122  13.927  0.00  0.00    +0.000 HD
ATOM     45  H   UNL     1      -8.006 -12.036  15.460  0.00  0.00    +0.000 HD
ATOM     46  H   UNL     1     -11.241  -9.940  17.392  0.00  0.00    +0.000 HD
BRANCH  41  47
ATOM     47  O   UNL     1      -9.681 -12.228  17.321  0.00  0.00    +0.000 OA
BRANCH  47  48
ATOM     48  C   UNL     1      -8.486 -12.672  17.967  0.00  0.00    +0.000 C 
ATOM     49  F   UNL     1      -7.586 -13.084  17.035  0.00  0.00    +0.000 F 
ATOM     50  F   UNL     1      -7.937 -11.636  18.645  0.00  0.00    +0.000 F 
BRANCH  48  51
ATOM     51  C   UNL     1      -8.829 -13.841  18.895  0.00  0.00    +0.000 C 
ATOM     52  F   UNL     1      -9.748 -14.672  18.338  0.00  0.00    +0.000 F 
ATOM     53  F   UNL     1      -7.735 -14.605  19.161  0.00  0.00    +0.000 F 
ATOM     54  H   UNL     1      -9.225 -13.479  19.850  0.00  0.00    +0.000 HD
ENDBRANCH  48  51
ENDBRANCH  47  48
ENDBRANCH  41  47
ENDBRANCH   6  37
TORSDOF 9
ENDMDL
MODEL 3
REMARK VINA RESULT:   -10.285      5.405     10.127
REMARK INTER + INTRA:         -16.424
REMARK INTER:                 -15.753
REMARK INTRA:                  -0.671
REMARK UNBOUND:                -1.028
REMARK  Name = 
REMARK  9 active torsions:
REMARK  status: ('A' for Active; 'I' for Inactive)
REMARK    1  A    between atoms: N_1  and  C_2
REMARK    2  A    between atoms: C_2  and  C_3
REMARK    3  A    between atoms: C_3  and  C_4
REMARK    4  A    between atoms: C_4  and  N_5
REMARK    5  A    between atoms: C_9  and  C_10
REMARK    6  A    between atoms: N_15  and  C_16
REMARK    7  A    between atoms: C_20  and  O_21
REMARK    8  A    between atoms: O_21  and  C_22
REMARK    9  A    between atoms: C_22  and  C_25
REMARK                            x       y       z     vdW  Elec       q    Type
REMARK                         _______ _______ _______ _____ _____    ______ ____
ROOT
ATOM      1  C   UNL     1      -6.779  -3.991  21.375  0.00  0.00    +0.000 A 
ATOM      2  C   UNL     1      -5.427  -3.934  21.629  0.00  0.00    +0.000 A 
ATOM      3  C   UNL     1      -4.603  -4.554  20.721  0.00  0.00    +0.000 A 
ATOM      4  N   UNL     1      -5.047  -5.167  19.607  0.00  0.00    +0.000 NA
ATOM      5  C   UNL     1      -6.372  -5.168  19.418  0.00  0.00    +0.000 A 
ATOM      6  N   UNL     1      -6.853  -5.769  18.249  0.00  0.00    +0.000 N 
ATOM      7  N   UNL     1      -7.239  -4.613  20.275  0.00  0.00    +0.000 NA
ATOM      8  H   UNL     1      -5.013  -3.426  22.495  0.00  0.00    +0.000 HD
ATOM      9  H   UNL     1      -3.529  -4.575  20.866  0.00  0.00    +0.000 HD
ATOM     10  H   UNL     1      -6.070  -6.209  17.784  0.00  0.00    +0.000 HD
ENDROOT
BRANCH   1  15
ATOM     11  N   UNL     1     -10.458  -1.018  21.971  0.00  0.00    +0.000 N 
ATOM     12  C   UNL     1     -10.071  -1.003  20.657  0.00  0.00    +0.000 A 
ATOM     13  C   UNL     1      -9.036  -1.894  20.517  0.00  0.00    +0.000 A 
ATOM     14  C   UNL     1      -8.758  -2.474  21.795  0.00  0.00    +0.000 A 
ATOM     15  C   UNL     1      -7.797  -3.413  22.278  0.00  0.00    +0.000 A 
ATOM     16  C   UNL     1      -7.866  -3.767  23.644  0.00  0.00    +0.000 A 
ATOM     17  C   UNL     1      -8.806  -3.208  24.504  0.00  0.00    +0.000 A 
ATOM     18  C   UNL     1      -9.725  -2.271  24.043  0.00  0.00    +0.000 A 
ATOM     19  C   UNL     1      -9.689  -1.915  22.688  0.00  0.00    +0.000 A 
ATOM     20  H   UNL     1     -10.552  -0.365  19.929  0.00  0.00    +0.000 HD
ATOM     21  H   UNL     1      -8.526  -2.105  19.586  0.00  0.00    +0.000 HD
ATOM     22  H   UNL     1      -7.184  -4.506  24.052  0.00  0.00    +0.000 HD
ATOM     23  H   UNL     1      -8.824  -3.508  25.549  0.00  0.00    +0.000 HD
ATOM     24  H   UNL     1     -10.446  -1.839  24.729  0.00  0.00    +0.000 HD
BRANCH  11  25
ATOM     25  C   UNL     1     -11.481  -0.136  22.514  0.00  0.00    +0.000 C 
ATOM     26  H   UNL     1     -12.374  -0.725  22.737  0.00  0.00    +0.000 HD
ATOM     27  H   UNL     1     -11.084   0.232  23.468  0.00  0.00    +0.000 HD
BRANCH  25  28
ATOM     28  C   UNL     1     -11.840   1.013  21.571  0.00  0.00    +0.000 C 
ATOM     29  H   UNL     1     -11.415   1.956  21.935  0.00  0.00    +0.000 HD
ATOM     30  H   UNL     1     -11.391   0.834  20.586  0.00  0.00    +0.000 HD
BRANCH  28  31
ATOM     31  C   UNL     1     -13.350   1.169  21.410  0.00  0.00    +0.000 C 
ATOM     32  H   UNL     1     -13.664   2.130  21.830  0.00  0.00    +0.000 HD
ATOM     33  H   UNL     1     -13.616   1.169  20.348  0.00  0.00    +0.000 HD
BRANCH  31  34
ATOM     34  N   UNL     1     -14.067   0.092  22.083  0.00  0.00    +0.000 NA
ATOM     35  H   UNL     1     -13.459  -0.345  22.775  0.00  0.00    +0.000 HD
ATOM     36  H   UNL     1     -14.306  -0.638  21.413  0.00  0.00    +0.000 HD
ENDBRANCH  31  34
ENDBRANCH  28  31
ENDBRANCH  25  28
ENDBRANCH  11  25
ENDBRANCH   1  15
BRANCH   6  37
ATOM     37  C   UNL     1      -8.068  -6.465  18.095  0.00  0.00    +0.000 A 
ATOM     38  C   UNL     1      -9.170  -6.227  18.930  0.00  0.00    +0.000 A 
ATOM     39  C   UNL     1     -10.341  -6.968  18.806  0.00  0.00    +0.000 A 
ATOM     40  C   UNL     1     -10.425  -7.960  17.838  0.00  0.00    +0.000 A 
ATOM     41  C   UNL     1      -9.357  -8.195  16.969  0.00  0.00    +0.000 A 
ATOM     42  C   UNL     1      -8.177  -7.460  17.106  0.00  0.00    +0.000 A 
ATOM     43  H   UNL     1      -9.125  -5.465  19.705  0.00  0.00    +0.000 HD
ATOM     44  H   UNL     1     -11.179  -6.773  19.469  0.00  0.00    +0.000 HD
ATOM     45  H   UNL     1     -11.337  -8.545  17.752  0.00  0.00    +0.000 HD
ATOM     46  H   UNL     1      -7.329  -7.634  16.448  0.00  0.00    +0.000 HD
BRANCH  41  47
ATOM     47  O   UNL     1      -9.590  -9.191  16.067  0.00  0.00    +0.000 OA
BRANCH  47  48
ATOM     48  C   UNL     1      -9.304 -10.538  16.447  0.00  0.00    +0.000 C 
ATOM     49  F   UNL     1      -8.351 -10.550  17.418  0.00  0.00    +0.000 F 
ATOM     50  F   UNL     1     -10.424 -11.102  16.960  0.00  0.00    +0.000 F 
BRANCH  48  51
ATOM     51  C   UNL     1      -8.792 -11.301  15.222  0.00  0.00    +0.000 C 
ATOM     52  F   UNL     1      -8.236 -10.466  14.306  0.00  0.00    +0.000 F 
ATOM     53  F   UNL     1      -7.825 -12.197  15.559  0.00  0.00    +0.000 F 
ATOM     54  H   UNL     1      -9.606 -11.852  14.737  0.00  0.00    +0.000 HD
ENDBRANCH  48  51
ENDBRANCH  47  48
ENDBRANCH  41  47
ENDBRANCH   6  37
TORSDOF 9
ENDMDL
MODEL 4
REMARK VINA RESULT:   -10.047      2.067      2.992
REMARK INTER + INTRA:         -16.068
REMARK INTER:                 -15.071
REMARK INTRA:                  -0.997
REMARK UNBOUND:                -1.028
REMARK  Name = 
REMARK  9 active torsions:
REMARK  status: ('A' for Active; 'I' for Inactive)
REMARK    1  A    between atoms: N_1  and  C_2
REMARK    2  A    between atoms: C_2  and  C_3
REMARK    3  A    between atoms: C_3  and  C_4
REMARK    4  A    between atoms: C_4  and  N_5
REMARK    5  A    between atoms: C_9  and  C_10
REMARK    6  A    between atoms: N_15  and  C_16
REMARK    7  A    between atoms: C_20  and  O_21
REMARK    8  A    between atoms: O_21  and  C_22
REMARK    9  A    between atoms: C_22  and  C_25
REMARK                            x       y       z     vdW  Elec       q    Type
REMARK                         _______ _______ _______ _____ _____    ______ ____
ROOT
ATOM      1  C   UNL     1     -10.321  -6.116  17.342  0.00  0.00    +0.000 A 
ATOM      2  C   UNL     1     -11.032  -6.145  16.164  0.00  0.00    +0.000 A 
ATOM      3  C   UNL     1     -11.533  -4.946  15.716  0.00  0.00    +0.000 A 
ATOM      4  N   UNL     1     -11.334  -3.772  16.347  0.00  0.00    +0.000 NA
ATOM      5  C   UNL     1     -10.620  -3.820  17.478  0.00  0.00    +0.000 A 
ATOM      6  N   UNL     1     -10.370  -2.607  18.131  0.00  0.00    +0.000 N 
ATOM      7  N   UNL     1     -10.126  -4.954  17.992  0.00  0.00    +0.000 NA
ATOM      8  H   UNL     1     -11.196  -7.057  15.599  0.00  0.00    +0.000 HD
ATOM      9  H   UNL     1     -12.126  -4.891  14.811  0.00  0.00    +0.000 HD
ATOM     10  H   UNL     1     -10.895  -1.886  17.653  0.00  0.00    +0.000 HD
ENDROOT
BRANCH   1  15
ATOM     11  N   UNL     1      -9.100 -10.708  16.957  0.00  0.00    +0.000 N 
ATOM     12  C   UNL     1      -9.560 -10.259  15.748  0.00  0.00    +0.000 A 
ATOM     13  C   UNL     1      -9.868  -8.928  15.887  0.00  0.00    +0.000 A 
ATOM     14  C   UNL     1      -9.604  -8.539  17.239  0.00  0.00    +0.000 A 
ATOM     15  C   UNL     1      -9.757  -7.326  17.977  0.00  0.00    +0.000 A 
ATOM     16  C   UNL     1      -9.343  -7.333  19.328  0.00  0.00    +0.000 A 
ATOM     17  C   UNL     1      -8.834  -8.475  19.938  0.00  0.00    +0.000 A 
ATOM     18  C   UNL     1      -8.712  -9.666  19.230  0.00  0.00    +0.000 A 
ATOM     19  C   UNL     1      -9.100  -9.682  17.883  0.00  0.00    +0.000 A 
ATOM     20  H   UNL     1      -9.637 -10.911  14.890  0.00  0.00    +0.000 HD
ATOM     21  H   UNL     1     -10.249  -8.297  15.095  0.00  0.00    +0.000 HD
ATOM     22  H   UNL     1      -9.401  -6.426  19.921  0.00  0.00    +0.000 HD
ATOM     23  H   UNL     1      -8.528  -8.436  20.981  0.00  0.00    +0.000 HD
ATOM     24  H   UNL     1      -8.320 -10.549  19.723  0.00  0.00    +0.000 HD
BRANCH  11  25
ATOM     25  C   UNL     1      -8.753 -12.098  17.214  0.00  0.00    +0.000 C 
ATOM     26  H   UNL     1      -7.927 -12.129  17.930  0.00  0.00    +0.000 HD
ATOM     27  H   UNL     1      -9.628 -12.542  17.704  0.00  0.00    +0.000 HD
BRANCH  25  28
ATOM     28  C   UNL     1      -8.368 -12.861  15.946  0.00  0.00    +0.000 C 
ATOM     29  H   UNL     1      -8.863 -12.425  15.071  0.00  0.00    +0.000 HD
ATOM     30  H   UNL     1      -7.289 -12.762  15.771  0.00  0.00    +0.000 HD
BRANCH  28  31
ATOM     31  C   UNL     1      -8.724 -14.342  16.041  0.00  0.00    +0.000 C 
ATOM     32  H   UNL     1      -7.868 -14.900  16.434  0.00  0.00    +0.000 HD
ATOM     33  H   UNL     1      -9.558 -14.484  16.736  0.00  0.00    +0.000 HD
BRANCH  31  34
ATOM     34  N   UNL     1      -9.091 -14.882  14.737  0.00  0.00    +0.000 NA
ATOM     35  H   UNL     1     -10.100 -15.012  14.690  0.00  0.00    +0.000 HD
ATOM     36  H   UNL     1      -8.679 -15.807  14.615  0.00  0.00    +0.000 HD
ENDBRANCH  31  34
ENDBRANCH  28  31
ENDBRANCH  25  28
ENDBRANCH  11  25
ENDBRANCH   1  15
BRANCH   6  37
ATOM     37  C   UNL     1     -10.261  -2.402  19.520  0.00  0.00    +0.000 A 
ATOM     38  C   UNL     1     -11.354  -1.988  20.297  0.00  0.00    +0.000 A 
ATOM     39  C   UNL     1     -11.214  -1.729  21.656  0.00  0.00    +0.000 A 
ATOM     40  C   UNL     1      -9.973  -1.883  22.260  0.00  0.00    +0.000 A 
ATOM     41  C   UNL     1      -8.875  -2.328  21.519  0.00  0.00    +0.000 A 
ATOM     42  C   UNL     1      -9.015  -2.573  20.151  0.00  0.00    +0.000 A 
ATOM     43  H   UNL     1     -12.333  -1.847  19.845  0.00  0.00    +0.000 HD
ATOM     44  H   UNL     1     -12.071  -1.401  22.237  0.00  0.00    +0.000 HD
ATOM     45  H   UNL     1      -9.864  -1.668  23.319  0.00  0.00    +0.000 HD
ATOM     46  H   UNL     1      -8.170  -2.909  19.553  0.00  0.00    +0.000 HD
BRANCH  41  47
ATOM     47  O   UNL     1      -7.728  -2.441  22.248  0.00  0.00    +0.000 OA
BRANCH  47  48
ATOM     48  C   UNL     1      -7.230  -3.747  22.543  0.00  0.00    +0.000 C 
ATOM     49  F   UNL     1      -7.046  -3.876  23.884  0.00  0.00    +0.000 F 
ATOM     50  F   UNL     1      -8.146  -4.669  22.160  0.00  0.00    +0.000 F 
BRANCH  48  51
ATOM     51  C   UNL     1      -5.892  -3.942  21.824  0.00  0.00    +0.000 C 
ATOM     52  F   UNL     1      -6.068  -4.316  20.530  0.00  0.00    +0.000 F 
ATOM     53  F   UNL     1      -5.169  -2.789  21.794  0.00  0.00    +0.000 F 
ATOM     54  H   UNL     1      -5.287  -4.705  22.325  0.00  0.00    +0.000 HD
ENDBRANCH  48  51
ENDBRANCH  47  48
ENDBRANCH  41  47
ENDBRANCH   6  37
TORSDOF 9
ENDMDL
MODEL 5
REMARK VINA RESULT:   -10.002      5.645      9.667
REMARK INTER + INTRA:         -16.000
REMARK INTER:                 -15.436
REMARK INTRA:                  -0.564
REMARK UNBOUND:                -1.028
REMARK  Name = 
REMARK  9 active torsions:
REMARK  status: ('A' for Active; 'I' for Inactive)
REMARK    1  A    between atoms: N_1  and  C_2
REMARK    2  A    between atoms: C_2  and  C_3
REMARK    3  A    between atoms: C_3  and  C_4
REMARK    4  A    between atoms: C_4  and  N_5
REMARK    5  A    between atoms: C_9  and  C_10
REMARK    6  A    between atoms: N_15  and  C_16
REMARK    7  A    between atoms: C_20  and  O_21
REMARK    8  A    between atoms: O_21  and  C_22
REMARK    9  A    between atoms: C_22  and  C_25
REMARK                            x       y       z     vdW  Elec       q    Type
REMARK                         _______ _______ _______ _____ _____    ______ ____
ROOT
ATOM      1  C   UNL     1     -10.740  -3.639  17.267  0.00  0.00    +0.000 A 
ATOM      2  C   UNL     1     -11.040  -2.942  16.119  0.00  0.00    +0.000 A 
ATOM      3  C   UNL     1     -11.394  -3.687  15.020  0.00  0.00    +0.000 A 
ATOM      4  N   UNL     1     -11.492  -5.031  15.030  0.00  0.00    +0.000 NA
ATOM      5  C   UNL     1     -11.201  -5.639  16.186  0.00  0.00    +0.000 A 
ATOM      6  N   UNL     1     -11.330  -7.032  16.228  0.00  0.00    +0.000 N 
ATOM      7  N   UNL     1     -10.818  -4.982  17.288  0.00  0.00    +0.000 NA
ATOM      8  H   UNL     1     -11.008  -1.858  16.065  0.00  0.00    +0.000 HD
ATOM      9  H   UNL     1     -11.619  -3.213  14.072  0.00  0.00    +0.000 HD
ATOM     10  H   UNL     1     -11.532  -7.352  15.290  0.00  0.00    +0.000 HD
ENDROOT
BRANCH   1  15
ATOM     11  N   UNL     1      -7.835  -3.652  21.048  0.00  0.00    +0.000 N 
ATOM     12  C   UNL     1      -7.525  -4.709  20.234  0.00  0.00    +0.000 A 
ATOM     13  C   UNL     1      -8.355  -4.653  19.142  0.00  0.00    +0.000 A 
ATOM     14  C   UNL     1      -9.226  -3.527  19.290  0.00  0.00    +0.000 A 
ATOM     15  C   UNL     1     -10.299  -2.987  18.518  0.00  0.00    +0.000 A 
ATOM     16  C   UNL     1     -10.912  -1.806  18.997  0.00  0.00    +0.000 A 
ATOM     17  C   UNL     1     -10.518  -1.201  20.186  0.00  0.00    +0.000 A 
ATOM     18  C   UNL     1      -9.493  -1.742  20.955  0.00  0.00    +0.000 A 
ATOM     19  C   UNL     1      -8.857  -2.903  20.494  0.00  0.00    +0.000 A 
ATOM     20  H   UNL     1      -6.749  -5.416  20.490  0.00  0.00    +0.000 HD
ATOM     21  H   UNL     1      -8.341  -5.356  18.319  0.00  0.00    +0.000 HD
ATOM     22  H   UNL     1     -11.706  -1.334  18.427  0.00  0.00    +0.000 HD
ATOM     23  H   UNL     1     -11.017  -0.294  20.518  0.00  0.00    +0.000 HD
ATOM     24  H   UNL     1      -9.203  -1.262  21.884  0.00  0.00    +0.000 HD
BRANCH  11  25
ATOM     25  C   UNL     1      -7.214  -3.432  22.345  0.00  0.00    +0.000 C 
ATOM     26  H   UNL     1      -6.212  -3.870  22.337  0.00  0.00    +0.000 HD
ATOM     27  H   UNL     1      -7.095  -2.345  22.441  0.00  0.00    +0.000 HD
BRANCH  25  28
ATOM     28  C   UNL     1      -8.025  -4.016  23.502  0.00  0.00    +0.000 C 
ATOM     29  H   UNL     1      -8.738  -4.763  23.132  0.00  0.00    +0.000 HD
ATOM     30  H   UNL     1      -7.355  -4.545  24.191  0.00  0.00    +0.000 HD
BRANCH  28  31
ATOM     31  C   UNL     1      -8.781  -2.936  24.272  0.00  0.00    +0.000 C 
ATOM     32  H   UNL     1      -8.470  -2.950  25.321  0.00  0.00    +0.000 HD
ATOM     33  H   UNL     1      -8.538  -1.948  23.867  0.00  0.00    +0.000 HD
BRANCH  31  34
ATOM     34  N   UNL     1     -10.222  -3.144  24.196  0.00  0.00    +0.000 NA
ATOM     35  H   UNL     1     -10.638  -2.449  23.577  0.00  0.00    +0.000 HD
ATOM     36  H   UNL     1     -10.644  -2.997  25.112  0.00  0.00    +0.000 HD
ENDBRANCH  31  34
ENDBRANCH  28  31
ENDBRANCH  25  28
ENDBRANCH  11  25
ENDBRANCH   1  15
BRANCH   6  37
ATOM     37  C   UNL     1     -10.544  -7.931  16.976  0.00  0.00    +0.000 A 
ATOM     38  C   UNL     1      -9.882  -7.538  18.150  0.00  0.00    +0.000 A 
ATOM     39  C   UNL     1      -9.058  -8.421  18.841  0.00  0.00    +0.000 A 
ATOM     40  C   UNL     1      -8.888  -9.715  18.367  0.00  0.00    +0.000 A 
ATOM     41  C   UNL     1      -9.563 -10.144  17.222  0.00  0.00    +0.000 A 
ATOM     42  C   UNL     1     -10.377  -9.251  16.520  0.00  0.00    +0.000 A 
ATOM     43  H   UNL     1      -9.988  -6.526  18.534  0.00  0.00    +0.000 HD
ATOM     44  H   UNL     1      -8.549  -8.093  19.743  0.00  0.00    +0.000 HD
ATOM     45  H   UNL     1      -8.235 -10.397  18.903  0.00  0.00    +0.000 HD
ATOM     46  H   UNL     1     -10.902  -9.562  15.620  0.00  0.00    +0.000 HD
BRANCH  41  47
ATOM     47  O   UNL     1      -9.305 -11.440  16.884  0.00  0.00    +0.000 OA
BRANCH  47  48
ATOM     48  C   UNL     1      -8.818 -11.721  15.570  0.00  0.00    +0.000 C 
ATOM     49  F   UNL     1      -9.785 -11.448  14.654  0.00  0.00    +0.000 F 
ATOM     50  F   UNL     1      -7.760 -10.916  15.307  0.00  0.00    +0.000 F 
BRANCH  48  51
ATOM     51  C   UNL     1      -8.441 -13.202  15.487  0.00  0.00    +0.000 C 
ATOM     52  F   UNL     1      -8.531 -13.812  16.698  0.00  0.00    +0.000 F 
ATOM     53  F   UNL     1      -9.272 -13.883  14.652  0.00  0.00    +0.000 F 
ATOM     54  H   UNL     1      -7.418 -13.325  15.115  0.00  0.00    +0.000 HD
ENDBRANCH  48  51
ENDBRANCH  47  48
ENDBRANCH  41  47
ENDBRANCH   6  37
TORSDOF 9
ENDMDL
MODEL 6
REMARK VINA RESULT:    -9.991      5.999     10.287
REMARK INTER + INTRA:         -15.983
REMARK INTER:                 -15.511
REMARK INTRA:                  -0.472
REMARK UNBOUND:                -1.028
REMARK  Name = 
REMARK  9 active torsions:
REMARK  status: ('A' for Active; 'I' for Inactive)
REMARK    1  A    between atoms: N_1  and  C_2
REMARK    2  A    between atoms: C_2  and  C_3
REMARK    3  A    between atoms: C_3  and  C_4
REMARK    4  A    between atoms: C_4  and  N_5
REMARK    5  A    between atoms: C_9  and  C_10
REMARK    6  A    between atoms: N_15  and  C_16
REMARK    7  A    between atoms: C_20  and  O_21
REMARK    8  A    between atoms: O_21  and  C_22
REMARK    9  A    between atoms: C_22  and  C_25
REMARK                            x       y       z     vdW  Elec       q    Type
REMARK                         _______ _______ _______ _____ _____    ______ ____
ROOT
ATOM      1  C   UNL     1      -9.971  -4.845  17.717  0.00  0.00    +0.000 A 
ATOM      2  C   UNL     1     -10.350  -4.097  16.626  0.00  0.00    +0.000 A 
ATOM      3  C   UNL     1     -10.874  -4.785  15.558  0.00  0.00    +0.000 A 
ATOM      4  N   UNL     1     -11.060  -6.119  15.549  0.00  0.00    +0.000 NA
ATOM      5  C   UNL     1     -10.684  -6.779  16.651  0.00  0.00    +0.000 A 
ATOM      6  N   UNL     1     -10.901  -8.161  16.678  0.00  0.00    +0.000 N 
ATOM      7  N   UNL     1     -10.137  -6.181  17.718  0.00  0.00    +0.000 NA
ATOM      8  H   UNL     1     -10.251  -3.016  16.592  0.00  0.00    +0.000 HD
ATOM      9  H   UNL     1     -11.171  -4.269  14.653  0.00  0.00    +0.000 HD
ATOM     10  H   UNL     1     -11.228  -8.440  15.762  0.00  0.00    +0.000 HD
ENDROOT
BRANCH   1  15
ATOM     11  N   UNL     1     -10.007  -1.444  21.058  0.00  0.00    +0.000 N 
ATOM     12  C   UNL     1     -11.091  -1.284  20.236  0.00  0.00    +0.000 A 
ATOM     13  C   UNL     1     -11.067  -2.298  19.311  0.00  0.00    +0.000 A 
ATOM     14  C   UNL     1      -9.915  -3.112  19.558  0.00  0.00    +0.000 A 
ATOM     15  C   UNL     1      -9.350  -4.260  18.924  0.00  0.00    +0.000 A 
ATOM     16  C   UNL     1      -8.184  -4.810  19.502  0.00  0.00    +0.000 A 
ATOM     17  C   UNL     1      -7.581  -4.250  20.623  0.00  0.00    +0.000 A 
ATOM     18  C   UNL     1      -8.113  -3.114  21.225  0.00  0.00    +0.000 A 
ATOM     19  C   UNL     1      -9.279  -2.557  20.681  0.00  0.00    +0.000 A 
ATOM     20  H   UNL     1     -11.788  -0.468  20.366  0.00  0.00    +0.000 HD
ATOM     21  H   UNL     1     -11.803  -2.439  18.531  0.00  0.00    +0.000 HD
ATOM     22  H   UNL     1      -7.738  -5.706  19.083  0.00  0.00    +0.000 HD
ATOM     23  H   UNL     1      -6.684  -4.705  21.036  0.00  0.00    +0.000 HD
ATOM     24  H   UNL     1      -7.625  -2.684  22.094  0.00  0.00    +0.000 HD
BRANCH  11  25
ATOM     25  C   UNL     1      -9.657  -0.504  22.113  0.00  0.00    +0.000 C 
ATOM     26  H   UNL     1      -8.610  -0.656  22.388  0.00  0.00    +0.000 HD
ATOM     27  H   UNL     1      -9.738   0.494  21.666  0.00  0.00    +0.000 HD
BRANCH  25  28
ATOM     28  C   UNL     1     -10.543  -0.642  23.352  0.00  0.00    +0.000 C 
ATOM     29  H   UNL     1     -10.397   0.212  24.024  0.00  0.00    +0.000 HD
ATOM     30  H   UNL     1     -11.598  -0.621  23.053  0.00  0.00    +0.000 HD
BRANCH  28  31
ATOM     31  C   UNL     1     -10.265  -1.936  24.112  0.00  0.00    +0.000 C 
ATOM     32  H   UNL     1      -9.349  -2.396  23.726  0.00  0.00    +0.000 HD
ATOM     33  H   UNL     1     -10.104  -1.720  25.173  0.00  0.00    +0.000 HD
BRANCH  31  34
ATOM     34  N   UNL     1     -11.370  -2.877  23.975  0.00  0.00    +0.000 NA
ATOM     35  H   UNL     1     -11.376  -3.517  24.768  0.00  0.00    +0.000 HD
ATOM     36  H   UNL     1     -11.235  -3.454  23.145  0.00  0.00    +0.000 HD
ENDBRANCH  31  34
ENDBRANCH  28  31
ENDBRANCH  25  28
ENDBRANCH  11  25
ENDBRANCH   1  15
BRANCH   6  37
ATOM     37  C   UNL     1     -10.099  -9.131  17.312  0.00  0.00    +0.000 A 
ATOM     38  C   UNL     1      -9.333  -8.831  18.449  0.00  0.00    +0.000 A 
ATOM     39  C   UNL     1      -8.496  -9.782  19.024  0.00  0.00    +0.000 A 
ATOM     40  C   UNL     1      -8.419 -11.052  18.469  0.00  0.00    +0.000 A 
ATOM     41  C   UNL     1      -9.197 -11.390  17.360  0.00  0.00    +0.000 A 
ATOM     42  C   UNL     1     -10.024 -10.428  16.774  0.00  0.00    +0.000 A 
ATOM     43  H   UNL     1      -9.365  -7.839  18.895  0.00  0.00    +0.000 HD
ATOM     44  H   UNL     1      -7.906  -9.526  19.899  0.00  0.00    +0.000 HD
ATOM     45  H   UNL     1      -7.755 -11.789  18.915  0.00  0.00    +0.000 HD
ATOM     46  H   UNL     1     -10.629 -10.667  15.903  0.00  0.00    +0.000 HD
BRANCH  41  47
ATOM     47  O   UNL     1      -9.021 -12.673  16.933  0.00  0.00    +0.000 OA
BRANCH  47  48
ATOM     48  C   UNL     1      -8.574 -12.894  15.594  0.00  0.00    +0.000 C 
ATOM     49  F   UNL     1      -9.456 -12.341  14.719  0.00  0.00    +0.000 F 
ATOM     50  F   UNL     1      -7.377 -12.283  15.418  0.00  0.00    +0.000 F 
BRANCH  48  51
ATOM     51  C   UNL     1      -8.485 -14.402  15.343  0.00  0.00    +0.000 C 
ATOM     52  F   UNL     1      -8.832 -15.116  16.446  0.00  0.00    +0.000 F 
ATOM     53  F   UNL     1      -9.331 -14.794  14.352  0.00  0.00    +0.000 F 
ATOM     54  H   UNL     1      -7.470 -14.690  15.051  0.00  0.00    +0.000 HD
ENDBRANCH  48  51
ENDBRANCH  47  48
ENDBRANCH  41  47
ENDBRANCH   6  37
TORSDOF 9
ENDMDL
MODEL 7
REMARK VINA RESULT:    -9.666      2.602      4.467
REMARK INTER + INTRA:         -15.497
REMARK INTER:                 -14.295
REMARK INTRA:                  -1.202
REMARK UNBOUND:                -1.028
REMARK  Name = 
REMARK  9 active torsions:
REMARK  status: ('A' for Active; 'I' for Inactive)
REMARK    1  A    between atoms: N_1  and  C_2
REMARK    2  A    between atoms: C_2  and  C_3
REMARK    3  A    between atoms: C_3  and  C_4
REMARK    4  A    between atoms: C_4  and  N_5
REMARK    5  A    between atoms: C_9  and  C_10
REMARK    6  A    between atoms: N_15  and  C_16
REMARK    7  A    between atoms: C_20  and  O_21
REMARK    8  A    between atoms: O_21  and  C_22
REMARK    9  A    between atoms: C_22  and  C_25
REMARK                            x       y       z     vdW  Elec       q    Type
REMARK                         _______ _______ _______ _____ _____    ______ ____
ROOT
ATOM      1  C   UNL     1      -7.421  -4.853  19.982  0.00  0.00    +0.000 A 
ATOM      2  C   UNL     1      -6.101  -5.114  19.690  0.00  0.00    +0.000 A 
ATOM      3  C   UNL     1      -5.171  -4.685  20.606  0.00  0.00    +0.000 A 
ATOM      4  N   UNL     1      -5.490  -4.068  21.760  0.00  0.00    +0.000 NA
ATOM      5  C   UNL     1      -6.793  -3.863  21.983  0.00  0.00    +0.000 A 
ATOM      6  N   UNL     1      -7.150  -3.255  23.193  0.00  0.00    +0.000 N 
ATOM      7  N   UNL     1      -7.754  -4.225  21.124  0.00  0.00    +0.000 NA
ATOM      8  H   UNL     1      -5.791  -5.636  18.790  0.00  0.00    +0.000 HD
ATOM      9  H   UNL     1      -4.110  -4.830  20.435  0.00  0.00    +0.000 HD
ATOM     10  H   UNL     1      -6.297  -2.972  23.659  0.00  0.00    +0.000 HD
ENDROOT
BRANCH   1  15
ATOM     11  N   UNL     1      -9.845  -8.246  17.670  0.00  0.00    +0.000 N 
ATOM     12  C   UNL     1      -8.863  -8.827  18.428  0.00  0.00    +0.000 A 
ATOM     13  C   UNL     1      -8.211  -7.826  19.104  0.00  0.00    +0.000 A 
ATOM     14  C   UNL     1      -8.799  -6.572  18.741  0.00  0.00    +0.000 A 
ATOM     15  C   UNL     1      -8.535  -5.211  19.079  0.00  0.00    +0.000 A 
ATOM     16  C   UNL     1      -9.384  -4.228  18.521  0.00  0.00    +0.000 A 
ATOM     17  C   UNL     1     -10.419  -4.556  17.650  0.00  0.00    +0.000 A 
ATOM     18  C   UNL     1     -10.660  -5.879  17.297  0.00  0.00    +0.000 A 
ATOM     19  C   UNL     1      -9.843  -6.875  17.850  0.00  0.00    +0.000 A 
ATOM     20  H   UNL     1      -8.701  -9.895  18.427  0.00  0.00    +0.000 HD
ATOM     21  H   UNL     1      -7.388  -7.979  19.790  0.00  0.00    +0.000 HD
ATOM     22  H   UNL     1      -9.250  -3.182  18.777  0.00  0.00    +0.000 HD
ATOM     23  H   UNL     1     -11.048  -3.768  17.243  0.00  0.00    +0.000 HD
ATOM     24  H   UNL     1     -11.466  -6.117  16.611  0.00  0.00    +0.000 HD
BRANCH  11  25
ATOM     25  C   UNL     1     -10.693  -8.991  16.751  0.00  0.00    +0.000 C 
ATOM     26  H   UNL     1     -11.582  -9.331  17.288  0.00  0.00    +0.000 HD
ATOM     27  H   UNL     1     -11.023  -8.269  15.994  0.00  0.00    +0.000 HD
BRANCH  25  28
ATOM     28  C   UNL     1      -9.980 -10.187  16.118  0.00  0.00    +0.000 C 
ATOM     29  H   UNL     1      -8.988 -10.323  16.565  0.00  0.00    +0.000 HD
ATOM     30  H   UNL     1     -10.543 -11.104  16.332  0.00  0.00    +0.000 HD
BRANCH  28  31
ATOM     31  C   UNL     1      -9.835 -10.030  14.607  0.00  0.00    +0.000 C 
ATOM     32  H   UNL     1      -9.465 -10.967  14.177  0.00  0.00    +0.000 HD
ATOM     33  H   UNL     1     -10.810  -9.821  14.156  0.00  0.00    +0.000 HD
BRANCH  31  34
ATOM     34  N   UNL     1      -8.911  -8.952  14.274  0.00  0.00    +0.000 NA
ATOM     35  H   UNL     1      -9.436  -8.119  14.011  0.00  0.00    +0.000 HD
ATOM     36  H   UNL     1      -8.357  -9.208  13.457  0.00  0.00    +0.000 HD
ENDBRANCH  31  34
ENDBRANCH  28  31
ENDBRANCH  25  28
ENDBRANCH  11  25
ENDBRANCH   1  15
BRANCH   6  37
ATOM     37  C   UNL     1      -8.232  -2.381  23.413  0.00  0.00    +0.000 A 
ATOM     38  C   UNL     1      -9.552  -2.846  23.517  0.00  0.00    +0.000 A 
ATOM     39  C   UNL     1     -10.616  -1.963  23.670  0.00  0.00    +0.000 A 
ATOM     40  C   UNL     1     -10.372  -0.598  23.724  0.00  0.00    +0.000 A 
ATOM     41  C   UNL     1      -9.066  -0.108  23.660  0.00  0.00    +0.000 A 
ATOM     42  C   UNL     1      -8.000  -0.996  23.490  0.00  0.00    +0.000 A 
ATOM     43  H   UNL     1      -9.771  -3.910  23.463  0.00  0.00    +0.000 HD
ATOM     44  H   UNL     1     -11.631  -2.345  23.739  0.00  0.00    +0.000 HD
ATOM     45  H   UNL     1     -11.207   0.089  23.832  0.00  0.00    +0.000 HD
ATOM     46  H   UNL     1      -6.976  -0.635  23.426  0.00  0.00    +0.000 HD
BRANCH  41  47
ATOM     47  O   UNL     1      -8.983   1.251  23.736  0.00  0.00    +0.000 OA
BRANCH  47  48
ATOM     48  C   UNL     1      -8.616   1.846  24.982  0.00  0.00    +0.000 C 
ATOM     49  F   UNL     1      -8.579   0.894  25.952  0.00  0.00    +0.000 F 
ATOM     50  F   UNL     1      -7.374   2.376  24.873  0.00  0.00    +0.000 F 
BRANCH  48  51
ATOM     51  C   UNL     1      -9.657   2.907  25.349  0.00  0.00    +0.000 C 
ATOM     52  F   UNL     1     -10.752   2.836  24.549  0.00  0.00    +0.000 F 
ATOM     53  F   UNL     1     -10.104   2.748  26.624  0.00  0.00    +0.000 F 
ATOM     54  H   UNL     1      -9.234   3.915  25.266  0.00  0.00    +0.000 HD
ENDBRANCH  48  51
ENDBRANCH  47  48
ENDBRANCH  41  47
ENDBRANCH   6  37
TORSDOF 9
ENDMDL
MODEL 8
REMARK VINA RESULT:    -9.661      3.433      4.930
REMARK INTER + INTRA:         -15.489
REMARK INTER:                 -13.667
REMARK INTRA:                  -1.822
REMARK UNBOUND:                -1.028
REMARK  Name = 
REMARK  9 active torsions:
REMARK  status: ('A' for Active; 'I' for Inactive)
REMARK    1  A    between atoms: N_1  and  C_2
REMARK    2  A    between atoms: C_2  and  C_3
REMARK    3  A    between atoms: C_3  and  C_4
REMARK    4  A    between atoms: C_4  and  N_5
REMARK    5  A    between atoms: C_9  and  C_10
REMARK    6  A    between atoms: N_15  and  C_16
REMARK    7  A    between atoms: C_20  and  O_21
REMARK    8  A    between atoms: O_21  and  C_22
REMARK    9  A    between atoms: C_22  and  C_25
REMARK                            x       y       z     vdW  Elec       q    Type
REMARK                         _______ _______ _______ _____ _____    ______ ____
ROOT
ATOM      1  C   UNL     1      -6.813  -6.120  19.891  0.00  0.00    +0.000 A 
ATOM      2  C   UNL     1      -5.458  -6.092  19.650  0.00  0.00    +0.000 A 
ATOM      3  C   UNL     1      -4.778  -4.978  20.079  0.00  0.00    +0.000 A 
ATOM      4  N   UNL     1      -5.360  -3.957  20.738  0.00  0.00    +0.000 NA
ATOM      5  C   UNL     1      -6.677  -4.061  20.950  0.00  0.00    +0.000 A 
ATOM      6  N   UNL     1      -7.296  -3.028  21.664  0.00  0.00    +0.000 N 
ATOM      7  N   UNL     1      -7.411  -5.101  20.534  0.00  0.00    +0.000 NA
ATOM      8  H   UNL     1      -4.933  -6.902  19.152  0.00  0.00    +0.000 HD
ATOM      9  H   UNL     1      -3.714  -4.870  19.903  0.00  0.00    +0.000 HD
ATOM     10  H   UNL     1      -6.610  -2.298  21.807  0.00  0.00    +0.000 HD
ENDROOT
BRANCH   1  15
ATOM     11  N   UNL     1      -9.334  -8.162  16.398  0.00  0.00    +0.000 N 
ATOM     12  C   UNL     1      -8.689  -7.058  15.906  0.00  0.00    +0.000 A 
ATOM     13  C   UNL     1      -7.949  -6.518  16.928  0.00  0.00    +0.000 A 
ATOM     14  C   UNL     1      -8.151  -7.308  18.104  0.00  0.00    +0.000 A 
ATOM     15  C   UNL     1      -7.690  -7.226  19.453  0.00  0.00    +0.000 A 
ATOM     16  C   UNL     1      -8.102  -8.246  20.341  0.00  0.00    +0.000 A 
ATOM     17  C   UNL     1      -8.947  -9.275  19.941  0.00  0.00    +0.000 A 
ATOM     18  C   UNL     1      -9.422  -9.340  18.635  0.00  0.00    +0.000 A 
ATOM     19  C   UNL     1      -9.015  -8.351  17.730  0.00  0.00    +0.000 A 
ATOM     20  H   UNL     1      -8.808  -6.739  14.880  0.00  0.00    +0.000 HD
ATOM     21  H   UNL     1      -7.324  -5.638  16.839  0.00  0.00    +0.000 HD
ATOM     22  H   UNL     1      -7.747  -8.252  21.367  0.00  0.00    +0.000 HD
ATOM     23  H   UNL     1      -9.240 -10.039  20.658  0.00  0.00    +0.000 HD
ATOM     24  H   UNL     1     -10.087 -10.146  18.342  0.00  0.00    +0.000 HD
BRANCH  11  25
ATOM     25  C   UNL     1     -10.280  -8.949  15.620  0.00  0.00    +0.000 C 
ATOM     26  H   UNL     1     -10.993  -9.419  16.302  0.00  0.00    +0.000 HD
ATOM     27  H   UNL     1     -10.837  -8.230  15.007  0.00  0.00    +0.000 HD
BRANCH  25  28
ATOM     28  C   UNL     1      -9.602 -10.017  14.761  0.00  0.00    +0.000 C 
ATOM     29  H   UNL     1     -10.238 -10.284  13.908  0.00  0.00    +0.000 HD
ATOM     30  H   UNL     1      -8.673  -9.614  14.338  0.00  0.00    +0.000 HD
BRANCH  28  31
ATOM     31  C   UNL     1      -9.280 -11.275  15.563  0.00  0.00    +0.000 C 
ATOM     32  H   UNL     1      -9.124 -11.008  16.614  0.00  0.00    +0.000 HD
ATOM     33  H   UNL     1     -10.124 -11.973  15.521  0.00  0.00    +0.000 HD
BRANCH  31  34
ATOM     34  N   UNL     1      -8.085 -11.936  15.053  0.00  0.00    +0.000 NA
ATOM     35  H   UNL     1      -7.932 -11.666  14.082  0.00  0.00    +0.000 HD
ATOM     36  H   UNL     1      -8.222 -12.947  15.048  0.00  0.00    +0.000 HD
ENDBRANCH  31  34
ENDBRANCH  28  31
ENDBRANCH  25  28
ENDBRANCH  11  25
ENDBRANCH   1  15
BRANCH   6  37
ATOM     37  C   UNL     1      -8.608  -2.545  21.486  0.00  0.00    +0.000 A 
ATOM     38  C   UNL     1      -9.392  -2.114  22.567  0.00  0.00    +0.000 A 
ATOM     39  C   UNL     1     -10.708  -1.701  22.382  0.00  0.00    +0.000 A 
ATOM     40  C   UNL     1     -11.256  -1.711  21.106  0.00  0.00    +0.000 A 
ATOM     41  C   UNL     1     -10.488  -2.101  20.007  0.00  0.00    +0.000 A 
ATOM     42  C   UNL     1      -9.172  -2.530  20.198  0.00  0.00    +0.000 A 
ATOM     43  H   UNL     1      -8.990  -2.110  23.578  0.00  0.00    +0.000 HD
ATOM     44  H   UNL     1     -11.299  -1.379  23.234  0.00  0.00    +0.000 HD
ATOM     45  H   UNL     1     -12.288  -1.399  20.967  0.00  0.00    +0.000 HD
ATOM     46  H   UNL     1      -8.560  -2.849  19.357  0.00  0.00    +0.000 HD
BRANCH  41  47
ATOM     47  O   UNL     1     -11.158  -2.050  18.821  0.00  0.00    +0.000 OA
BRANCH  47  48
ATOM     48  C   UNL     1     -11.790  -3.238  18.340  0.00  0.00    +0.000 C 
ATOM     49  F   UNL     1     -12.537  -3.794  19.331  0.00  0.00    +0.000 F 
ATOM     50  F   UNL     1     -12.626  -2.916  17.323  0.00  0.00    +0.000 F 
BRANCH  48  51
ATOM     51  C   UNL     1     -10.711  -4.230  17.897  0.00  0.00    +0.000 C 
ATOM     52  F   UNL     1     -10.640  -5.300  18.731  0.00  0.00    +0.000 F 
ATOM     53  F   UNL     1     -10.969  -4.727  16.658  0.00  0.00    +0.000 F 
ATOM     54  H   UNL     1      -9.727  -3.749  17.868  0.00  0.00    +0.000 HD
ENDBRANCH  48  51
ENDBRANCH  47  48
ENDBRANCH  41  47
ENDBRANCH   6  37
TORSDOF 9
ENDMDL
MODEL 9
REMARK VINA RESULT:    -9.387      5.120      7.038
REMARK INTER + INTRA:         -15.080
REMARK INTER:                 -14.640
REMARK INTRA:                  -0.440
REMARK UNBOUND:                -1.028
REMARK  Name = 
REMARK  9 active torsions:
REMARK  status: ('A' for Active; 'I' for Inactive)
REMARK    1  A    between atoms: N_1  and  C_2
REMARK    2  A    between atoms: C_2  and  C_3
REMARK    3  A    between atoms: C_3  and  C_4
REMARK    4  A    between atoms: C_4  and  N_5
REMARK    5  A    between atoms: C_9  and  C_10
REMARK    6  A    between atoms: N_15  and  C_16
REMARK    7  A    between atoms: C_20  and  O_21
REMARK    8  A    between atoms: O_21  and  C_22
REMARK    9  A    between atoms: C_22  and  C_25
REMARK                            x       y       z     vdW  Elec       q    Type
REMARK                         _______ _______ _______ _____ _____    ______ ____
ROOT
ATOM      1  C   UNL     1      -8.842  -6.800  18.550  0.00  0.00    +0.000 A 
ATOM      2  C   UNL     1      -7.761  -6.811  19.403  0.00  0.00    +0.000 A 
ATOM      3  C   UNL     1      -7.495  -5.643  20.076  0.00  0.00    +0.000 A 
ATOM      4  N   UNL     1      -8.247  -4.530  19.965  0.00  0.00    +0.000 NA
ATOM      5  C   UNL     1      -9.290  -4.599  19.129  0.00  0.00    +0.000 A 
ATOM      6  N   UNL     1     -10.105  -3.465  19.026  0.00  0.00    +0.000 N 
ATOM      7  N   UNL     1      -9.593  -5.691  18.416  0.00  0.00    +0.000 NA
ATOM      8  H   UNL     1      -7.142  -7.689  19.554  0.00  0.00    +0.000 HD
ATOM      9  H   UNL     1      -6.647  -5.565  20.746  0.00  0.00    +0.000 HD
ATOM     10  H   UNL     1      -9.669  -2.722  19.556  0.00  0.00    +0.000 HD
ENDROOT
BRANCH   1  15
ATOM     11  N   UNL     1      -8.788 -11.522  17.898  0.00  0.00    +0.000 N 
ATOM     12  C   UNL     1      -8.176 -11.221  19.086  0.00  0.00    +0.000 A 
ATOM     13  C   UNL     1      -8.241  -9.861  19.256  0.00  0.00    +0.000 A 
ATOM     14  C   UNL     1      -8.906  -9.291  18.123  0.00  0.00    +0.000 A 
ATOM     15  C   UNL     1      -9.231  -7.961  17.722  0.00  0.00    +0.000 A 
ATOM     16  C   UNL     1      -9.942  -7.805  16.510  0.00  0.00    +0.000 A 
ATOM     17  C   UNL     1     -10.290  -8.891  15.714  0.00  0.00    +0.000 A 
ATOM     18  C   UNL     1      -9.948 -10.187  16.088  0.00  0.00    +0.000 A 
ATOM     19  C   UNL     1      -9.258 -10.370  17.294  0.00  0.00    +0.000 A 
ATOM     20  H   UNL     1      -7.741 -11.987  19.712  0.00  0.00    +0.000 HD
ATOM     21  H   UNL     1      -7.846  -9.326  20.110  0.00  0.00    +0.000 HD
ATOM     22  H   UNL     1     -10.248  -6.817  16.180  0.00  0.00    +0.000 HD
ATOM     23  H   UNL     1     -10.836  -8.726  14.788  0.00  0.00    +0.000 HD
ATOM     24  H   UNL     1     -10.220 -11.022  15.452  0.00  0.00    +0.000 HD
BRANCH  11  25
ATOM     25  C   UNL     1      -8.840 -12.866  17.342  0.00  0.00    +0.000 C 
ATOM     26  H   UNL     1      -8.444 -13.570  18.080  0.00  0.00    +0.000 HD
ATOM     27  H   UNL     1      -9.905 -13.096  17.210  0.00  0.00    +0.000 HD
BRANCH  25  28
ATOM     28  C   UNL     1      -8.066 -13.000  16.031  0.00  0.00    +0.000 C 
ATOM     29  H   UNL     1      -7.846 -12.010  15.613  0.00  0.00    +0.000 HD
ATOM     30  H   UNL     1      -7.097 -13.476  16.223  0.00  0.00    +0.000 HD
BRANCH  28  31
ATOM     31  C   UNL     1      -8.831 -13.824  14.998  0.00  0.00    +0.000 C 
ATOM     32  H   UNL     1      -9.854 -13.445  14.913  0.00  0.00    +0.000 HD
ATOM     33  H   UNL     1      -8.358 -13.726  14.015  0.00  0.00    +0.000 HD
BRANCH  31  34
ATOM     34  N   UNL     1      -8.871 -15.233  15.372  0.00  0.00    +0.000 NA
ATOM     35  H   UNL     1      -7.935 -15.631  15.312  0.00  0.00    +0.000 HD
ATOM     36  H   UNL     1      -9.443 -15.753  14.707  0.00  0.00    +0.000 HD
ENDBRANCH  31  34
ENDBRANCH  28  31
ENDBRANCH  25  28
ENDBRANCH  11  25
ENDBRANCH   1  15
BRANCH   6  37
ATOM     37  C   UNL     1     -10.786  -3.016  17.877  0.00  0.00    +0.000 A 
ATOM     38  C   UNL     1     -11.471  -1.792  17.853  0.00  0.00    +0.000 A 
ATOM     39  C   UNL     1     -12.193  -1.394  16.731  0.00  0.00    +0.000 A 
ATOM     40  C   UNL     1     -12.234  -2.217  15.615  0.00  0.00    +0.000 A 
ATOM     41  C   UNL     1     -11.532  -3.424  15.597  0.00  0.00    +0.000 A 
ATOM     42  C   UNL     1     -10.822  -3.830  16.730  0.00  0.00    +0.000 A 
ATOM     43  H   UNL     1     -11.466  -1.135  18.720  0.00  0.00    +0.000 HD
ATOM     44  H   UNL     1     -12.723  -0.446  16.737  0.00  0.00    +0.000 HD
ATOM     45  H   UNL     1     -12.809  -1.908  14.745  0.00  0.00    +0.000 HD
ATOM     46  H   UNL     1     -10.278  -4.771  16.742  0.00  0.00    +0.000 HD
BRANCH  41  47
ATOM     47  O   UNL     1     -11.660  -4.119  14.431  0.00  0.00    +0.000 OA
BRANCH  47  48
ATOM     48  C   UNL     1     -10.706  -3.893  13.391  0.00  0.00    +0.000 C 
ATOM     49  F   UNL     1      -9.915  -2.836  13.716  0.00  0.00    +0.000 F 
ATOM     50  F   UNL     1      -9.912  -4.984  13.272  0.00  0.00    +0.000 F 
BRANCH  48  51
ATOM     51  C   UNL     1     -11.454  -3.589  12.090  0.00  0.00    +0.000 C 
ATOM     52  F   UNL     1     -11.303  -4.585  11.179  0.00  0.00    +0.000 F 
ATOM     53  F   UNL     1     -12.793  -3.464  12.301  0.00  0.00    +0.000 F 
ATOM     54  H   UNL     1     -11.097  -2.655  11.643  0.00  0.00    +0.000 HD
ENDBRANCH  48  51
ENDBRANCH  47  48
ENDBRANCH  41  47
ENDBRANCH   6  37
TORSDOF 9
ENDMDL
