REMARK  Name = 
REMARK  12 active torsions:
REMARK  status: ('A' for Active; 'I' for Inactive)
REMARK    1  A    between atoms: C_2  and  C_3
REMARK    2  A    between atoms: C_3  and  O_4
REMARK    3  A    between atoms: O_4  and  C_5
REMARK    4  A    between atoms: C_5  and  C_7
REMARK    5  A    between atoms: C_11  and  N_12
REMARK    6  A    between atoms: C_13  and  C_15
REMARK    7  A    between atoms: C_15  and  C_16
REMARK    8  A    between atoms: C_16  and  N_17
REMARK    9  A    between atoms: N_17  and  C_18
REMARK   10  A    between atoms: N_17  and  C_19
REMARK   11  A    between atoms: N_22  and  C_23
REMARK   12  A    between atoms: C_30  and  C_31
REMARK                            x       y       z     vdW  Elec       q    Type
REMARK                         _______ _______ _______ _____ _____    ______ ____
ROOT
ATOM      1  C   UNL     1       0.696   0.398  -0.401  0.00  0.00    +0.000 C 
ATOM      2  C   UNL     1       0.987   1.575   0.596  0.00  0.00    +0.000 C 
ATOM      3  C   UNL     1       0.520   2.959   0.110  0.00  0.00    +0.000 C 
ATOM      4  N   UNL     1       1.185   3.191  -1.148  0.00  0.00    +0.000 N 
ATOM      5  C   UNL     1       0.674   2.332  -2.201  0.00  0.00    +0.000 C 
ATOM      6  C   UNL     1       1.031   0.879  -1.844  0.00  0.00    +0.000 C 
ATOM      7  H   UNL     1       2.070   1.591   0.713  0.00  0.00    +0.000 HD
ATOM      8  H   UNL     1       0.558   1.377   1.586  0.00  0.00    +0.000 HD
ATOM      9  H   UNL     1       0.689   3.757   0.828  0.00  0.00    +0.000 HD
ATOM     10  H   UNL     1      -0.564   2.999  -0.038  0.00  0.00    +0.000 HD
ATOM     11  H   UNL     1       1.090   2.555  -3.190  0.00  0.00    +0.000 HD
ATOM     12  H   UNL     1      -0.416   2.432  -2.288  0.00  0.00    +0.000 HD
ATOM     13  H   UNL     1       2.117   0.781  -1.988  0.00  0.00    +0.000 HD
ATOM     14  H   UNL     1       0.522   0.268  -2.589  0.00  0.00    +0.000 HD
ENDROOT
BRANCH   4  15
ATOM     15  C   UNL     1       2.000   4.271  -1.414  0.00  0.00    +0.000 A 
ATOM     16  N   UNL     1       2.002   4.738  -2.699  0.00  0.00    +0.000 NA
ATOM     17  C   UNL     1       2.788   5.775  -3.054  0.00  0.00    +0.000 A 
ATOM     18  N   UNL     1       3.652   6.443  -2.285  0.00  0.00    +0.000 NA
ATOM     19  C   UNL     1       3.661   5.958  -1.037  0.00  0.00    +0.000 A 
ATOM     20  N   UNL     1       4.502   6.450  -0.080  0.00  0.00    +0.000 N 
ATOM     21  C   UNL     1       4.337   5.766   1.081  0.00  0.00    +0.000 A 
ATOM     22  C   UNL     1       3.354   4.801   0.873  0.00  0.00    +0.000 A 
ATOM     23  C   UNL     1       2.904   4.919  -0.502  0.00  0.00    +0.000 A 
ATOM     24  H   UNL     1       2.717   6.100  -4.081  0.00  0.00    +0.000 HD
ATOM     25  H   UNL     1       5.173   7.188  -0.248  0.00  0.00    +0.000 HD
ATOM     26  H   UNL     1       4.933   5.982   1.952  0.00  0.00    +0.000 HD
BRANCH  22  27
ATOM     27  C   UNL     1       2.986   3.847   1.945  0.00  0.00    +0.000 C 
ATOM     28  H   UNL     1       3.607   3.976   2.835  0.00  0.00    +0.000 HD
ATOM     29  H   UNL     1       3.173   2.833   1.604  0.00  0.00    +0.000 HD
ATOM     30  H   UNL     1       1.957   3.979   2.278  0.00  0.00    +0.000 HD
ENDBRANCH  22  27
ENDBRANCH   4  15
BRANCH   1  32
ATOM     31  N   UNL     1      -1.186  -1.263  -0.277  0.00  0.00    +0.000 N 
ATOM     32  C   UNL     1      -0.805   0.067  -0.208  0.00  0.00    +0.000 C 
ATOM     33  O   UNL     1      -1.593   0.986   0.028  0.00  0.00    +0.000 OA
ATOM     34  H   UNL     1      -0.429  -1.948  -0.353  0.00  0.00    +0.000 HD
BRANCH  31  39
ATOM     35  C   UNL     1      -3.825  -3.552   1.056  0.00  0.00    +0.000 A 
ATOM     36  C   UNL     1      -4.922  -2.684   1.113  0.00  0.00    +0.000 A 
ATOM     37  C   UNL     1      -4.808  -1.380   0.647  0.00  0.00    +0.000 A 
ATOM     38  C   UNL     1      -3.593  -0.924   0.142  0.00  0.00    +0.000 A 
ATOM     39  C   UNL     1      -2.466  -1.750   0.107  0.00  0.00    +0.000 A 
ATOM     40  C   UNL     1      -2.601  -3.086   0.524  0.00  0.00    +0.000 A 
ATOM     41  H   UNL     1      -5.877  -3.005   1.524  0.00  0.00    +0.000 HD
ATOM     42  H   UNL     1      -5.657  -0.699   0.692  0.00  0.00    +0.000 HD
ATOM     43  H   UNL     1      -3.562   0.100  -0.221  0.00  0.00    +0.000 HD
ATOM     44  H   UNL     1      -1.746  -3.759   0.490  0.00  0.00    +0.000 HD
BRANCH  35  45
ATOM     45  C   UNL     1      -3.917  -4.944   1.602  0.00  0.00    +0.000 C 
ATOM     46  O   UNL     1      -2.990  -5.736   1.567  0.00  0.00    +0.000 OA
BRANCH  45  47
ATOM     47  O   UNL     1      -5.137  -5.164   2.165  0.00  0.00    +0.000 OA
BRANCH  47  48
ATOM     48  C   UNL     1      -5.352  -6.454   2.776  0.00  0.00    +0.000 C 
ATOM     49  H   UNL     1      -4.466  -6.768   3.339  0.00  0.00    +0.000 HD
ATOM     50  H   UNL     1      -6.184  -6.353   3.480  0.00  0.00    +0.000 HD
BRANCH  48  52
ATOM     51  C   UNL     1      -6.006  -8.350   0.790  0.00  0.00    +0.000 C 
ATOM     52  C   UNL     1      -5.704  -7.475   1.707  0.00  0.00    +0.000 C 
ATOM     53  H   UNL     1      -6.248  -9.064   0.036  0.00  0.00    +0.000 HD
ENDBRANCH  48  52
ENDBRANCH  47  48
ENDBRANCH  45  47
ENDBRANCH  35  45
ENDBRANCH  31  39
ENDBRANCH   1  32
BRANCH   1  54
ATOM     54  C   UNL     1       1.621  -0.814   0.037  0.00  0.00    +0.000 C 
ATOM     55  H   UNL     1       1.428  -0.961   1.112  0.00  0.00    +0.000 HD
ATOM     56  H   UNL     1       2.676  -0.517  -0.038  0.00  0.00    +0.000 HD
BRANCH  54  57
ATOM     57  N   UNL     1       1.432  -2.148  -0.595  0.00  0.00    +0.000 NA
BRANCH  57  58
ATOM     58  C   UNL     1       1.744  -2.220  -2.026  0.00  0.00    +0.000 C 
ATOM     59  H   UNL     1       1.245  -1.465  -2.619  0.00  0.00    +0.000 HD
ATOM     60  H   UNL     1       1.363  -3.166  -2.427  0.00  0.00    +0.000 HD
ATOM     61  H   UNL     1       2.818  -2.158  -2.233  0.00  0.00    +0.000 HD
ENDBRANCH  57  58
BRANCH  57  62
ATOM     62  C   UNL     1       2.292  -3.155   0.061  0.00  0.00    +0.000 C 
ATOM     63  H   UNL     1       2.149  -3.177   1.145  0.00  0.00    +0.000 HD
ATOM     64  H   UNL     1       3.358  -2.979  -0.142  0.00  0.00    +0.000 HD
ATOM     65  H   UNL     1       2.042  -4.156  -0.313  0.00  0.00    +0.000 HD
ENDBRANCH  57  62
ENDBRANCH  54  57
ENDBRANCH   1  54
TORSDOF 12
