
 OpenBabel01112422393D

 42 45  0  0  0  0  0  0  0  0999 V2000
    3.2298    1.1570   -1.0652 O   0  0  0  0  0  0  0  0  0  0  0  0
    3.0941    0.1181   -0.0771 S   0  0  0  0  0  0  0  0  0  0  0  0
    2.0244    0.1710    0.9099 O   0  0  0  0  0  0  0  0  0  0  0  0
    2.9495   -1.3998   -0.9475 C   0  0  0  0  0  0  0  0  0  0  0  0
    4.1377   -1.8792   -1.7428 C   0  0  0  0  0  0  0  0  0  0  0  0
    5.3439   -1.2053   -1.9512 C   0  0  0  0  0  0  0  0  0  0  0  0
    6.3355   -1.7591   -2.7613 C   0  0  0  0  0  0  0  0  0  0  0  0
    6.1155   -2.9876   -3.4035 C   0  0  0  0  0  0  0  0  0  0  0  0
    4.9336   -3.6709   -3.1987 C   0  0  0  0  0  0  0  0  0  0  0  0
    3.9501   -3.1177   -2.3730 C   0  0  0  0  0  0  0  0  0  0  0  0
    4.4943    0.2466    0.8625 N   0  0  0  0  0  0  0  0  0  0  0  0
    4.8845    1.4928    1.3362 C   0  0  0  0  0  0  0  0  0  0  0  0
    4.6151    2.8090    0.9619 C   0  0  0  0  0  0  0  0  0  0  0  0
    4.4055    3.6644    2.0302 C   0  0  0  0  0  0  0  0  0  0  0  0
    4.0243    4.9625    1.8206 O   0  0  0  0  0  0  0  0  0  0  0  0
    4.4619    3.1995    3.3438 C   0  0  0  0  0  0  0  0  0  0  0  0
    3.8663    3.9364    4.3295 O   0  0  0  0  0  0  0  0  0  0  0  0
    5.0696    1.9813    3.6567 C   0  0  0  0  0  0  0  0  0  0  0  0
    5.4303    1.1639    2.5710 C   0  0  0  0  0  0  0  0  0  0  0  0
    6.1229   -0.0309    2.2641 C   0  0  0  0  0  0  0  0  0  0  0  0
    7.3897   -0.6125    2.4930 C   0  0  0  0  0  0  0  0  0  0  0  0
    7.5856   -1.9425    2.1153 C   0  0  0  0  0  0  0  0  0  0  0  0
    6.4791   -2.7225    1.7617 C   0  0  0  0  0  0  0  0  0  0  0  0
    6.5799   -4.0782    1.6074 O   0  0  0  0  0  0  0  0  0  0  0  0
    5.2378   -2.1347    1.4993 C   0  0  0  0  0  0  0  0  0  0  0  0
    4.1637   -2.9169    1.2239 O   0  0  0  0  0  0  0  0  0  0  0  0
    5.1979   -0.7438    1.5120 C   0  0  0  0  0  0  0  0  0  0  0  0
    2.1217   -1.2119   -1.6508 H   0  0  0  0  0  0  0  0  0  0  0  0
    2.5886   -2.1540   -0.2442 H   0  0  0  0  0  0  0  0  0  0  0  0
    5.5642   -0.2297   -1.5182 H   0  0  0  0  0  0  0  0  0  0  0  0
    7.2685   -1.2323   -2.9279 H   0  0  0  0  0  0  0  0  0  0  0  0
    6.8827   -3.4010   -4.0586 H   0  0  0  0  0  0  0  0  0  0  0  0
    4.7546   -4.6224   -3.6846 H   0  0  0  0  0  0  0  0  0  0  0  0
    3.0324   -3.6755   -2.2146 H   0  0  0  0  0  0  0  0  0  0  0  0
    4.4019    3.0940   -0.0616 H   0  0  0  0  0  0  0  0  0  0  0  0
    4.3630    5.2144    0.9422 H   0  0  0  0  0  0  0  0  0  0  0  0
    3.3843    4.6385    3.8439 H   0  0  0  0  0  0  0  0  0  0  0  0
    5.0982    1.6157    4.6776 H   0  0  0  0  0  0  0  0  0  0  0  0
    8.2211    0.0003    2.8186 H   0  0  0  0  0  0  0  0  0  0  0  0
    8.5813   -2.3712    2.1447 H   0  0  0  0  0  0  0  0  0  0  0  0
    7.5044   -4.3350    1.7391 H   0  0  0  0  0  0  0  0  0  0  0  0
    4.4583   -3.8293    1.4241 H   0  0  0  0  0  0  0  0  0  0  0  0
  1  2  2  0  0  0  0
  2  3  2  0  0  0  0
  2  4  1  0  0  0  0
  2 11  1  0  0  0  0
  4  5  1  0  0  0  0
  4 28  1  0  0  0  0
  4 29  1  0  0  0  0
  5  6  1  0  0  0  0
  5 10  2  0  0  0  0
  6  7  2  0  0  0  0
  6 30  1  0  0  0  0
  7  8  1  0  0  0  0
  7 31  1  0  0  0  0
  8  9  2  0  0  0  0
  8 32  1  0  0  0  0
  9 10  1  0  0  0  0
  9 33  1  0  0  0  0
 10 34  1  0  0  0  0
 11 12  1  0  0  0  0
 11 27  1  0  0  0  0
 12 13  1  0  0  0  0
 12 19  2  0  0  0  0
 13 14  2  0  0  0  0
 13 35  1  0  0  0  0
 14 15  1  0  0  0  0
 14 16  1  0  0  0  0
 15 36  1  0  0  0  0
 16 17  1  0  0  0  0
 16 18  2  0  0  0  0
 17 37  1  0  0  0  0
 18 19  1  0  0  0  0
 18 38  1  0  0  0  0
 19 20  1  0  0  0  0
 20 21  1  0  0  0  0
 20 27  2  0  0  0  0
 21 22  2  0  0  0  0
 21 39  1  0  0  0  0
 22 23  1  0  0  0  0
 22 40  1  0  0  0  0
 23 24  1  0  0  0  0
 23 25  2  0  0  0  0
 24 41  1  0  0  0  0
 25 26  1  0  0  0  0
 25 27  1  0  0  0  0
 26 42  1  0  0  0  0
M  END
$$$$
