MODEL 1
REMARK VINA RESULT:    -7.700      0.000      0.000
REMARK INTER + INTRA:         -10.141
REMARK INTER:                  -9.726
REMARK INTRA:                  -0.415
REMARK UNBOUND:                -0.415
REMARK  Name = 
REMARK  7 active torsions:
REMARK  status: ('A' for Active; 'I' for Inactive)
REMARK    1  A    between atoms: C_1  and  S_2
REMARK    2  A    between atoms: S_2  and  C_5
REMARK    3  A    between atoms: C_8  and  C_9
REMARK    4  A    between atoms: C_14  and  O_15
REMARK    5  A    between atoms: C_16  and  O_17
REMARK    6  A    between atoms: C_23  and  O_24
REMARK    7  A    between atoms: C_25  and  O_26
REMARK                            x       y       z     vdW  Elec       q    Type
REMARK                         _______ _______ _______ _____ _____    ______ ____
ROOT
ATOM      1  C   UNL     1     -10.532  -2.301  20.199  0.00  0.00    +0.000 C 
ATOM      2  O   UNL     1     -11.343  -1.689  20.907  0.00  0.00    +0.000 OA
ATOM      3  N   UNL     1      -9.385  -2.820  20.850  0.00  0.00    +0.000 N 
ATOM      4  C   UNL     1      -8.947  -2.403  22.114  0.00  0.00    +0.000 A 
ATOM      5  C   UNL     1      -9.284  -1.314  22.935  0.00  0.00    +0.000 A 
ATOM      6  C   UNL     1      -8.992  -1.465  24.287  0.00  0.00    +0.000 A 
ATOM      7  C   UNL     1      -8.459  -2.647  24.783  0.00  0.00    +0.000 A 
ATOM      8  C   UNL     1      -7.889  -3.579  23.929  0.00  0.00    +0.000 A 
ATOM      9  C   UNL     1      -8.053  -3.371  22.551  0.00  0.00    +0.000 A 
ATOM     10  C   UNL     1      -7.470  -3.869  21.367  0.00  0.00    +0.000 A 
ATOM     11  C   UNL     1      -6.236  -4.462  21.033  0.00  0.00    +0.000 A 
ATOM     12  C   UNL     1      -6.107  -5.120  19.811  0.00  0.00    +0.000 A 
ATOM     13  C   UNL     1      -7.247  -5.347  19.056  0.00  0.00    +0.000 A 
ATOM     14  C   UNL     1      -8.466  -4.733  19.368  0.00  0.00    +0.000 A 
ATOM     15  C   UNL     1      -8.494  -3.812  20.417  0.00  0.00    +0.000 A 
ATOM     16  H   UNL     1      -9.809  -0.445  22.551  0.00  0.00    +0.000 HD
ATOM     17  H   UNL     1      -7.399  -4.467  24.313  0.00  0.00    +0.000 HD
ATOM     18  H   UNL     1      -5.389  -4.369  21.707  0.00  0.00    +0.000 HD
ATOM     19  H   UNL     1      -5.138  -5.514  19.522  0.00  0.00    +0.000 HD
ENDROOT
BRANCH   1  23
ATOM     20  C   UNL     1     -11.167  -2.681  15.996  0.00  0.00    +0.000 A 
ATOM     21  C   UNL     1     -12.059  -3.301  16.878  0.00  0.00    +0.000 A 
ATOM     22  C   UNL     1     -11.887  -3.151  18.256  0.00  0.00    +0.000 A 
ATOM     23  C   UNL     1     -10.847  -2.355  18.753  0.00  0.00    +0.000 A 
ATOM     24  C   UNL     1      -9.965  -1.728  17.855  0.00  0.00    +0.000 A 
ATOM     25  C   UNL     1     -10.118  -1.894  16.477  0.00  0.00    +0.000 A 
ATOM     26  H   UNL     1     -12.859  -3.936  16.507  0.00  0.00    +0.000 HD
ATOM     27  H   UNL     1     -12.559  -3.683  18.924  0.00  0.00    +0.000 HD
ATOM     28  H   UNL     1      -9.128  -1.145  18.235  0.00  0.00    +0.000 HD
ATOM     29  H   UNL     1      -9.392  -1.448  15.801  0.00  0.00    +0.000 HD
BRANCH  20  30
ATOM     30  S   UNL     1     -11.264  -3.060  14.261  0.00  0.00    +0.000 S 
ATOM     31  O   UNL     1     -11.844  -1.910  13.599  0.00  0.00    +0.000 OA
ATOM     32  O   UNL     1     -11.859  -4.364  14.131  0.00  0.00    +0.000 OA
BRANCH  30  33
ATOM     33  C   UNL     1      -9.571  -3.192  13.743  0.00  0.00    +0.000 C 
ATOM     34  H   UNL     1      -9.180  -2.181  13.633  0.00  0.00    +0.000 HD
ATOM     35  H   UNL     1      -9.534  -3.708  12.780  0.00  0.00    +0.000 HD
ATOM     36  H   UNL     1      -9.002  -3.732  14.498  0.00  0.00    +0.000 HD
ENDBRANCH  30  33
ENDBRANCH  20  30
ENDBRANCH   1  23
BRANCH   6  37
ATOM     37  O   UNL     1      -9.241  -0.459  25.178  0.00  0.00    +0.000 OA
ATOM     38  H   UNL     1      -9.579  -0.897  25.981  0.00  0.00    +0.000 HD
ENDBRANCH   6  37
BRANCH   7  39
ATOM     39  O   UNL     1      -8.474  -2.887  26.127  0.00  0.00    +0.000 OA
ATOM     40  H   UNL     1      -7.901  -2.187  26.500  0.00  0.00    +0.000 HD
ENDBRANCH   7  39
BRANCH  13  41
ATOM     41  O   UNL     1      -7.225  -6.198  17.983  0.00  0.00    +0.000 OA
ATOM     42  H   UNL     1      -8.126  -6.240  17.617  0.00  0.00    +0.000 HD
ENDBRANCH  13  41
BRANCH  14  43
ATOM     43  O   UNL     1      -9.600  -5.107  18.698  0.00  0.00    +0.000 OA
ATOM     44  H   UNL     1     -10.194  -4.333  18.783  0.00  0.00    +0.000 HD
ENDBRANCH  14  43
TORSDOF 7
ENDMDL
MODEL 2
REMARK VINA RESULT:    -7.615      4.721      7.732
REMARK INTER + INTRA:         -10.032
REMARK INTER:                  -9.623
REMARK INTRA:                  -0.410
REMARK UNBOUND:                -0.415
REMARK  Name = 
REMARK  7 active torsions:
REMARK  status: ('A' for Active; 'I' for Inactive)
REMARK    1  A    between atoms: C_1  and  S_2
REMARK    2  A    between atoms: S_2  and  C_5
REMARK    3  A    between atoms: C_8  and  C_9
REMARK    4  A    between atoms: C_14  and  O_15
REMARK    5  A    between atoms: C_16  and  O_17
REMARK    6  A    between atoms: C_23  and  O_24
REMARK    7  A    between atoms: C_25  and  O_26
REMARK                            x       y       z     vdW  Elec       q    Type
REMARK                         _______ _______ _______ _____ _____    ______ ____
ROOT
ATOM      1  C   UNL     1      -9.400  -7.983  15.453  0.00  0.00    +0.000 C 
ATOM      2  O   UNL     1      -9.304  -8.542  14.353  0.00  0.00    +0.000 OA
ATOM      3  N   UNL     1      -9.183  -8.791  16.597  0.00  0.00    +0.000 N 
ATOM      4  C   UNL     1      -9.215 -10.191  16.583  0.00  0.00    +0.000 A 
ATOM      5  C   UNL     1      -9.662 -11.132  15.640  0.00  0.00    +0.000 A 
ATOM      6  C   UNL     1      -9.131 -12.412  15.765  0.00  0.00    +0.000 A 
ATOM      7  C   UNL     1      -8.175 -12.706  16.729  0.00  0.00    +0.000 A 
ATOM      8  C   UNL     1      -7.966 -11.851  17.801  0.00  0.00    +0.000 A 
ATOM      9  C   UNL     1      -8.606 -10.603  17.761  0.00  0.00    +0.000 A 
ATOM     10  C   UNL     1      -8.888  -9.571  18.681  0.00  0.00    +0.000 A 
ATOM     11  C   UNL     1      -9.027  -9.489  20.080  0.00  0.00    +0.000 A 
ATOM     12  C   UNL     1      -9.008  -8.238  20.694  0.00  0.00    +0.000 A 
ATOM     13  C   UNL     1      -8.651  -7.134  19.936  0.00  0.00    +0.000 A 
ATOM     14  C   UNL     1      -8.545  -7.205  18.542  0.00  0.00    +0.000 A 
ATOM     15  C   UNL     1      -8.889  -8.403  17.912  0.00  0.00    +0.000 A 
ATOM     16  H   UNL     1     -10.318 -10.857  14.821  0.00  0.00    +0.000 HD
ATOM     17  H   UNL     1      -7.280 -12.110  18.600  0.00  0.00    +0.000 HD
ATOM     18  H   UNL     1      -9.185 -10.393  20.664  0.00  0.00    +0.000 HD
ATOM     19  H   UNL     1      -9.185  -8.169  21.761  0.00  0.00    +0.000 HD
ENDROOT
BRANCH   1  23
ATOM     20  C   UNL     1     -10.682  -3.933  15.051  0.00  0.00    +0.000 A 
ATOM     21  C   UNL     1     -11.311  -4.756  15.992  0.00  0.00    +0.000 A 
ATOM     22  C   UNL     1     -10.874  -6.071  16.163  0.00  0.00    +0.000 A 
ATOM     23  C   UNL     1      -9.789  -6.555  15.421  0.00  0.00    +0.000 A 
ATOM     24  C   UNL     1      -9.158  -5.713  14.487  0.00  0.00    +0.000 A 
ATOM     25  C   UNL     1      -9.606  -4.404  14.295  0.00  0.00    +0.000 A 
ATOM     26  H   UNL     1     -12.166  -4.401  16.561  0.00  0.00    +0.000 HD
ATOM     27  H   UNL     1     -11.409  -6.709  16.861  0.00  0.00    +0.000 HD
ATOM     28  H   UNL     1      -8.344  -6.096  13.875  0.00  0.00    +0.000 HD
ATOM     29  H   UNL     1      -9.143  -3.788  13.529  0.00  0.00    +0.000 HD
BRANCH  20  30
ATOM     30  S   UNL     1     -11.387  -2.341  14.687  0.00  0.00    +0.000 S 
ATOM     31  O   UNL     1     -12.197  -2.488  13.496  0.00  0.00    +0.000 OA
ATOM     32  O   UNL     1     -10.326  -1.370  14.742  0.00  0.00    +0.000 OA
BRANCH  30  33
ATOM     33  C   UNL     1     -12.476  -2.018  16.052  0.00  0.00    +0.000 C 
ATOM     34  H   UNL     1     -12.363  -2.835  16.763  0.00  0.00    +0.000 HD
ATOM     35  H   UNL     1     -13.505  -1.988  15.686  0.00  0.00    +0.000 HD
ATOM     36  H   UNL     1     -12.201  -1.075  16.519  0.00  0.00    +0.000 HD
ENDBRANCH  30  33
ENDBRANCH  20  30
ENDBRANCH   1  23
BRANCH   6  37
ATOM     37  O   UNL     1      -9.517 -13.420  14.928  0.00  0.00    +0.000 OA
ATOM     38  H   UNL     1     -10.355 -13.759  15.295  0.00  0.00    +0.000 HD
ENDBRANCH   6  37
BRANCH   7  39
ATOM     39  O   UNL     1      -7.449 -13.858  16.636  0.00  0.00    +0.000 OA
ATOM     40  H   UNL     1      -6.566 -13.611  16.977  0.00  0.00    +0.000 HD
ENDBRANCH   7  39
BRANCH  13  41
ATOM     41  O   UNL     1      -8.372  -5.931  20.528  0.00  0.00    +0.000 OA
ATOM     42  H   UNL     1      -8.295  -6.081  21.488  0.00  0.00    +0.000 HD
ENDBRANCH  13  41
BRANCH  14  43
ATOM     43  O   UNL     1      -8.036  -6.140  17.848  0.00  0.00    +0.000 OA
ATOM     44  H   UNL     1      -8.591  -5.384  18.128  0.00  0.00    +0.000 HD
ENDBRANCH  14  43
TORSDOF 7
ENDMDL
MODEL 3
REMARK VINA RESULT:    -7.596      3.727      6.381
REMARK INTER + INTRA:         -10.009
REMARK INTER:                  -9.615
REMARK INTRA:                  -0.393
REMARK UNBOUND:                -0.415
REMARK  Name = 
REMARK  7 active torsions:
REMARK  status: ('A' for Active; 'I' for Inactive)
REMARK    1  A    between atoms: C_1  and  S_2
REMARK    2  A    between atoms: S_2  and  C_5
REMARK    3  A    between atoms: C_8  and  C_9
REMARK    4  A    between atoms: C_14  and  O_15
REMARK    5  A    between atoms: C_16  and  O_17
REMARK    6  A    between atoms: C_23  and  O_24
REMARK    7  A    between atoms: C_25  and  O_26
REMARK                            x       y       z     vdW  Elec       q    Type
REMARK                         _______ _______ _______ _____ _____    ______ ____
ROOT
ATOM      1  C   UNL     1      -9.831  -4.747  17.908  0.00  0.00    +0.000 C 
ATOM      2  O   UNL     1      -9.422  -4.523  19.054  0.00  0.00    +0.000 OA
ATOM      3  N   UNL     1     -10.458  -3.668  17.235  0.00  0.00    +0.000 N 
ATOM      4  C   UNL     1     -10.941  -2.520  17.877  0.00  0.00    +0.000 A 
ATOM      5  C   UNL     1     -11.175  -2.202  19.226  0.00  0.00    +0.000 A 
ATOM      6  C   UNL     1     -11.222  -0.843  19.525  0.00  0.00    +0.000 A 
ATOM      7  C   UNL     1     -10.990   0.119  18.552  0.00  0.00    +0.000 A 
ATOM      8  C   UNL     1     -11.039  -0.210  17.206  0.00  0.00    +0.000 A 
ATOM      9  C   UNL     1     -11.132  -1.572  16.881  0.00  0.00    +0.000 A 
ATOM     10  C   UNL     1     -11.453  -2.329  15.734  0.00  0.00    +0.000 A 
ATOM     11  C   UNL     1     -12.196  -2.097  14.561  0.00  0.00    +0.000 A 
ATOM     12  C   UNL     1     -12.055  -2.970  13.483  0.00  0.00    +0.000 A 
ATOM     13  C   UNL     1     -11.042  -3.915  13.524  0.00  0.00    +0.000 A 
ATOM     14  C   UNL     1     -10.324  -4.169  14.699  0.00  0.00    +0.000 A 
ATOM     15  C   UNL     1     -10.707  -3.503  15.865  0.00  0.00    +0.000 A 
ATOM     16  H   UNL     1     -11.236  -2.965  19.994  0.00  0.00    +0.000 HD
ATOM     17  H   UNL     1     -10.938   0.549  16.438  0.00  0.00    +0.000 HD
ATOM     18  H   UNL     1     -12.899  -1.268  14.517  0.00  0.00    +0.000 HD
ATOM     19  H   UNL     1     -12.679  -2.834  12.606  0.00  0.00    +0.000 HD
ENDROOT
BRANCH   1  23
ATOM     20  C   UNL     1      -9.458  -8.632  16.184  0.00  0.00    +0.000 A 
ATOM     21  C   UNL     1      -8.301  -7.897  16.463  0.00  0.00    +0.000 A 
ATOM     22  C   UNL     1      -8.407  -6.641  17.065  0.00  0.00    +0.000 A 
ATOM     23  C   UNL     1      -9.663  -6.134  17.420  0.00  0.00    +0.000 A 
ATOM     24  C   UNL     1     -10.817  -6.889  17.145  0.00  0.00    +0.000 A 
ATOM     25  C   UNL     1     -10.719  -8.136  16.522  0.00  0.00    +0.000 A 
ATOM     26  H   UNL     1      -7.321  -8.269  16.175  0.00  0.00    +0.000 HD
ATOM     27  H   UNL     1      -7.499  -6.064  17.225  0.00  0.00    +0.000 HD
ATOM     28  H   UNL     1     -11.799  -6.482  17.377  0.00  0.00    +0.000 HD
ATOM     29  H   UNL     1     -11.626  -8.678  16.267  0.00  0.00    +0.000 HD
BRANCH  20  30
ATOM     30  S   UNL     1      -9.325 -10.122  15.222  0.00  0.00    +0.000 S 
ATOM     31  O   UNL     1      -7.995 -10.151  14.650  0.00  0.00    +0.000 OA
ATOM     32  O   UNL     1     -10.491 -10.206  14.382  0.00  0.00    +0.000 OA
BRANCH  30  33
ATOM     33  C   UNL     1      -9.434 -11.431  16.416  0.00  0.00    +0.000 C 
ATOM     34  H   UNL     1      -9.119 -11.027  17.378  0.00  0.00    +0.000 HD
ATOM     35  H   UNL     1      -8.762 -12.240  16.119  0.00  0.00    +0.000 HD
ATOM     36  H   UNL     1     -10.463 -11.780  16.478  0.00  0.00    +0.000 HD
ENDBRANCH  30  33
ENDBRANCH  20  30
ENDBRANCH   1  23
BRANCH   6  37
ATOM     37  O   UNL     1     -11.479  -0.411  20.795  0.00  0.00    +0.000 OA
ATOM     38  H   UNL     1     -11.328  -1.183  21.372  0.00  0.00    +0.000 HD
ENDBRANCH   6  37
BRANCH   7  39
ATOM     39  O   UNL     1     -10.733   1.408  18.920  0.00  0.00    +0.000 OA
ATOM     40  H   UNL     1      -9.772   1.513  18.766  0.00  0.00    +0.000 HD
ENDBRANCH   7  39
BRANCH  13  41
ATOM     41  O   UNL     1     -10.694  -4.625  12.406  0.00  0.00    +0.000 OA
ATOM     42  H   UNL     1     -10.952  -4.102  11.627  0.00  0.00    +0.000 HD
ENDBRANCH  13  41
BRANCH  14  43
ATOM     43  O   UNL     1      -9.230  -4.990  14.657  0.00  0.00    +0.000 OA
ATOM     44  H   UNL     1      -9.475  -5.683  14.010  0.00  0.00    +0.000 HD
ENDBRANCH  14  43
TORSDOF 7
ENDMDL
MODEL 4
REMARK VINA RESULT:    -7.430      3.871      6.946
REMARK INTER + INTRA:          -9.799
REMARK INTER:                  -9.289
REMARK INTRA:                  -0.510
REMARK UNBOUND:                -0.415
REMARK  Name = 
REMARK  7 active torsions:
REMARK  status: ('A' for Active; 'I' for Inactive)
REMARK    1  A    between atoms: C_1  and  S_2
REMARK    2  A    between atoms: S_2  and  C_5
REMARK    3  A    between atoms: C_8  and  C_9
REMARK    4  A    between atoms: C_14  and  O_15
REMARK    5  A    between atoms: C_16  and  O_17
REMARK    6  A    between atoms: C_23  and  O_24
REMARK    7  A    between atoms: C_25  and  O_26
REMARK                            x       y       z     vdW  Elec       q    Type
REMARK                         _______ _______ _______ _____ _____    ______ ____
ROOT
ATOM      1  C   UNL     1      -9.927  -0.236  20.835  0.00  0.00    +0.000 C 
ATOM      2  O   UNL     1      -9.818  -0.287  19.603  0.00  0.00    +0.000 OA
ATOM      3  N   UNL     1      -9.394  -1.327  21.566  0.00  0.00    +0.000 N 
ATOM      4  C   UNL     1      -9.081  -2.570  20.999  0.00  0.00    +0.000 A 
ATOM      5  C   UNL     1      -9.384  -3.164  19.762  0.00  0.00    +0.000 A 
ATOM      6  C   UNL     1      -8.543  -4.201  19.370  0.00  0.00    +0.000 A 
ATOM      7  C   UNL     1      -7.445  -4.570  20.136  0.00  0.00    +0.000 A 
ATOM      8  C   UNL     1      -7.337  -4.165  21.457  0.00  0.00    +0.000 A 
ATOM      9  C   UNL     1      -8.265  -3.218  21.917  0.00  0.00    +0.000 A 
ATOM     10  C   UNL     1      -8.691  -2.729  23.170  0.00  0.00    +0.000 A 
ATOM     11  C   UNL     1      -8.691  -3.226  24.488  0.00  0.00    +0.000 A 
ATOM     12  C   UNL     1      -8.913  -2.347  25.546  0.00  0.00    +0.000 A 
ATOM     13  C   UNL     1      -8.925  -0.985  25.285  0.00  0.00    +0.000 A 
ATOM     14  C   UNL     1      -8.958  -0.491  23.976  0.00  0.00    +0.000 A 
ATOM     15  C   UNL     1      -9.063  -1.405  22.926  0.00  0.00    +0.000 A 
ATOM     16  H   UNL     1     -10.172  -2.786  19.121  0.00  0.00    +0.000 HD
ATOM     17  H   UNL     1      -6.525  -4.512  22.087  0.00  0.00    +0.000 HD
ATOM     18  H   UNL     1      -8.557  -4.290  24.668  0.00  0.00    +0.000 HD
ATOM     19  H   UNL     1      -8.985  -2.739  26.555  0.00  0.00    +0.000 HD
ENDROOT
BRANCH   1  23
ATOM     20  C   UNL     1     -12.177   3.177  22.059  0.00  0.00    +0.000 A 
ATOM     21  C   UNL     1     -12.563   1.909  22.509  0.00  0.00    +0.000 A 
ATOM     22  C   UNL     1     -11.812   0.789  22.150  0.00  0.00    +0.000 A 
ATOM     23  C   UNL     1     -10.657   0.935  21.371  0.00  0.00    +0.000 A 
ATOM     24  C   UNL     1     -10.274   2.216  20.935  0.00  0.00    +0.000 A 
ATOM     25  C   UNL     1     -11.035   3.338  21.272  0.00  0.00    +0.000 A 
ATOM     26  H   UNL     1     -13.467   1.778  23.098  0.00  0.00    +0.000 HD
ATOM     27  H   UNL     1     -12.158  -0.192  22.467  0.00  0.00    +0.000 HD
ATOM     28  H   UNL     1      -9.404   2.333  20.292  0.00  0.00    +0.000 HD
ATOM     29  H   UNL     1     -10.754   4.312  20.878  0.00  0.00    +0.000 HD
BRANCH  20  30
ATOM     30  S   UNL     1     -13.261   4.560  22.337  0.00  0.00    +0.000 S 
ATOM     31  O   UNL     1     -13.478   4.660  23.765  0.00  0.00    +0.000 OA
ATOM     32  O   UNL     1     -14.371   4.434  21.429  0.00  0.00    +0.000 OA
BRANCH  30  33
ATOM     33  C   UNL     1     -12.313   5.972  21.827  0.00  0.00    +0.000 C 
ATOM     34  H   UNL     1     -11.437   5.606  21.293  0.00  0.00    +0.000 HD
ATOM     35  H   UNL     1     -11.997   6.526  22.715  0.00  0.00    +0.000 HD
ATOM     36  H   UNL     1     -12.917   6.596  21.172  0.00  0.00    +0.000 HD
ENDBRANCH  30  33
ENDBRANCH  20  30
ENDBRANCH   1  23
BRANCH   6  37
ATOM     37  O   UNL     1      -8.759  -4.880  18.204  0.00  0.00    +0.000 OA
ATOM     38  H   UNL     1      -9.710  -5.092  18.195  0.00  0.00    +0.000 HD
ENDBRANCH   6  37
BRANCH   7  39
ATOM     39  O   UNL     1      -6.472  -5.359  19.592  0.00  0.00    +0.000 OA
ATOM     40  H   UNL     1      -5.833  -4.721  19.213  0.00  0.00    +0.000 HD
ENDBRANCH   7  39
BRANCH  13  41
ATOM     41  O   UNL     1      -8.887  -0.072  26.304  0.00  0.00    +0.000 OA
ATOM     42  H   UNL     1      -7.953   0.102  26.516  0.00  0.00    +0.000 HD
ENDBRANCH  13  41
BRANCH  14  43
ATOM     43  O   UNL     1      -8.805   0.853  23.758  0.00  0.00    +0.000 OA
ATOM     44  H   UNL     1      -7.847   0.960  23.588  0.00  0.00    +0.000 HD
ENDBRANCH  14  43
TORSDOF 7
ENDMDL
MODEL 5
REMARK VINA RESULT:    -7.345      2.808      7.574
REMARK INTER + INTRA:          -9.691
REMARK INTER:                  -9.311
REMARK INTRA:                  -0.380
REMARK UNBOUND:                -0.415
REMARK  Name = 
REMARK  7 active torsions:
REMARK  status: ('A' for Active; 'I' for Inactive)
REMARK    1  A    between atoms: C_1  and  S_2
REMARK    2  A    between atoms: S_2  and  C_5
REMARK    3  A    between atoms: C_8  and  C_9
REMARK    4  A    between atoms: C_14  and  O_15
REMARK    5  A    between atoms: C_16  and  O_17
REMARK    6  A    between atoms: C_23  and  O_24
REMARK    7  A    between atoms: C_25  and  O_26
REMARK                            x       y       z     vdW  Elec       q    Type
REMARK                         _______ _______ _______ _____ _____    ______ ____
ROOT
ATOM      1  C   UNL     1     -10.563  -1.747  17.930  0.00  0.00    +0.000 C 
ATOM      2  O   UNL     1     -10.609  -0.686  17.296  0.00  0.00    +0.000 OA
ATOM      3  N   UNL     1     -10.697  -2.943  17.180  0.00  0.00    +0.000 N 
ATOM      4  C   UNL     1     -11.208  -2.994  15.876  0.00  0.00    +0.000 A 
ATOM      5  C   UNL     1     -11.902  -2.068  15.080  0.00  0.00    +0.000 A 
ATOM      6  C   UNL     1     -11.851  -2.294  13.708  0.00  0.00    +0.000 A 
ATOM      7  C   UNL     1     -11.106  -3.338  13.176  0.00  0.00    +0.000 A 
ATOM      8  C   UNL     1     -10.671  -4.379  13.981  0.00  0.00    +0.000 A 
ATOM      9  C   UNL     1     -10.840  -4.233  15.367  0.00  0.00    +0.000 A 
ATOM     10  C   UNL     1     -10.797  -5.077  16.496  0.00  0.00    +0.000 A 
ATOM     11  C   UNL     1     -10.971  -6.457  16.718  0.00  0.00    +0.000 A 
ATOM     12  C   UNL     1     -10.555  -7.009  17.929  0.00  0.00    +0.000 A 
ATOM     13  C   UNL     1      -9.801  -6.226  18.789  0.00  0.00    +0.000 A 
ATOM     14  C   UNL     1      -9.654  -4.849  18.587  0.00  0.00    +0.000 A 
ATOM     15  C   UNL     1     -10.356  -4.255  17.536  0.00  0.00    +0.000 A 
ATOM     16  H   UNL     1     -12.379  -1.191  15.503  0.00  0.00    +0.000 HD
ATOM     17  H   UNL     1     -10.159  -5.238  13.562  0.00  0.00    +0.000 HD
ATOM     18  H   UNL     1     -11.461  -7.072  15.967  0.00  0.00    +0.000 HD
ATOM     19  H   UNL     1     -10.753  -8.056  18.130  0.00  0.00    +0.000 HD
ENDROOT
BRANCH   1  23
ATOM     20  C   UNL     1     -10.163  -1.728  22.179  0.00  0.00    +0.000 A 
ATOM     21  C   UNL     1      -9.093  -1.289  21.392  0.00  0.00    +0.000 A 
ATOM     22  C   UNL     1      -9.225  -1.251  20.003  0.00  0.00    +0.000 A 
ATOM     23  C   UNL     1     -10.434  -1.618  19.399  0.00  0.00    +0.000 A 
ATOM     24  C   UNL     1     -11.506  -2.046  20.203  0.00  0.00    +0.000 A 
ATOM     25  C   UNL     1     -11.372  -2.109  21.592  0.00  0.00    +0.000 A 
ATOM     26  H   UNL     1      -8.142  -1.019  21.845  0.00  0.00    +0.000 HD
ATOM     27  H   UNL     1      -8.364  -0.956  19.407  0.00  0.00    +0.000 HD
ATOM     28  H   UNL     1     -12.434  -2.376  19.739  0.00  0.00    +0.000 HD
ATOM     29  H   UNL     1     -12.193  -2.497  22.191  0.00  0.00    +0.000 HD
BRANCH  20  30
ATOM     30  S   UNL     1      -9.909  -1.982  23.921  0.00  0.00    +0.000 S 
ATOM     31  O   UNL     1     -11.098  -2.622  24.443  0.00  0.00    +0.000 OA
ATOM     32  O   UNL     1      -9.433  -0.743  24.478  0.00  0.00    +0.000 OA
BRANCH  30  33
ATOM     33  C   UNL     1      -8.576  -3.152  24.006  0.00  0.00    +0.000 C 
ATOM     34  H   UNL     1      -7.949  -3.001  23.128  0.00  0.00    +0.000 HD
ATOM     35  H   UNL     1      -8.990  -4.163  23.994  0.00  0.00    +0.000 HD
ATOM     36  H   UNL     1      -7.999  -2.978  24.912  0.00  0.00    +0.000 HD
ENDBRANCH  30  33
ENDBRANCH  20  30
ENDBRANCH   1  23
BRANCH   6  37
ATOM     37  O   UNL     1     -12.517  -1.481  12.835  0.00  0.00    +0.000 OA
ATOM     38  H   UNL     1     -12.142  -1.676  11.956  0.00  0.00    +0.000 HD
ENDBRANCH   6  37
BRANCH   7  39
ATOM     39  O   UNL     1     -10.817  -3.354  11.841  0.00  0.00    +0.000 OA
ATOM     40  H   UNL     1     -11.497  -2.774  11.444  0.00  0.00    +0.000 HD
ENDBRANCH   7  39
BRANCH  13  41
ATOM     41  O   UNL     1      -9.156  -6.778  19.864  0.00  0.00    +0.000 OA
ATOM     42  H   UNL     1      -9.061  -6.087  20.543  0.00  0.00    +0.000 HD
ENDBRANCH  13  41
BRANCH  14  43
ATOM     43  O   UNL     1      -8.774  -4.143  19.364  0.00  0.00    +0.000 OA
ATOM     44  H   UNL     1      -9.212  -4.095  20.238  0.00  0.00    +0.000 HD
ENDBRANCH  14  43
TORSDOF 7
ENDMDL
MODEL 6
REMARK VINA RESULT:    -7.282      3.062      5.623
REMARK INTER + INTRA:          -9.613
REMARK INTER:                  -9.204
REMARK INTRA:                  -0.409
REMARK UNBOUND:                -0.415
REMARK  Name = 
REMARK  7 active torsions:
REMARK  status: ('A' for Active; 'I' for Inactive)
REMARK    1  A    between atoms: C_1  and  S_2
REMARK    2  A    between atoms: S_2  and  C_5
REMARK    3  A    between atoms: C_8  and  C_9
REMARK    4  A    between atoms: C_14  and  O_15
REMARK    5  A    between atoms: C_16  and  O_17
REMARK    6  A    between atoms: C_23  and  O_24
REMARK    7  A    between atoms: C_25  and  O_26
REMARK                            x       y       z     vdW  Elec       q    Type
REMARK                         _______ _______ _______ _____ _____    ______ ____
ROOT
ATOM      1  C   UNL     1      -9.337  -4.294  18.797  0.00  0.00    +0.000 C 
ATOM      2  O   UNL     1      -8.627  -4.152  19.800  0.00  0.00    +0.000 OA
ATOM      3  N   UNL     1     -10.065  -3.156  18.367  0.00  0.00    +0.000 N 
ATOM      4  C   UNL     1     -10.301  -2.031  19.167  0.00  0.00    +0.000 A 
ATOM      5  C   UNL     1     -10.153  -1.782  20.542  0.00  0.00    +0.000 A 
ATOM      6  C   UNL     1     -10.050  -0.443  20.905  0.00  0.00    +0.000 A 
ATOM      7  C   UNL     1     -10.036   0.565  19.951  0.00  0.00    +0.000 A 
ATOM      8  C   UNL     1     -10.457   0.317  18.653  0.00  0.00    +0.000 A 
ATOM      9  C   UNL     1     -10.702  -1.020  18.303  0.00  0.00    +0.000 A 
ATOM     10  C   UNL     1     -11.354  -1.697  17.251  0.00  0.00    +0.000 A 
ATOM     11  C   UNL     1     -12.370  -1.372  16.332  0.00  0.00    +0.000 A 
ATOM     12  C   UNL     1     -12.565  -2.185  15.216  0.00  0.00    +0.000 A 
ATOM     13  C   UNL     1     -11.626  -3.167  14.941  0.00  0.00    +0.000 A 
ATOM     14  C   UNL     1     -10.636  -3.514  15.868  0.00  0.00    +0.000 A 
ATOM     15  C   UNL     1     -10.660  -2.904  17.123  0.00  0.00    +0.000 A 
ATOM     16  H   UNL     1     -10.045  -2.586  21.263  0.00  0.00    +0.000 HD
ATOM     17  H   UNL     1     -10.526   1.114  17.922  0.00  0.00    +0.000 HD
ATOM     18  H   UNL     1     -13.017  -0.517  16.516  0.00  0.00    +0.000 HD
ATOM     19  H   UNL     1     -13.392  -1.976  14.547  0.00  0.00    +0.000 HD
ENDROOT
BRANCH   1  23
ATOM     20  C   UNL     1      -9.604  -8.079  16.845  0.00  0.00    +0.000 A 
ATOM     21  C   UNL     1      -8.359  -7.447  16.937  0.00  0.00    +0.000 A 
ATOM     22  C   UNL     1      -8.250  -6.228  17.609  0.00  0.00    +0.000 A 
ATOM     23  C   UNL     1      -9.374  -5.656  18.219  0.00  0.00    +0.000 A 
ATOM     24  C   UNL     1     -10.617  -6.308  18.128  0.00  0.00    +0.000 A 
ATOM     25  C   UNL     1     -10.737  -7.516  17.437  0.00  0.00    +0.000 A 
ATOM     26  H   UNL     1      -7.482  -7.869  16.453  0.00  0.00    +0.000 HD
ATOM     27  H   UNL     1      -7.285  -5.728  17.625  0.00  0.00    +0.000 HD
ATOM     28  H   UNL     1     -11.504  -5.848  18.560  0.00  0.00    +0.000 HD
ATOM     29  H   UNL     1     -11.716  -7.976  17.330  0.00  0.00    +0.000 HD
BRANCH  20  30
ATOM     30  S   UNL     1      -9.771  -9.511  15.802  0.00  0.00    +0.000 S 
ATOM     31  O   UNL     1      -8.722  -9.446  14.806  0.00  0.00    +0.000 OA
ATOM     32  O   UNL     1     -11.153  -9.608  15.412  0.00  0.00    +0.000 OA
BRANCH  30  33
ATOM     33  C   UNL     1      -9.422 -10.881  16.875  0.00  0.00    +0.000 C 
ATOM     34  H   UNL     1      -9.016 -11.685  16.262  0.00  0.00    +0.000 HD
ATOM     35  H   UNL     1     -10.353 -11.211  17.344  0.00  0.00    +0.000 HD
ATOM     36  H   UNL     1      -8.694 -10.579  17.625  0.00  0.00    +0.000 HD
ENDBRANCH  30  33
ENDBRANCH  20  30
ENDBRANCH   1  23
BRANCH   6  37
ATOM     37  O   UNL     1      -9.937  -0.075  22.217  0.00  0.00    +0.000 OA
ATOM     38  H   UNL     1      -9.257   0.623  22.237  0.00  0.00    +0.000 HD
ENDBRANCH   6  37
BRANCH   7  39
ATOM     39  O   UNL     1      -9.625   1.821  20.295  0.00  0.00    +0.000 OA
ATOM     40  H   UNL     1      -9.749   2.344  19.477  0.00  0.00    +0.000 HD
ENDBRANCH   7  39
BRANCH  13  41
ATOM     41  O   UNL     1     -11.624  -3.824  13.740  0.00  0.00    +0.000 OA
ATOM     42  H   UNL     1     -11.995  -4.713  13.884  0.00  0.00    +0.000 HD
ENDBRANCH  13  41
BRANCH  14  43
ATOM     43  O   UNL     1      -9.635  -4.371  15.496  0.00  0.00    +0.000 OA
ATOM     44  H   UNL     1     -10.087  -5.043  14.945  0.00  0.00    +0.000 HD
ENDBRANCH  14  43
TORSDOF 7
ENDMDL
MODEL 7
REMARK VINA RESULT:    -7.258      3.298      6.619
REMARK INTER + INTRA:          -9.582
REMARK INTER:                  -9.171
REMARK INTRA:                  -0.411
REMARK UNBOUND:                -0.415
REMARK  Name = 
REMARK  7 active torsions:
REMARK  status: ('A' for Active; 'I' for Inactive)
REMARK    1  A    between atoms: C_1  and  S_2
REMARK    2  A    between atoms: S_2  and  C_5
REMARK    3  A    between atoms: C_8  and  C_9
REMARK    4  A    between atoms: C_14  and  O_15
REMARK    5  A    between atoms: C_16  and  O_17
REMARK    6  A    between atoms: C_23  and  O_24
REMARK    7  A    between atoms: C_25  and  O_26
REMARK                            x       y       z     vdW  Elec       q    Type
REMARK                         _______ _______ _______ _____ _____    ______ ____
ROOT
ATOM      1  C   UNL     1     -11.087  -2.225  18.910  0.00  0.00    +0.000 C 
ATOM      2  O   UNL     1     -11.789  -2.336  17.897  0.00  0.00    +0.000 OA
ATOM      3  N   UNL     1     -10.115  -3.235  19.124  0.00  0.00    +0.000 N 
ATOM      4  C   UNL     1     -10.131  -4.482  18.485  0.00  0.00    +0.000 A 
ATOM      5  C   UNL     1     -11.102  -5.163  17.732  0.00  0.00    +0.000 A 
ATOM      6  C   UNL     1     -10.621  -6.159  16.888  0.00  0.00    +0.000 A 
ATOM      7  C   UNL     1      -9.260  -6.408  16.766  0.00  0.00    +0.000 A 
ATOM      8  C   UNL     1      -8.366  -5.924  17.709  0.00  0.00    +0.000 A 
ATOM      9  C   UNL     1      -8.862  -5.020  18.660  0.00  0.00    +0.000 A 
ATOM     10  C   UNL     1      -8.426  -4.495  19.895  0.00  0.00    +0.000 A 
ATOM     11  C   UNL     1      -7.538  -4.917  20.902  0.00  0.00    +0.000 A 
ATOM     12  C   UNL     1      -7.106  -3.999  21.858  0.00  0.00    +0.000 A 
ATOM     13  C   UNL     1      -7.402  -2.658  21.669  0.00  0.00    +0.000 A 
ATOM     14  C   UNL     1      -8.311  -2.239  20.690  0.00  0.00    +0.000 A 
ATOM     15  C   UNL     1      -8.984  -3.214  19.951  0.00  0.00    +0.000 A 
ATOM     16  H   UNL     1     -12.148  -4.876  17.749  0.00  0.00    +0.000 HD
ATOM     17  H   UNL     1      -7.313  -6.180  17.667  0.00  0.00    +0.000 HD
ATOM     18  H   UNL     1      -7.226  -5.958  20.951  0.00  0.00    +0.000 HD
ATOM     19  H   UNL     1      -6.479  -4.339  22.675  0.00  0.00    +0.000 HD
ENDROOT
BRANCH   1  23
ATOM     20  C   UNL     1     -11.684   1.019  21.617  0.00  0.00    +0.000 A 
ATOM     21  C   UNL     1     -11.378   1.296  20.280  0.00  0.00    +0.000 A 
ATOM     22  C   UNL     1     -11.221   0.245  19.375  0.00  0.00    +0.000 A 
ATOM     23  C   UNL     1     -11.402  -1.080  19.794  0.00  0.00    +0.000 A 
ATOM     24  C   UNL     1     -11.721  -1.343  21.138  0.00  0.00    +0.000 A 
ATOM     25  C   UNL     1     -11.856  -0.297  22.054  0.00  0.00    +0.000 A 
ATOM     26  H   UNL     1     -11.216   2.317  19.945  0.00  0.00    +0.000 HD
ATOM     27  H   UNL     1     -10.933   0.478  18.353  0.00  0.00    +0.000 HD
ATOM     28  H   UNL     1     -11.818  -2.371  21.481  0.00  0.00    +0.000 HD
ATOM     29  H   UNL     1     -12.046  -0.524  23.100  0.00  0.00    +0.000 HD
BRANCH  20  30
ATOM     30  S   UNL     1     -11.662   2.346  22.802  0.00  0.00    +0.000 S 
ATOM     31  O   UNL     1     -10.522   2.134  23.669  0.00  0.00    +0.000 OA
ATOM     32  O   UNL     1     -12.990   2.469  23.345  0.00  0.00    +0.000 OA
BRANCH  30  33
ATOM     33  C   UNL     1     -11.347   3.799  21.831  0.00  0.00    +0.000 C 
ATOM     34  H   UNL     1     -11.807   3.649  20.855  0.00  0.00    +0.000 HD
ATOM     35  H   UNL     1     -10.267   3.920  21.713  0.00  0.00    +0.000 HD
ATOM     36  H   UNL     1     -11.786   4.665  22.322  0.00  0.00    +0.000 HD
ENDBRANCH  30  33
ENDBRANCH  20  30
ENDBRANCH   1  23
BRANCH   6  37
ATOM     37  O   UNL     1     -11.473  -6.914  16.132  0.00  0.00    +0.000 OA
ATOM     38  H   UNL     1     -12.207  -6.319  15.891  0.00  0.00    +0.000 HD
ENDBRANCH   6  37
BRANCH   7  39
ATOM     39  O   UNL     1      -8.798  -7.156  15.722  0.00  0.00    +0.000 OA
ATOM     40  H   UNL     1      -8.146  -6.573  15.282  0.00  0.00    +0.000 HD
ENDBRANCH   7  39
BRANCH  13  41
ATOM     41  O   UNL     1      -6.801  -1.689  22.428  0.00  0.00    +0.000 OA
ATOM     42  H   UNL     1      -6.419  -2.119  23.214  0.00  0.00    +0.000 HD
ENDBRANCH  13  41
BRANCH  14  43
ATOM     43  O   UNL     1      -8.453  -0.903  20.429  0.00  0.00    +0.000 OA
ATOM     44  H   UNL     1      -8.621  -0.863  19.465  0.00  0.00    +0.000 HD
ENDBRANCH  14  43
TORSDOF 7
ENDMDL
MODEL 8
REMARK VINA RESULT:    -7.215      1.788      2.036
REMARK INTER + INTRA:          -9.528
REMARK INTER:                  -9.116
REMARK INTRA:                  -0.412
REMARK UNBOUND:                -0.415
REMARK  Name = 
REMARK  7 active torsions:
REMARK  status: ('A' for Active; 'I' for Inactive)
REMARK    1  A    between atoms: C_1  and  S_2
REMARK    2  A    between atoms: S_2  and  C_5
REMARK    3  A    between atoms: C_8  and  C_9
REMARK    4  A    between atoms: C_14  and  O_15
REMARK    5  A    between atoms: C_16  and  O_17
REMARK    6  A    between atoms: C_23  and  O_24
REMARK    7  A    between atoms: C_25  and  O_26
REMARK                            x       y       z     vdW  Elec       q    Type
REMARK                         _______ _______ _______ _____ _____    ______ ____
ROOT
ATOM      1  C   UNL     1     -10.141  -0.507  20.803  0.00  0.00    +0.000 C 
ATOM      2  O   UNL     1     -10.770   0.318  21.478  0.00  0.00    +0.000 OA
ATOM      3  N   UNL     1      -9.341  -1.435  21.517  0.00  0.00    +0.000 N 
ATOM      4  C   UNL     1      -8.953  -1.267  22.853  0.00  0.00    +0.000 A 
ATOM      5  C   UNL     1      -8.991  -0.173  23.733  0.00  0.00    +0.000 A 
ATOM      6  C   UNL     1      -8.948  -0.487  25.088  0.00  0.00    +0.000 A 
ATOM      7  C   UNL     1      -8.931  -1.805  25.524  0.00  0.00    +0.000 A 
ATOM      8  C   UNL     1      -8.617  -2.835  24.649  0.00  0.00    +0.000 A 
ATOM      9  C   UNL     1      -8.518  -2.512  23.287  0.00  0.00    +0.000 A 
ATOM     10  C   UNL     1      -7.998  -3.125  22.128  0.00  0.00    +0.000 A 
ATOM     11  C   UNL     1      -7.017  -4.102  21.868  0.00  0.00    +0.000 A 
ATOM     12  C   UNL     1      -6.969  -4.701  20.610  0.00  0.00    +0.000 A 
ATOM     13  C   UNL     1      -8.009  -4.465  19.724  0.00  0.00    +0.000 A 
ATOM     14  C   UNL     1      -8.966  -3.472  19.965  0.00  0.00    +0.000 A 
ATOM     15  C   UNL     1      -8.806  -2.657  21.088  0.00  0.00    +0.000 A 
ATOM     16  H   UNL     1      -9.125   0.844  23.381  0.00  0.00    +0.000 HD
ATOM     17  H   UNL     1      -8.522  -3.858  24.997  0.00  0.00    +0.000 HD
ATOM     18  H   UNL     1      -6.285  -4.354  22.632  0.00  0.00    +0.000 HD
ATOM     19  H   UNL     1      -6.171  -5.400  20.387  0.00  0.00    +0.000 HD
ENDROOT
BRANCH   1  23
ATOM     20  C   UNL     1     -10.319  -0.420  16.541  0.00  0.00    +0.000 A 
ATOM     21  C   UNL     1     -11.478  -0.723  17.265  0.00  0.00    +0.000 A 
ATOM     22  C   UNL     1     -11.444  -0.715  18.660  0.00  0.00    +0.000 A 
ATOM     23  C   UNL     1     -10.265  -0.370  19.334  0.00  0.00    +0.000 A 
ATOM     24  C   UNL     1      -9.111  -0.056  18.594  0.00  0.00    +0.000 A 
ATOM     25  C   UNL     1      -9.133  -0.086  17.198  0.00  0.00    +0.000 A 
ATOM     26  H   UNL     1     -12.394  -1.010  16.756  0.00  0.00    +0.000 HD
ATOM     27  H   UNL     1     -12.340  -1.004  19.203  0.00  0.00    +0.000 HD
ATOM     28  H   UNL     1      -8.180   0.168  19.111  0.00  0.00    +0.000 HD
ATOM     29  H   UNL     1      -8.216   0.105  16.645  0.00  0.00    +0.000 HD
BRANCH  20  30
ATOM     30  S   UNL     1     -10.317  -0.649  14.777  0.00  0.00    +0.000 S 
ATOM     31  O   UNL     1      -9.004  -1.132  14.405  0.00  0.00    +0.000 OA
ATOM     32  O   UNL     1     -10.862   0.542  14.180  0.00  0.00    +0.000 OA
BRANCH  30  33
ATOM     33  C   UNL     1     -11.480  -1.962  14.501  0.00  0.00    +0.000 C 
ATOM     34  H   UNL     1     -11.468  -2.603  15.383  0.00  0.00    +0.000 HD
ATOM     35  H   UNL     1     -11.166  -2.536  13.626  0.00  0.00    +0.000 HD
ATOM     36  H   UNL     1     -12.473  -1.542  14.358  0.00  0.00    +0.000 HD
ENDBRANCH  30  33
ENDBRANCH  20  30
ENDBRANCH   1  23
BRANCH   6  37
ATOM     37  O   UNL     1      -8.943   0.494  26.039  0.00  0.00    +0.000 OA
ATOM     38  H   UNL     1      -8.022   0.814  26.082  0.00  0.00    +0.000 HD
ENDBRANCH   6  37
BRANCH   7  39
ATOM     39  O   UNL     1      -9.202  -2.092  26.830  0.00  0.00    +0.000 OA
ATOM     40  H   UNL     1      -9.947  -1.498  27.055  0.00  0.00    +0.000 HD
ENDBRANCH   7  39
BRANCH  13  41
ATOM     41  O   UNL     1      -8.147  -5.211  18.584  0.00  0.00    +0.000 OA
ATOM     42  H   UNL     1      -8.856  -4.811  18.049  0.00  0.00    +0.000 HD
ENDBRANCH  13  41
BRANCH  14  43
ATOM     43  O   UNL     1     -10.063  -3.380  19.151  0.00  0.00    +0.000 OA
ATOM     44  H   UNL     1     -10.794  -3.148  19.759  0.00  0.00    +0.000 HD
ENDBRANCH  14  43
TORSDOF 7
ENDMDL
MODEL 9
REMARK VINA RESULT:    -7.010      3.245      5.349
REMARK INTER + INTRA:          -9.268
REMARK INTER:                  -8.727
REMARK INTRA:                  -0.541
REMARK UNBOUND:                -0.415
REMARK  Name = 
REMARK  7 active torsions:
REMARK  status: ('A' for Active; 'I' for Inactive)
REMARK    1  A    between atoms: C_1  and  S_2
REMARK    2  A    between atoms: S_2  and  C_5
REMARK    3  A    between atoms: C_8  and  C_9
REMARK    4  A    between atoms: C_14  and  O_15
REMARK    5  A    between atoms: C_16  and  O_17
REMARK    6  A    between atoms: C_23  and  O_24
REMARK    7  A    between atoms: C_25  and  O_26
REMARK                            x       y       z     vdW  Elec       q    Type
REMARK                         _______ _______ _______ _____ _____    ______ ____
ROOT
ATOM      1  C   UNL     1     -10.936  -0.372  20.126  0.00  0.00    +0.000 C 
ATOM      2  O   UNL     1     -11.444   0.382  19.286  0.00  0.00    +0.000 OA
ATOM      3  N   UNL     1     -10.589   0.207  21.373  0.00  0.00    +0.000 N 
ATOM      4  C   UNL     1     -10.460   1.586  21.585  0.00  0.00    +0.000 A 
ATOM      5  C   UNL     1     -10.382   2.688  20.716  0.00  0.00    +0.000 A 
ATOM      6  C   UNL     1     -10.713   3.920  21.273  0.00  0.00    +0.000 A 
ATOM      7  C   UNL     1     -11.148   4.025  22.587  0.00  0.00    +0.000 A 
ATOM      8  C   UNL     1     -10.951   2.985  23.483  0.00  0.00    +0.000 A 
ATOM      9  C   UNL     1     -10.483   1.769  22.961  0.00  0.00    +0.000 A 
ATOM     10  C   UNL     1      -9.919   0.585  23.480  0.00  0.00    +0.000 A 
ATOM     11  C   UNL     1      -9.210   0.245  24.650  0.00  0.00    +0.000 A 
ATOM     12  C   UNL     1      -9.063  -1.099  24.989  0.00  0.00    +0.000 A 
ATOM     13  C   UNL     1      -9.789  -2.045  24.281  0.00  0.00    +0.000 A 
ATOM     14  C   UNL     1     -10.466  -1.715  23.101  0.00  0.00    +0.000 A 
ATOM     15  C   UNL     1     -10.330  -0.419  22.599  0.00  0.00    +0.000 A 
ATOM     16  H   UNL     1     -10.156   2.573  19.662  0.00  0.00    +0.000 HD
ATOM     17  H   UNL     1     -11.214   3.087  24.529  0.00  0.00    +0.000 HD
ATOM     18  H   UNL     1      -8.753   1.024  25.254  0.00  0.00    +0.000 HD
ATOM     19  H   UNL     1      -8.458  -1.365  25.849  0.00  0.00    +0.000 HD
ENDROOT
BRANCH   1  23
ATOM     20  C   UNL     1     -10.299  -4.277  18.529  0.00  0.00    +0.000 A 
ATOM     21  C   UNL     1      -9.219  -3.586  19.090  0.00  0.00    +0.000 A 
ATOM     22  C   UNL     1      -9.422  -2.325  19.653  0.00  0.00    +0.000 A 
ATOM     23  C   UNL     1     -10.706  -1.767  19.689  0.00  0.00    +0.000 A 
ATOM     24  C   UNL     1     -11.784  -2.478  19.132  0.00  0.00    +0.000 A 
ATOM     25  C   UNL     1     -11.584  -3.730  18.547  0.00  0.00    +0.000 A 
ATOM     26  H   UNL     1      -8.214  -3.998  19.052  0.00  0.00    +0.000 HD
ATOM     27  H   UNL     1      -8.561  -1.783  20.036  0.00  0.00    +0.000 HD
ATOM     28  H   UNL     1     -12.777  -2.032  19.115  0.00  0.00    +0.000 HD
ATOM     29  H   UNL     1     -12.419  -4.238  18.071  0.00  0.00    +0.000 HD
BRANCH  20  30
ATOM     30  S   UNL     1      -9.989  -5.776  17.622  0.00  0.00    +0.000 S 
ATOM     31  O   UNL     1      -9.969  -5.434  16.215  0.00  0.00    +0.000 OA
ATOM     32  O   UNL     1     -10.887  -6.784  18.124  0.00  0.00    +0.000 OA
BRANCH  30  33
ATOM     33  C   UNL     1      -8.344  -6.246  18.094  0.00  0.00    +0.000 C 
ATOM     34  H   UNL     1      -8.356  -6.461  19.162  0.00  0.00    +0.000 HD
ATOM     35  H   UNL     1      -7.666  -5.412  17.895  0.00  0.00    +0.000 HD
ATOM     36  H   UNL     1      -8.046  -7.132  17.537  0.00  0.00    +0.000 HD
ENDBRANCH  30  33
ENDBRANCH  20  30
ENDBRANCH   1  23
BRANCH   6  37
ATOM     37  O   UNL     1     -10.640   5.068  20.536  0.00  0.00    +0.000 OA
ATOM     38  H   UNL     1     -11.017   5.768  21.101  0.00  0.00    +0.000 HD
ENDBRANCH   6  37
BRANCH   7  39
ATOM     39  O   UNL     1     -11.757   5.171  23.011  0.00  0.00    +0.000 OA
ATOM     40  H   UNL     1     -12.708   4.941  23.035  0.00  0.00    +0.000 HD
ENDBRANCH   7  39
BRANCH  13  41
ATOM     41  O   UNL     1      -9.882  -3.338  24.722  0.00  0.00    +0.000 OA
ATOM     42  H   UNL     1     -10.790  -3.647  24.553  0.00  0.00    +0.000 HD
ENDBRANCH  13  41
BRANCH  14  43
ATOM     43  O   UNL     1     -11.299  -2.635  22.522  0.00  0.00    +0.000 OA
ATOM     44  H   UNL     1     -11.954  -2.839  23.221  0.00  0.00    +0.000 HD
ENDBRANCH  14  43
TORSDOF 7
ENDMDL
