REMARK  Name = 
REMARK  8 active torsions:
REMARK  status: ('A' for Active; 'I' for Inactive)
REMARK    1  A    between atoms: N_1  and  C_2
REMARK    2  A    between atoms: C_2  and  C_3
REMARK    3  A    between atoms: C_3  and  N_4
REMARK    4  A    between atoms: N_4  and  C_5
REMARK    5  A    between atoms: C_5  and  C_6
REMARK    6  A    between atoms: C_6  and  N_7
REMARK    7  A    between atoms: N_7  and  C_8
REMARK    8  A    between atoms: C_9  and  C_10
REMARK                            x       y       z     vdW  Elec       q    Type
REMARK                         _______ _______ _______ _____ _____    ______ ____
ROOT
ATOM      1  C   UNL     1       1.612   0.547   0.861  0.00  0.00    +0.000 C 
ATOM      2  C   UNL     1       2.580   0.267  -0.023  0.00  0.00    +0.000 C 
ATOM      3  C   UNL     1       3.874   0.634   0.601  0.00  0.00    +0.000 C 
ATOM      4  O   UNL     1       4.984   0.498   0.122  0.00  0.00    +0.000 OA
ATOM      5  N   UNL     1       3.600   1.153   1.820  0.00  0.00    +0.000 N 
ATOM      6  C   UNL     1       2.275   1.158   2.047  0.00  0.00    +0.000 C 
ATOM      7  O   UNL     1       1.682   1.574   3.027  0.00  0.00    +0.000 OA
ATOM      8  H   UNL     1       4.296   1.503   2.453  0.00  0.00    +0.000 HD
ENDROOT
BRANCH   2   9
ATOM      9  C   UNL     1       2.404  -0.239  -1.330  0.00  0.00    +0.000 A 
ATOM     10  C   UNL     1       3.278  -0.653  -2.316  0.00  0.00    +0.000 A 
ATOM     11  C   UNL     1       2.518  -1.029  -3.458  0.00  0.00    +0.000 A 
ATOM     12  C   UNL     1       2.850  -1.516  -4.736  0.00  0.00    +0.000 A 
ATOM     13  C   UNL     1       1.826  -1.793  -5.649  0.00  0.00    +0.000 A 
ATOM     14  C   UNL     1       0.492  -1.585  -5.306  0.00  0.00    +0.000 A 
ATOM     15  C   UNL     1       0.139  -1.096  -4.044  0.00  0.00    +0.000 A 
ATOM     16  C   UNL     1       1.176  -0.830  -3.142  0.00  0.00    +0.000 A 
ATOM     17  N   UNL     1       1.134  -0.351  -1.854  0.00  0.00    +0.000 N 
ATOM     18  H   UNL     1       4.358  -0.675  -2.233  0.00  0.00    +0.000 HD
ATOM     19  H   UNL     1       3.889  -1.675  -5.011  0.00  0.00    +0.000 HD
ATOM     20  H   UNL     1       2.078  -2.173  -6.636  0.00  0.00    +0.000 HD
ATOM     21  H   UNL     1      -0.289  -1.805  -6.030  0.00  0.00    +0.000 HD
ATOM     22  H   UNL     1      -0.900  -0.930  -3.781  0.00  0.00    +0.000 HD
ATOM     23  H   UNL     1       0.289  -0.101  -1.354  0.00  0.00    +0.000 HD
ENDBRANCH   2   9
BRANCH   1  24
ATOM     24  N   UNL     1       0.226   0.404   0.822  0.00  0.00    +0.000 N 
ATOM     25  H   UNL     1      -0.144   1.150   1.421  0.00  0.00    +0.000 HD
BRANCH  24  26
ATOM     26  C   UNL     1      -0.363  -0.867   1.315  0.00  0.00    +0.000 C 
ATOM     27  H   UNL     1      -0.862  -1.370   0.478  0.00  0.00    +0.000 HD
ATOM     28  H   UNL     1       0.418  -1.542   1.685  0.00  0.00    +0.000 HD
BRANCH  26  29
ATOM     29  C   UNL     1      -1.375  -0.601   2.451  0.00  0.00    +0.000 C 
ATOM     30  H   UNL     1      -1.764  -1.562   2.807  0.00  0.00    +0.000 HD
ATOM     31  H   UNL     1      -0.854  -0.115   3.285  0.00  0.00    +0.000 HD
BRANCH  29  32
ATOM     32  N   UNL     1      -2.481   0.246   1.987  0.00  0.00    +0.000 NA
ATOM     33  H   UNL     1      -2.130   1.120   1.600  0.00  0.00    +0.000 HD
BRANCH  32  34
ATOM     34  C   UNL     1      -3.427   0.529   3.070  0.00  0.00    +0.000 C 
ATOM     35  H   UNL     1      -3.851  -0.410   3.446  0.00  0.00    +0.000 HD
ATOM     36  H   UNL     1      -2.910   1.025   3.901  0.00  0.00    +0.000 HD
BRANCH  34  37
ATOM     37  C   UNL     1      -4.563   1.434   2.562  0.00  0.00    +0.000 C 
ATOM     38  H   UNL     1      -4.150   2.373   2.175  0.00  0.00    +0.000 HD
ATOM     39  H   UNL     1      -5.090   0.942   1.737  0.00  0.00    +0.000 HD
BRANCH  37  40
ATOM     40  N   UNL     1      -5.524   1.742   3.620  0.00  0.00    +0.000 NA
ATOM     41  H   UNL     1      -6.242   2.362   3.247  0.00  0.00    +0.000 HD
ATOM     42  H   UNL     1      -5.060   2.258   4.366  0.00  0.00    +0.000 HD
ENDBRANCH  37  40
ENDBRANCH  34  37
ENDBRANCH  32  34
ENDBRANCH  29  32
ENDBRANCH  26  29
ENDBRANCH  24  26
ENDBRANCH   1  24
TORSDOF 8
