REMARK  Name = 
REMARK  7 active torsions:
REMARK  status: ('A' for Active; 'I' for Inactive)
REMARK    1  A    between atoms: N_1  and  C_2
REMARK    2  A    between atoms: C_2  and  C_3
REMARK    3  A    between atoms: C_2  and  C_21
REMARK    4  A    between atoms: C_3  and  O_4
REMARK    5  A    between atoms: O_4  and  C_5
REMARK    6  A    between atoms: C_9  and  C_10
REMARK    7  A    between atoms: C_21  and  C_22
REMARK                            x       y       z     vdW  Elec       q    Type
REMARK                         _______ _______ _______ _____ _____    ______ ____
ROOT
ATOM      1  O   UNL     1       1.491  -1.932   0.507  0.00  0.00    +0.000 OA
ENDROOT
BRANCH   1   2
ATOM      2  C   UNL     1       0.148  -2.057   0.306  0.00  0.00    +0.000 A 
ATOM      3  C   UNL     1      -0.273  -3.205  -0.362  0.00  0.00    +0.000 A 
ATOM      4  N   UNL     1      -1.561  -3.482  -0.674  0.00  0.00    +0.000 NA
ATOM      5  C   UNL     1      -2.476  -2.545  -0.326  0.00  0.00    +0.000 A 
ATOM      6  C   UNL     1      -2.184  -1.352   0.336  0.00  0.00    +0.000 A 
ATOM      7  C   UNL     1      -0.835  -1.138   0.667  0.00  0.00    +0.000 A 
ATOM      8  H   UNL     1       0.447  -3.951  -0.686  0.00  0.00    +0.000 HD
ATOM      9  H   UNL     1      -3.485  -2.778  -0.655  0.00  0.00    +0.000 HD
ATOM     10  H   UNL     1      -0.579  -0.213   1.174  0.00  0.00    +0.000 HD
BRANCH   6  11
ATOM     11  C   UNL     1      -3.201  -0.309   0.543  0.00  0.00    +0.000 A 
ATOM     12  C   UNL     1      -4.528  -0.588   0.867  0.00  0.00    +0.000 A 
ATOM     13  C   UNL     1      -5.438   0.476   0.764  0.00  0.00    +0.000 A 
ATOM     14  C   UNL     1      -6.823   0.684   0.963  0.00  0.00    +0.000 A 
ATOM     15 CL   UNL     1      -7.927  -0.434   1.594  0.00  0.00    +0.000 Cl
ATOM     16  N   UNL     1      -7.221   1.909   0.606  0.00  0.00    +0.000 NA
ATOM     17  N   UNL     1      -6.082   2.504   0.219  0.00  0.00    +0.000 N 
ATOM     18  C   UNL     1      -4.970   1.723   0.366  0.00  0.00    +0.000 A 
ATOM     19  C   UNL     1      -3.628   1.980   0.179  0.00  0.00    +0.000 A 
ATOM     20  N   UNL     1      -2.759   0.950   0.271  0.00  0.00    +0.000 NA
ATOM     21  H   UNL     1      -4.862  -1.585   1.129  0.00  0.00    +0.000 HD
ATOM     22  H   UNL     1      -6.133   3.448  -0.152  0.00  0.00    +0.000 HD
ATOM     23  H   UNL     1      -3.218   2.952  -0.067  0.00  0.00    +0.000 HD
ENDBRANCH   6  11
ENDBRANCH   1   2
BRANCH   1  24
ATOM     24  C   UNL     1       1.923  -0.769   1.228  0.00  0.00    +0.000 C 
ATOM     25  H   UNL     1       1.521  -0.807   2.249  0.00  0.00    +0.000 HD
ATOM     26  H   UNL     1       1.556   0.143   0.741  0.00  0.00    +0.000 HD
BRANCH  24  27
ATOM     27  C   UNL     1       3.466  -0.718   1.287  0.00  0.00    +0.000 C 
ATOM     28  H   UNL     1       3.751   0.195   1.824  0.00  0.00    +0.000 HD
BRANCH  27  29
ATOM     29  N   UNL     1       3.969  -1.862   2.077  0.00  0.00    +0.000 NA
ATOM     30  H   UNL     1       4.984  -1.897   2.032  0.00  0.00    +0.000 HD
ATOM     31  H   UNL     1       3.629  -2.725   1.647  0.00  0.00    +0.000 HD
ENDBRANCH  27  29
BRANCH  27  32
ATOM     32  C   UNL     1       4.123  -0.710  -0.111  0.00  0.00    +0.000 C 
ATOM     33  H   UNL     1       3.841  -1.608  -0.682  0.00  0.00    +0.000 HD
ATOM     34  H   UNL     1       5.217  -0.771  -0.005  0.00  0.00    +0.000 HD
BRANCH  32  35
ATOM     35  C   UNL     1       3.813   0.524  -0.928  0.00  0.00    +0.000 A 
ATOM     36  C   UNL     1       4.555   1.701  -0.753  0.00  0.00    +0.000 A 
ATOM     37  C   UNL     1       4.261   2.839  -1.507  0.00  0.00    +0.000 A 
ATOM     38  C   UNL     1       3.217   2.816  -2.431  0.00  0.00    +0.000 A 
ATOM     39  C   UNL     1       2.473   1.649  -2.607  0.00  0.00    +0.000 A 
ATOM     40  C   UNL     1       2.768   0.512  -1.863  0.00  0.00    +0.000 A 
ATOM     41  H   UNL     1       5.369   1.735  -0.033  0.00  0.00    +0.000 HD
ATOM     42  H   UNL     1       4.846   3.746  -1.373  0.00  0.00    +0.000 HD
ATOM     43  H   UNL     1       2.985   3.705  -3.014  0.00  0.00    +0.000 HD
ATOM     44  H   UNL     1       1.656   1.631  -3.331  0.00  0.00    +0.000 HD
ATOM     45  H   UNL     1       2.173  -0.388  -2.012  0.00  0.00    +0.000 HD
ENDBRANCH  32  35
ENDBRANCH  27  32
ENDBRANCH  24  27
ENDBRANCH   1  24
TORSDOF 7
