REMARK  Name = 
REMARK  5 active torsions:
REMARK  status: ('A' for Active; 'I' for Inactive)
REMARK    1  A    between atoms: N_1  and  C_2
REMARK    2  A    between atoms: C_2  and  C_3
REMARK    3  A    between atoms: C_3  and  N_4
REMARK    4  A    between atoms: N_4  and  C_5
REMARK    5  A    between atoms: C_6  and  C_7
REMARK                            x       y       z     vdW  Elec       q    Type
REMARK                         _______ _______ _______ _____ _____    ______ ____
ROOT
ATOM      1  C   UNL     1       1.522  -0.540   1.216  0.00  0.00    +0.000 C 
ATOM      2  C   UNL     1       1.368  -1.056  -0.012  0.00  0.00    +0.000 C 
ATOM      3  C   UNL     1       2.269  -2.225  -0.135  0.00  0.00    +0.000 C 
ATOM      4  O   UNL     1       2.342  -2.994  -1.076  0.00  0.00    +0.000 OA
ATOM      5  N   UNL     1       2.989  -2.290   1.004  0.00  0.00    +0.000 N 
ATOM      6  C   UNL     1       2.610  -1.327   1.867  0.00  0.00    +0.000 C 
ATOM      7  O   UNL     1       3.047  -1.127   2.986  0.00  0.00    +0.000 OA
ATOM      8  H   UNL     1       3.686  -2.988   1.197  0.00  0.00    +0.000 HD
ENDROOT
BRANCH   2   9
ATOM      9  C   UNL     1       0.507  -0.571  -1.018  0.00  0.00    +0.000 A 
ATOM     10  C   UNL     1      -0.225  -1.168  -2.024  0.00  0.00    +0.000 A 
ATOM     11  C   UNL     1      -0.884  -0.145  -2.762  0.00  0.00    +0.000 A 
ATOM     12  C   UNL     1      -1.755  -0.140  -3.868  0.00  0.00    +0.000 A 
ATOM     13  C   UNL     1      -2.212   1.083  -4.373  0.00  0.00    +0.000 A 
ATOM     14  C   UNL     1      -1.809   2.287  -3.798  0.00  0.00    +0.000 A 
ATOM     15  C   UNL     1      -0.949   2.305  -2.695  0.00  0.00    +0.000 A 
ATOM     16  C   UNL     1      -0.510   1.075  -2.197  0.00  0.00    +0.000 A 
ATOM     17  N   UNL     1       0.319   0.788  -1.136  0.00  0.00    +0.000 N 
ATOM     18  H   UNL     1      -0.280  -2.233  -2.217  0.00  0.00    +0.000 HD
ATOM     19  H   UNL     1      -2.067  -1.073  -4.326  0.00  0.00    +0.000 HD
ATOM     20  H   UNL     1      -2.883   1.092  -5.229  0.00  0.00    +0.000 HD
ATOM     21  H   UNL     1      -2.166   3.226  -4.213  0.00  0.00    +0.000 HD
ATOM     22  H   UNL     1      -0.632   3.244  -2.253  0.00  0.00    +0.000 HD
ATOM     23  H   UNL     1       0.731   1.480  -0.524  0.00  0.00    +0.000 HD
ENDBRANCH   2   9
BRANCH   1  24
ATOM     24  N   UNL     1       0.881   0.498   1.886  0.00  0.00    +0.000 N 
ATOM     25  H   UNL     1       1.331   0.629   2.808  0.00  0.00    +0.000 HD
BRANCH  24  26
ATOM     26  C   UNL     1      -0.574   0.438   2.120  0.00  0.00    +0.000 C 
ATOM     27  H   UNL     1      -0.968   1.460   2.100  0.00  0.00    +0.000 HD
ATOM     28  H   UNL     1      -1.090  -0.125   1.335  0.00  0.00    +0.000 HD
BRANCH  26  29
ATOM     29  C   UNL     1      -0.869  -0.207   3.490  0.00  0.00    +0.000 C 
ATOM     30  H   UNL     1      -1.950  -0.246   3.658  0.00  0.00    +0.000 HD
ATOM     31  H   UNL     1      -0.491  -1.235   3.502  0.00  0.00    +0.000 HD
BRANCH  29  32
ATOM     32  N   UNL     1      -0.225   0.535   4.580  0.00  0.00    +0.000 NA
ATOM     33  H   UNL     1      -0.440   0.080   5.468  0.00  0.00    +0.000 HD
ATOM     34  H   UNL     1      -0.623   1.472   4.640  0.00  0.00    +0.000 HD
ENDBRANCH  29  32
ENDBRANCH  26  29
ENDBRANCH  24  26
ENDBRANCH   1  24
TORSDOF 5
