MODEL 1
REMARK VINA RESULT:    -9.276      0.000      0.000
REMARK INTER + INTRA:         -15.204
REMARK INTER:                 -14.156
REMARK INTRA:                  -1.048
REMARK UNBOUND:                -1.048
REMARK  Name = 
REMARK  11 active torsions:
REMARK  status: ('A' for Active; 'I' for Inactive)
REMARK    1  A    between atoms: C_1  and  O_2
REMARK    2  A    between atoms: O_2  and  C_3
REMARK    3  A    between atoms: C_3  and  C_5
REMARK    4  A    between atoms: C_8  and  N_9
REMARK    5  A    between atoms: C_10  and  C_12
REMARK    6  A    between atoms: C_12  and  C_13
REMARK    7  A    between atoms: C_13  and  N_14
REMARK    8  A    between atoms: N_14  and  C_15
REMARK    9  A    between atoms: N_14  and  C_16
REMARK   10  A    between atoms: N_19  and  C_20
REMARK   11  A    between atoms: C_27  and  C_28
REMARK                            x       y       z     vdW  Elec       q    Type
REMARK                         _______ _______ _______ _____ _____    ______ ____
ROOT
ATOM      1  C   UNL     1     -10.113  -6.047  16.793  0.00  0.00    +0.000 C 
ATOM      2  C   UNL     1     -11.089  -7.207  17.235  0.00  0.00    +0.000 C 
ATOM      3  C   UNL     1     -10.469  -8.256  18.173  0.00  0.00    +0.000 C 
ATOM      4  N   UNL     1      -9.244  -8.686  17.513  0.00  0.00    +0.000 N 
ATOM      5  C   UNL     1      -8.226  -7.655  17.548  0.00  0.00    +0.000 C 
ATOM      6  C   UNL     1      -8.679  -6.581  16.556  0.00  0.00    +0.000 C 
ATOM      7  H   UNL     1     -11.436  -7.745  16.343  0.00  0.00    +0.000 HD
ATOM      8  H   UNL     1     -11.987  -6.789  17.710  0.00  0.00    +0.000 HD
ATOM      9  H   UNL     1     -11.193  -9.067  18.310  0.00  0.00    +0.000 HD
ATOM     10  H   UNL     1     -10.259  -7.859  19.175  0.00  0.00    +0.000 HD
ATOM     11  H   UNL     1      -7.230  -8.024  17.289  0.00  0.00    +0.000 HD
ATOM     12  H   UNL     1      -8.120  -7.226  18.553  0.00  0.00    +0.000 HD
ATOM     13  H   UNL     1      -8.656  -7.009  15.550  0.00  0.00    +0.000 HD
ATOM     14  H   UNL     1      -7.938  -5.779  16.601  0.00  0.00    +0.000 HD
ENDROOT
BRANCH   4  15
ATOM     15  C   UNL     1      -8.854 -10.008  17.643  0.00  0.00    +0.000 A 
ATOM     16  N   UNL     1      -8.643 -10.512  18.890  0.00  0.00    +0.000 NA
ATOM     17  C   UNL     1      -8.365 -11.821  19.042  0.00  0.00    +0.000 A 
ATOM     18  N   UNL     1      -8.284 -12.758  18.091  0.00  0.00    +0.000 NA
ATOM     19  C   UNL     1      -8.516 -12.241  16.879  0.00  0.00    +0.000 A 
ATOM     20  N   UNL     1      -8.540 -12.991  15.741  0.00  0.00    +0.000 N 
ATOM     21  C   UNL     1      -8.825 -12.203  14.669  0.00  0.00    +0.000 A 
ATOM     22  C   UNL     1      -9.001 -10.904  15.117  0.00  0.00    +0.000 A 
ATOM     23  C   UNL     1      -8.792 -10.917  16.549  0.00  0.00    +0.000 A 
ATOM     24  H   UNL     1      -8.200 -12.156  20.060  0.00  0.00    +0.000 HD
ATOM     25  H   UNL     1      -8.396 -13.989  15.725  0.00  0.00    +0.000 HD
ATOM     26  H   UNL     1      -8.907 -12.618  13.673  0.00  0.00    +0.000 HD
BRANCH  22  27
ATOM     27  C   UNL     1      -9.370  -9.778  14.222  0.00  0.00    +0.000 C 
ATOM     28  H   UNL     1      -9.352  -8.826  14.761  0.00  0.00    +0.000 HD
ATOM     29  H   UNL     1     -10.387  -9.881  13.841  0.00  0.00    +0.000 HD
ATOM     30  H   UNL     1      -8.661  -9.699  13.394  0.00  0.00    +0.000 HD
ENDBRANCH  22  27
ENDBRANCH   4  15
BRANCH   1  32
ATOM     31  N   UNL     1      -8.830  -4.792  18.524  0.00  0.00    +0.000 N 
ATOM     32  C   UNL     1     -10.067  -5.069  17.976  0.00  0.00    +0.000 C 
ATOM     33  O   UNL     1     -11.127  -4.657  18.447  0.00  0.00    +0.000 OA
ATOM     34  H   UNL     1      -8.017  -5.111  17.994  0.00  0.00    +0.000 HD
BRANCH  31  38
ATOM     35  C   UNL     1      -8.157  -2.528  22.055  0.00  0.00    +0.000 A 
ATOM     36  C   UNL     1      -8.942  -2.002  21.035  0.00  0.00    +0.000 A 
ATOM     37  C   UNL     1      -9.158  -2.733  19.865  0.00  0.00    +0.000 A 
ATOM     38  C   UNL     1      -8.609  -4.003  19.677  0.00  0.00    +0.000 A 
ATOM     39  C   UNL     1      -7.816  -4.534  20.701  0.00  0.00    +0.000 A 
ATOM     40  C   UNL     1      -7.586  -3.801  21.881  0.00  0.00    +0.000 A 
ATOM     41  H   UNL     1      -9.401  -1.019  21.130  0.00  0.00    +0.000 HD
ATOM     42  H   UNL     1      -9.791  -2.262  19.122  0.00  0.00    +0.000 HD
ATOM     43  H   UNL     1      -7.351  -5.513  20.599  0.00  0.00    +0.000 HD
ATOM     44  H   UNL     1      -6.960  -4.234  22.659  0.00  0.00    +0.000 HD
BRANCH  35  45
ATOM     45  C   UNL     1      -7.985  -1.701  23.282  0.00  0.00    +0.000 C 
ATOM     46  O   UNL     1      -7.454  -0.601  23.299  0.00  0.00    +0.000 OA
BRANCH  45  47
ATOM     47  O   UNL     1      -8.507  -2.341  24.356  0.00  0.00    +0.000 OA
BRANCH  47  48
ATOM     48  C   UNL     1      -9.251  -1.483  25.221  0.00  0.00    +0.000 C 
ATOM     49  H   UNL     1      -9.606  -0.640  24.627  0.00  0.00    +0.000 HD
ATOM     50  H   UNL     1      -8.603  -1.106  26.018  0.00  0.00    +0.000 HD
ATOM     51  H   UNL     1     -10.118  -2.003  25.640  0.00  0.00    +0.000 HD
ENDBRANCH  47  48
ENDBRANCH  45  47
ENDBRANCH  35  45
ENDBRANCH  31  38
ENDBRANCH   1  32
BRANCH   1  52
ATOM     52  C   UNL     1     -10.730  -5.428  15.486  0.00  0.00    +0.000 C 
ATOM     53  H   UNL     1     -11.819  -5.467  15.633  0.00  0.00    +0.000 HD
ATOM     54  H   UNL     1     -10.516  -6.102  14.644  0.00  0.00    +0.000 HD
BRANCH  52  55
ATOM     55  N   UNL     1     -10.422  -4.032  15.066  0.00  0.00    +0.000 NA
BRANCH  55  56
ATOM     56  C   UNL     1      -9.943  -3.889  13.683  0.00  0.00    +0.000 C 
ATOM     57  H   UNL     1      -9.558  -2.899  13.459  0.00  0.00    +0.000 HD
ATOM     58  H   UNL     1     -10.787  -4.013  12.993  0.00  0.00    +0.000 HD
ATOM     59  H   UNL     1      -9.175  -4.627  13.420  0.00  0.00    +0.000 HD
ENDBRANCH  55  56
BRANCH  55  60
ATOM     60  C   UNL     1     -11.672  -3.237  15.138  0.00  0.00    +0.000 C 
ATOM     61  H   UNL     1     -11.783  -2.578  14.271  0.00  0.00    +0.000 HD
ATOM     62  H   UNL     1     -11.710  -2.616  16.044  0.00  0.00    +0.000 HD
ATOM     63  H   UNL     1     -12.546  -3.899  15.148  0.00  0.00    +0.000 HD
ENDBRANCH  55  60
ENDBRANCH  52  55
ENDBRANCH   1  52
TORSDOF 11
ENDMDL
MODEL 2
REMARK VINA RESULT:    -9.181      0.987      1.953
REMARK INTER + INTRA:         -15.060
REMARK INTER:                 -13.772
REMARK INTRA:                  -1.288
REMARK UNBOUND:                -1.048
REMARK  Name = 
REMARK  11 active torsions:
REMARK  status: ('A' for Active; 'I' for Inactive)
REMARK    1  A    between atoms: C_1  and  O_2
REMARK    2  A    between atoms: O_2  and  C_3
REMARK    3  A    between atoms: C_3  and  C_5
REMARK    4  A    between atoms: C_8  and  N_9
REMARK    5  A    between atoms: C_10  and  C_12
REMARK    6  A    between atoms: C_12  and  C_13
REMARK    7  A    between atoms: C_13  and  N_14
REMARK    8  A    between atoms: N_14  and  C_15
REMARK    9  A    between atoms: N_14  and  C_16
REMARK   10  A    between atoms: N_19  and  C_20
REMARK   11  A    between atoms: C_27  and  C_28
REMARK                            x       y       z     vdW  Elec       q    Type
REMARK                         _______ _______ _______ _____ _____    ______ ____
ROOT
ATOM      1  C   UNL     1     -10.459  -5.715  16.362  0.00  0.00    +0.000 C 
ATOM      2  C   UNL     1     -11.499  -6.894  16.521  0.00  0.00    +0.000 C 
ATOM      3  C   UNL     1     -10.924  -8.192  17.111  0.00  0.00    +0.000 C 
ATOM      4  N   UNL     1      -9.751  -8.497  16.303  0.00  0.00    +0.000 N 
ATOM      5  C   UNL     1      -8.664  -7.575  16.566  0.00  0.00    +0.000 C 
ATOM      6  C   UNL     1      -9.073  -6.248  15.922  0.00  0.00    +0.000 C 
ATOM      7  H   UNL     1     -11.908  -7.148  15.534  0.00  0.00    +0.000 HD
ATOM      8  H   UNL     1     -12.351  -6.569  17.133  0.00  0.00    +0.000 HD
ATOM      9  H   UNL     1     -11.698  -8.966  17.059  0.00  0.00    +0.000 HD
ATOM     10  H   UNL     1     -10.658  -8.096  18.172  0.00  0.00    +0.000 HD
ATOM     11  H   UNL     1      -7.705  -7.917  16.170  0.00  0.00    +0.000 HD
ATOM     12  H   UNL     1      -8.500  -7.442  17.643  0.00  0.00    +0.000 HD
ATOM     13  H   UNL     1      -9.109  -6.386  14.838  0.00  0.00    +0.000 HD
ATOM     14  H   UNL     1      -8.277  -5.533  16.147  0.00  0.00    +0.000 HD
ENDROOT
BRANCH   4  15
ATOM     15  C   UNL     1      -9.450  -9.825  16.053  0.00  0.00    +0.000 A 
ATOM     16  N   UNL     1      -9.481 -10.275  14.769  0.00  0.00    +0.000 NA
ATOM     17  C   UNL     1      -9.091 -11.535  14.494  0.00  0.00    +0.000 A 
ATOM     18  N   UNL     1      -8.627 -12.455  15.348  0.00  0.00    +0.000 NA
ATOM     19  C   UNL     1      -8.587 -11.979  16.598  0.00  0.00    +0.000 A 
ATOM     20  N   UNL     1      -8.110 -12.698  17.653  0.00  0.00    +0.000 N 
ATOM     21  C   UNL     1      -8.168 -11.952  18.790  0.00  0.00    +0.000 A 
ATOM     22  C   UNL     1      -8.687 -10.709  18.470  0.00  0.00    +0.000 A 
ATOM     23  C   UNL     1      -8.973 -10.721  17.051  0.00  0.00    +0.000 A 
ATOM     24  H   UNL     1      -9.148 -11.833  13.453  0.00  0.00    +0.000 HD
ATOM     25  H   UNL     1      -7.743 -13.635  17.573  0.00  0.00    +0.000 HD
ATOM     26  H   UNL     1      -7.815 -12.343  19.736  0.00  0.00    +0.000 HD
BRANCH  22  27
ATOM     27  C   UNL     1      -8.852  -9.617  19.462  0.00  0.00    +0.000 C 
ATOM     28  H   UNL     1      -9.538  -9.914  20.262  0.00  0.00    +0.000 HD
ATOM     29  H   UNL     1      -9.295  -8.726  19.013  0.00  0.00    +0.000 HD
ATOM     30  H   UNL     1      -7.894  -9.372  19.927  0.00  0.00    +0.000 HD
ENDBRANCH  22  27
ENDBRANCH   4  15
BRANCH   1  32
ATOM     31  N   UNL     1      -9.207  -4.303  17.991  0.00  0.00    +0.000 N 
ATOM     32  C   UNL     1     -10.310  -5.101  17.761  0.00  0.00    +0.000 C 
ATOM     33  O   UNL     1     -11.112  -5.421  18.639  0.00  0.00    +0.000 OA
ATOM     34  H   UNL     1      -8.665  -4.028  17.169  0.00  0.00    +0.000 HD
BRANCH  31  38
ATOM     35  C   UNL     1      -8.140  -2.737  21.793  0.00  0.00    +0.000 A 
ATOM     36  C   UNL     1      -8.958  -1.998  20.945  0.00  0.00    +0.000 A 
ATOM     37  C   UNL     1      -9.303  -2.498  19.689  0.00  0.00    +0.000 A 
ATOM     38  C   UNL     1      -8.854  -3.743  19.242  0.00  0.00    +0.000 A 
ATOM     39  C   UNL     1      -8.029  -4.488  20.092  0.00  0.00    +0.000 A 
ATOM     40  C   UNL     1      -7.668  -3.988  21.358  0.00  0.00    +0.000 A 
ATOM     41  H   UNL     1      -9.342  -1.024  21.246  0.00  0.00    +0.000 HD
ATOM     42  H   UNL     1      -9.954  -1.870  19.091  0.00  0.00    +0.000 HD
ATOM     43  H   UNL     1      -7.637  -5.456  19.786  0.00  0.00    +0.000 HD
ATOM     44  H   UNL     1      -7.019  -4.583  21.997  0.00  0.00    +0.000 HD
BRANCH  35  45
ATOM     45  C   UNL     1      -7.828  -2.150  23.127  0.00  0.00    +0.000 C 
ATOM     46  O   UNL     1      -7.369  -1.029  23.293  0.00  0.00    +0.000 OA
BRANCH  45  47
ATOM     47  O   UNL     1      -8.134  -3.030  24.110  0.00  0.00    +0.000 OA
BRANCH  47  48
ATOM     48  C   UNL     1      -9.451  -2.860  24.634  0.00  0.00    +0.000 C 
ATOM     49  H   UNL     1      -9.385  -2.173  25.479  0.00  0.00    +0.000 HD
ATOM     50  H   UNL     1      -9.837  -3.820  24.988  0.00  0.00    +0.000 HD
ATOM     51  H   UNL     1     -10.120  -2.426  23.883  0.00  0.00    +0.000 HD
ENDBRANCH  47  48
ENDBRANCH  45  47
ENDBRANCH  35  45
ENDBRANCH  31  38
ENDBRANCH   1  32
BRANCH   1  52
ATOM     52  C   UNL     1     -11.070  -4.730  15.302  0.00  0.00    +0.000 C 
ATOM     53  H   UNL     1     -12.149  -4.704  15.518  0.00  0.00    +0.000 HD
ATOM     54  H   UNL     1     -10.975  -5.184  14.304  0.00  0.00    +0.000 HD
BRANCH  52  55
ATOM     55  N   UNL     1     -10.634  -3.308  15.218  0.00  0.00    +0.000 NA
BRANCH  55  56
ATOM     56  C   UNL     1      -9.993  -2.926  13.951  0.00  0.00    +0.000 C 
ATOM     57  H   UNL     1      -9.756  -1.869  13.888  0.00  0.00    +0.000 HD
ATOM     58  H   UNL     1     -10.694  -3.095  13.125  0.00  0.00    +0.000 HD
ATOM     59  H   UNL     1      -9.079  -3.498  13.747  0.00  0.00    +0.000 HD
ENDBRANCH  55  56
BRANCH  55  60
ATOM     60  C   UNL     1     -11.835  -2.444  15.332  0.00  0.00    +0.000 C 
ATOM     61  H   UNL     1     -12.759  -3.022  15.230  0.00  0.00    +0.000 HD
ATOM     62  H   UNL     1     -11.843  -1.652  14.571  0.00  0.00    +0.000 HD
ATOM     63  H   UNL     1     -11.867  -1.963  16.317  0.00  0.00    +0.000 HD
ENDBRANCH  55  60
ENDBRANCH  52  55
ENDBRANCH   1  52
TORSDOF 11
ENDMDL
MODEL 3
REMARK VINA RESULT:    -8.946      2.950      6.638
REMARK INTER + INTRA:         -14.701
REMARK INTER:                 -13.454
REMARK INTRA:                  -1.247
REMARK UNBOUND:                -1.048
REMARK  Name = 
REMARK  11 active torsions:
REMARK  status: ('A' for Active; 'I' for Inactive)
REMARK    1  A    between atoms: C_1  and  O_2
REMARK    2  A    between atoms: O_2  and  C_3
REMARK    3  A    between atoms: C_3  and  C_5
REMARK    4  A    between atoms: C_8  and  N_9
REMARK    5  A    between atoms: C_10  and  C_12
REMARK    6  A    between atoms: C_12  and  C_13
REMARK    7  A    between atoms: C_13  and  N_14
REMARK    8  A    between atoms: N_14  and  C_15
REMARK    9  A    between atoms: N_14  and  C_16
REMARK   10  A    between atoms: N_19  and  C_20
REMARK   11  A    between atoms: C_27  and  C_28
REMARK                            x       y       z     vdW  Elec       q    Type
REMARK                         _______ _______ _______ _____ _____    ______ ____
ROOT
ATOM      1  C   UNL     1      -9.684  -6.115  17.226  0.00  0.00    +0.000 C 
ATOM      2  C   UNL     1      -8.598  -6.665  16.219  0.00  0.00    +0.000 C 
ATOM      3  C   UNL     1      -9.022  -7.912  15.424  0.00  0.00    +0.000 C 
ATOM      4  N   UNL     1      -9.490  -8.864  16.422  0.00  0.00    +0.000 N 
ATOM      5  C   UNL     1     -10.760  -8.462  16.994  0.00  0.00    +0.000 C 
ATOM      6  C   UNL     1     -10.453  -7.273  17.908  0.00  0.00    +0.000 C 
ATOM      7  H   UNL     1      -7.694  -6.938  16.778  0.00  0.00    +0.000 HD
ATOM      8  H   UNL     1      -8.299  -5.877  15.515  0.00  0.00    +0.000 HD
ATOM      9  H   UNL     1      -8.155  -8.270  14.858  0.00  0.00    +0.000 HD
ATOM     10  H   UNL     1      -9.805  -7.699  14.685  0.00  0.00    +0.000 HD
ATOM     11  H   UNL     1     -11.252  -9.262  17.552  0.00  0.00    +0.000 HD
ATOM     12  H   UNL     1     -11.477  -8.170  16.216  0.00  0.00    +0.000 HD
ATOM     13  H   UNL     1      -9.835  -7.627  18.738  0.00  0.00    +0.000 HD
ATOM     14  H   UNL     1     -11.409  -6.936  18.316  0.00  0.00    +0.000 HD
ENDROOT
BRANCH   4  15
ATOM     15  C   UNL     1      -9.255 -10.212  16.209  0.00  0.00    +0.000 A 
ATOM     16  N   UNL     1      -9.314 -10.696  14.938  0.00  0.00    +0.000 NA
ATOM     17  C   UNL     1      -8.987 -11.980  14.698  0.00  0.00    +0.000 A 
ATOM     18  N   UNL     1      -8.566 -12.898  15.576  0.00  0.00    +0.000 NA
ATOM     19  C   UNL     1      -8.497 -12.390  16.813  0.00  0.00    +0.000 A 
ATOM     20  N   UNL     1      -8.052 -13.102  17.886  0.00  0.00    +0.000 N 
ATOM     21  C   UNL     1      -8.067 -12.322  19.002  0.00  0.00    +0.000 A 
ATOM     22  C   UNL     1      -8.526 -11.064  18.648  0.00  0.00    +0.000 A 
ATOM     23  C   UNL     1      -8.818 -11.102  17.230  0.00  0.00    +0.000 A 
ATOM     24  H   UNL     1      -9.063 -12.305  13.666  0.00  0.00    +0.000 HD
ATOM     25  H   UNL     1      -7.732 -14.057  17.831  0.00  0.00    +0.000 HD
ATOM     26  H   UNL     1      -7.731 -12.703  19.957  0.00  0.00    +0.000 HD
BRANCH  22  27
ATOM     27  C   UNL     1      -8.633  -9.938  19.609  0.00  0.00    +0.000 C 
ATOM     28  H   UNL     1      -9.600  -9.433  19.518  0.00  0.00    +0.000 HD
ATOM     29  H   UNL     1      -7.883  -9.170  19.416  0.00  0.00    +0.000 HD
ATOM     30  H   UNL     1      -8.550 -10.301  20.637  0.00  0.00    +0.000 HD
ENDBRANCH  22  27
ENDBRANCH   4  15
BRANCH   1  32
ATOM     31  N   UNL     1     -10.166  -4.551  15.346  0.00  0.00    +0.000 N 
ATOM     32  C   UNL     1     -10.680  -5.321  16.370  0.00  0.00    +0.000 C 
ATOM     33  O   UNL     1     -11.870  -5.321  16.688  0.00  0.00    +0.000 OA
ATOM     34  H   UNL     1      -9.183  -4.703  15.113  0.00  0.00    +0.000 HD
BRANCH  31  38
ATOM     35  C   UNL     1     -12.476  -1.875  12.990  0.00  0.00    +0.000 A 
ATOM     36  C   UNL     1     -12.160  -3.136  12.496  0.00  0.00    +0.000 A 
ATOM     37  C   UNL     1     -11.390  -4.016  13.257  0.00  0.00    +0.000 A 
ATOM     38  C   UNL     1     -10.919  -3.677  14.527  0.00  0.00    +0.000 A 
ATOM     39  C   UNL     1     -11.234  -2.408  15.026  0.00  0.00    +0.000 A 
ATOM     40  C   UNL     1     -12.003  -1.509  14.262  0.00  0.00    +0.000 A 
ATOM     41  H   UNL     1     -12.507  -3.456  11.514  0.00  0.00    +0.000 HD
ATOM     42  H   UNL     1     -11.197  -4.985  12.809  0.00  0.00    +0.000 HD
ATOM     43  H   UNL     1     -10.878  -2.085  16.003  0.00  0.00    +0.000 HD
ATOM     44  H   UNL     1     -12.227  -0.525  14.670  0.00  0.00    +0.000 HD
BRANCH  35  45
ATOM     45  C   UNL     1     -13.317  -0.994  12.132  0.00  0.00    +0.000 C 
ATOM     46  O   UNL     1     -14.058  -0.122  12.560  0.00  0.00    +0.000 OA
BRANCH  45  47
ATOM     47  O   UNL     1     -13.130  -1.296  10.824  0.00  0.00    +0.000 OA
BRANCH  47  48
ATOM     48  C   UNL     1     -13.122  -0.151   9.972  0.00  0.00    +0.000 C 
ATOM     49  H   UNL     1     -12.116   0.271   9.994  0.00  0.00    +0.000 HD
ATOM     50  H   UNL     1     -13.828   0.596  10.347  0.00  0.00    +0.000 HD
ATOM     51  H   UNL     1     -13.361  -0.427   8.940  0.00  0.00    +0.000 HD
ENDBRANCH  47  48
ENDBRANCH  45  47
ENDBRANCH  35  45
ENDBRANCH  31  38
ENDBRANCH   1  32
BRANCH   1  52
ATOM     52  C   UNL     1      -8.907  -5.234  18.270  0.00  0.00    +0.000 C 
ATOM     53  H   UNL     1      -9.686  -4.735  18.866  0.00  0.00    +0.000 HD
ATOM     54  H   UNL     1      -8.382  -4.431  17.731  0.00  0.00    +0.000 HD
BRANCH  52  55
ATOM     55  N   UNL     1      -7.964  -5.840  19.252  0.00  0.00    +0.000 NA
BRANCH  55  56
ATOM     56  C   UNL     1      -6.546  -5.783  18.871  0.00  0.00    +0.000 C 
ATOM     57  H   UNL     1      -6.145  -4.774  18.845  0.00  0.00    +0.000 HD
ATOM     58  H   UNL     1      -6.432  -6.145  17.842  0.00  0.00    +0.000 HD
ATOM     59  H   UNL     1      -5.905  -6.393  19.520  0.00  0.00    +0.000 HD
ENDBRANCH  55  56
BRANCH  55  60
ATOM     60  C   UNL     1      -8.066  -5.083  20.524  0.00  0.00    +0.000 C 
ATOM     61  H   UNL     1      -8.551  -5.673  21.308  0.00  0.00    +0.000 HD
ATOM     62  H   UNL     1      -8.633  -4.150  20.400  0.00  0.00    +0.000 HD
ATOM     63  H   UNL     1      -7.068  -4.822  20.894  0.00  0.00    +0.000 HD
ENDBRANCH  55  60
ENDBRANCH  52  55
ENDBRANCH   1  52
TORSDOF 11
ENDMDL
MODEL 4
REMARK VINA RESULT:    -8.847      2.733      4.874
REMARK INTER + INTRA:         -14.549
REMARK INTER:                 -13.038
REMARK INTRA:                  -1.510
REMARK UNBOUND:                -1.048
REMARK  Name = 
REMARK  11 active torsions:
REMARK  status: ('A' for Active; 'I' for Inactive)
REMARK    1  A    between atoms: C_1  and  O_2
REMARK    2  A    between atoms: O_2  and  C_3
REMARK    3  A    between atoms: C_3  and  C_5
REMARK    4  A    between atoms: C_8  and  N_9
REMARK    5  A    between atoms: C_10  and  C_12
REMARK    6  A    between atoms: C_12  and  C_13
REMARK    7  A    between atoms: C_13  and  N_14
REMARK    8  A    between atoms: N_14  and  C_15
REMARK    9  A    between atoms: N_14  and  C_16
REMARK   10  A    between atoms: N_19  and  C_20
REMARK   11  A    between atoms: C_27  and  C_28
REMARK                            x       y       z     vdW  Elec       q    Type
REMARK                         _______ _______ _______ _____ _____    ______ ____
ROOT
ATOM      1  C   UNL     1      -9.011  -6.009  18.880  0.00  0.00    +0.000 C 
ATOM      2  C   UNL     1      -8.023  -6.290  17.680  0.00  0.00    +0.000 C 
ATOM      3  C   UNL     1      -8.636  -7.070  16.504  0.00  0.00    +0.000 C 
ATOM      4  N   UNL     1      -9.248  -8.249  17.101  0.00  0.00    +0.000 N 
ATOM      5  C   UNL     1     -10.440  -7.911  17.853  0.00  0.00    +0.000 C 
ATOM      6  C   UNL     1      -9.953  -7.214  19.125  0.00  0.00    +0.000 C 
ATOM      7  H   UNL     1      -7.174  -6.882  18.045  0.00  0.00    +0.000 HD
ATOM      8  H   UNL     1      -7.603  -5.348  17.304  0.00  0.00    +0.000 HD
ATOM      9  H   UNL     1      -7.834  -7.310  15.796  0.00  0.00    +0.000 HD
ATOM     10  H   UNL     1      -9.375  -6.482  15.944  0.00  0.00    +0.000 HD
ATOM     11  H   UNL     1     -11.053  -8.782  18.101  0.00  0.00    +0.000 HD
ATOM     12  H   UNL     1     -11.102  -7.247  17.283  0.00  0.00    +0.000 HD
ATOM     13  H   UNL     1      -9.399  -7.940  19.726  0.00  0.00    +0.000 HD
ATOM     14  H   UNL     1     -10.845  -6.920  19.683  0.00  0.00    +0.000 HD
ENDROOT
BRANCH   4  15
ATOM     15  C   UNL     1      -9.226  -9.436  16.388  0.00  0.00    +0.000 A 
ATOM     16  N   UNL     1      -9.395  -9.394  15.038  0.00  0.00    +0.000 NA
ATOM     17  C   UNL     1      -9.275 -10.525  14.315  0.00  0.00    +0.000 A 
ATOM     18  N   UNL     1      -8.971 -11.751  14.756  0.00  0.00    +0.000 NA
ATOM     19  C   UNL     1      -8.789 -11.759  16.082  0.00  0.00    +0.000 A 
ATOM     20  N   UNL     1      -8.426 -12.874  16.776  0.00  0.00    +0.000 N 
ATOM     21  C   UNL     1      -8.290 -12.576  18.098  0.00  0.00    +0.000 A 
ATOM     22  C   UNL     1      -8.564 -11.229  18.272  0.00  0.00    +0.000 A 
ATOM     23  C   UNL     1      -8.900 -10.693  16.969  0.00  0.00    +0.000 A 
ATOM     24  H   UNL     1      -9.429 -10.424  13.247  0.00  0.00    +0.000 HD
ATOM     25  H   UNL     1      -8.256 -13.771  16.348  0.00  0.00    +0.000 HD
ATOM     26  H   UNL     1      -7.987 -13.328  18.814  0.00  0.00    +0.000 HD
BRANCH  22  27
ATOM     27  C   UNL     1      -8.470 -10.544  19.585  0.00  0.00    +0.000 C 
ATOM     28  H   UNL     1      -8.561  -9.459  19.470  0.00  0.00    +0.000 HD
ATOM     29  H   UNL     1      -7.500 -10.708  20.058  0.00  0.00    +0.000 HD
ATOM     30  H   UNL     1      -9.275 -10.871  20.247  0.00  0.00    +0.000 HD
ENDBRANCH  22  27
ENDBRANCH   4  15
BRANCH   1  32
ATOM     31  N   UNL     1      -9.219  -3.627  18.175  0.00  0.00    +0.000 N 
ATOM     32  C   UNL     1      -9.870  -4.815  18.440  0.00  0.00    +0.000 C 
ATOM     33  O   UNL     1     -11.095  -4.933  18.439  0.00  0.00    +0.000 OA
ATOM     34  H   UNL     1      -8.199  -3.671  18.113  0.00  0.00    +0.000 HD
BRANCH  31  38
ATOM     35  C   UNL     1     -11.180   0.050  17.349  0.00  0.00    +0.000 A 
ATOM     36  C   UNL     1     -10.907  -0.837  16.313  0.00  0.00    +0.000 A 
ATOM     37  C   UNL     1     -10.251  -2.041  16.573  0.00  0.00    +0.000 A 
ATOM     38  C   UNL     1      -9.854  -2.402  17.862  0.00  0.00    +0.000 A 
ATOM     39  C   UNL     1     -10.125  -1.510  18.906  0.00  0.00    +0.000 A 
ATOM     40  C   UNL     1     -10.779  -0.289  18.653  0.00  0.00    +0.000 A 
ATOM     41  H   UNL     1     -11.200  -0.609  15.289  0.00  0.00    +0.000 HD
ATOM     42  H   UNL     1     -10.086  -2.684  15.716  0.00  0.00    +0.000 HD
ATOM     43  H   UNL     1      -9.823  -1.734  19.928  0.00  0.00    +0.000 HD
ATOM     44  H   UNL     1     -10.972   0.390  19.482  0.00  0.00    +0.000 HD
BRANCH  35  45
ATOM     45  C   UNL     1     -11.899   1.308  17.002  0.00  0.00    +0.000 C 
ATOM     46  O   UNL     1     -11.370   2.282  16.488  0.00  0.00    +0.000 OA
BRANCH  45  47
ATOM     47  O   UNL     1     -13.210   1.204  17.329  0.00  0.00    +0.000 OA
BRANCH  47  48
ATOM     48  C   UNL     1     -13.705   2.328  18.056  0.00  0.00    +0.000 C 
ATOM     49  H   UNL     1     -12.866   2.766  18.600  0.00  0.00    +0.000 HD
ATOM     50  H   UNL     1     -14.461   2.002  18.776  0.00  0.00    +0.000 HD
ATOM     51  H   UNL     1     -14.113   3.086  17.380  0.00  0.00    +0.000 HD
ENDBRANCH  47  48
ENDBRANCH  45  47
ENDBRANCH  35  45
ENDBRANCH  31  38
ENDBRANCH   1  32
BRANCH   1  52
ATOM     52  C   UNL     1      -8.108  -5.709  20.131  0.00  0.00    +0.000 C 
ATOM     53  H   UNL     1      -7.368  -6.523  20.156  0.00  0.00    +0.000 HD
ATOM     54  H   UNL     1      -8.716  -5.827  21.040  0.00  0.00    +0.000 HD
BRANCH  52  55
ATOM     55  N   UNL     1      -7.330  -4.443  20.244  0.00  0.00    +0.000 NA
BRANCH  55  56
ATOM     56  C   UNL     1      -7.646  -3.620  21.420  0.00  0.00    +0.000 C 
ATOM     57  H   UNL     1      -7.682  -4.185  22.346  0.00  0.00    +0.000 HD
ATOM     58  H   UNL     1      -8.658  -3.211  21.314  0.00  0.00    +0.000 HD
ATOM     59  H   UNL     1      -6.951  -2.782  21.553  0.00  0.00    +0.000 HD
ENDBRANCH  55  56
BRANCH  55  60
ATOM     60  C   UNL     1      -5.893  -4.789  20.374  0.00  0.00    +0.000 C 
ATOM     61  H   UNL     1      -5.499  -5.234  19.455  0.00  0.00    +0.000 HD
ATOM     62  H   UNL     1      -5.716  -5.496  21.197  0.00  0.00    +0.000 HD
ATOM     63  H   UNL     1      -5.300  -3.889  20.572  0.00  0.00    +0.000 HD
ENDBRANCH  55  60
ENDBRANCH  52  55
ENDBRANCH   1  52
TORSDOF 11
ENDMDL
MODEL 5
REMARK VINA RESULT:    -8.843      2.407      5.886
REMARK INTER + INTRA:         -14.543
REMARK INTER:                 -14.249
REMARK INTRA:                  -0.294
REMARK UNBOUND:                -1.048
REMARK  Name = 
REMARK  11 active torsions:
REMARK  status: ('A' for Active; 'I' for Inactive)
REMARK    1  A    between atoms: C_1  and  O_2
REMARK    2  A    between atoms: O_2  and  C_3
REMARK    3  A    between atoms: C_3  and  C_5
REMARK    4  A    between atoms: C_8  and  N_9
REMARK    5  A    between atoms: C_10  and  C_12
REMARK    6  A    between atoms: C_12  and  C_13
REMARK    7  A    between atoms: C_13  and  N_14
REMARK    8  A    between atoms: N_14  and  C_15
REMARK    9  A    between atoms: N_14  and  C_16
REMARK   10  A    between atoms: N_19  and  C_20
REMARK   11  A    between atoms: C_27  and  C_28
REMARK                            x       y       z     vdW  Elec       q    Type
REMARK                         _______ _______ _______ _____ _____    ______ ____
ROOT
ATOM      1  C   UNL     1      -8.675  -5.950  18.856  0.00  0.00    +0.000 C 
ATOM      2  C   UNL     1      -7.710  -6.363  17.675  0.00  0.00    +0.000 C 
ATOM      3  C   UNL     1      -8.377  -7.154  16.538  0.00  0.00    +0.000 C 
ATOM      4  N   UNL     1      -9.073  -8.254  17.192  0.00  0.00    +0.000 N 
ATOM      5  C   UNL     1     -10.238  -7.794  17.921  0.00  0.00    +0.000 C 
ATOM      6  C   UNL     1      -9.701  -7.070  19.158  0.00  0.00    +0.000 C 
ATOM      7  H   UNL     1      -6.905  -6.995  18.073  0.00  0.00    +0.000 HD
ATOM      8  H   UNL     1      -7.223  -5.473  17.253  0.00  0.00    +0.000 HD
ATOM      9  H   UNL     1      -7.595  -7.488  15.846  0.00  0.00    +0.000 HD
ATOM     10  H   UNL     1      -9.072  -6.544  15.946  0.00  0.00    +0.000 HD
ATOM     11  H   UNL     1     -10.912  -8.604  18.211  0.00  0.00    +0.000 HD
ATOM     12  H   UNL     1     -10.850  -7.113  17.316  0.00  0.00    +0.000 HD
ATOM     13  H   UNL     1      -9.202  -7.802  19.798  0.00  0.00    +0.000 HD
ATOM     14  H   UNL     1     -10.570  -6.684  19.698  0.00  0.00    +0.000 HD
ENDROOT
BRANCH   4  15
ATOM     15  C   UNL     1      -9.138  -9.474  16.539  0.00  0.00    +0.000 A 
ATOM     16  N   UNL     1      -9.371  -9.491  15.199  0.00  0.00    +0.000 NA
ATOM     17  C   UNL     1      -9.335 -10.659  14.530  0.00  0.00    +0.000 A 
ATOM     18  N   UNL     1      -9.063 -11.875  15.017  0.00  0.00    +0.000 NA
ATOM     19  C   UNL     1      -8.817 -11.827  16.332  0.00  0.00    +0.000 A 
ATOM     20  N   UNL     1      -8.467 -12.922  17.064  0.00  0.00    +0.000 N 
ATOM     21  C   UNL     1      -8.254 -12.567  18.361  0.00  0.00    +0.000 A 
ATOM     22  C   UNL     1      -8.461 -11.202  18.479  0.00  0.00    +0.000 A 
ATOM     23  C   UNL     1      -8.837 -10.715  17.168  0.00  0.00    +0.000 A 
ATOM     24  H   UNL     1      -9.537 -10.604  13.466  0.00  0.00    +0.000 HD
ATOM     25  H   UNL     1      -8.357 -13.846  16.674  0.00  0.00    +0.000 HD
ATOM     26  H   UNL     1      -7.949 -13.296  19.099  0.00  0.00    +0.000 HD
BRANCH  22  27
ATOM     27  C   UNL     1      -8.273 -10.459  19.750  0.00  0.00    +0.000 C 
ATOM     28  H   UNL     1      -7.368  -9.844  19.716  0.00  0.00    +0.000 HD
ATOM     29  H   UNL     1      -8.137 -11.134  20.596  0.00  0.00    +0.000 HD
ATOM     30  H   UNL     1      -9.117  -9.789  19.931  0.00  0.00    +0.000 HD
ENDBRANCH  22  27
ENDBRANCH   4  15
BRANCH   1  32
ATOM     31  N   UNL     1     -10.257  -4.888  17.249  0.00  0.00    +0.000 N 
ATOM     32  C   UNL     1      -9.445  -4.721  18.353  0.00  0.00    +0.000 C 
ATOM     33  O   UNL     1      -9.234  -3.630  18.882  0.00  0.00    +0.000 OA
ATOM     34  H   UNL     1     -10.431  -5.851  16.954  0.00  0.00    +0.000 HD
BRANCH  31  38
ATOM     35  C   UNL     1     -12.248  -1.748  15.194  0.00  0.00    +0.000 A 
ATOM     36  C   UNL     1     -12.606  -2.056  16.502  0.00  0.00    +0.000 A 
ATOM     37  C   UNL     1     -11.967  -3.094  17.181  0.00  0.00    +0.000 A 
ATOM     38  C   UNL     1     -10.954  -3.851  16.587  0.00  0.00    +0.000 A 
ATOM     39  C   UNL     1     -10.594  -3.545  15.269  0.00  0.00    +0.000 A 
ATOM     40  C   UNL     1     -11.239  -2.504  14.574  0.00  0.00    +0.000 A 
ATOM     41  H   UNL     1     -13.385  -1.494  17.017  0.00  0.00    +0.000 HD
ATOM     42  H   UNL     1     -12.292  -3.265  18.201  0.00  0.00    +0.000 HD
ATOM     43  H   UNL     1      -9.823  -4.114  14.753  0.00  0.00    +0.000 HD
ATOM     44  H   UNL     1     -10.945  -2.292  13.548  0.00  0.00    +0.000 HD
BRANCH  35  45
ATOM     45  C   UNL     1     -12.960  -0.615  14.538  0.00  0.00    +0.000 C 
ATOM     46  O   UNL     1     -13.726   0.141  15.115  0.00  0.00    +0.000 OA
BRANCH  45  47
ATOM     47  O   UNL     1     -12.624  -0.547  13.227  0.00  0.00    +0.000 OA
BRANCH  47  48
ATOM     48  C   UNL     1     -13.747  -0.633  12.349  0.00  0.00    +0.000 C 
ATOM     49  H   UNL     1     -14.552  -1.132  12.889  0.00  0.00    +0.000 HD
ATOM     50  H   UNL     1     -13.487  -1.229  11.470  0.00  0.00    +0.000 HD
ATOM     51  H   UNL     1     -14.092   0.364  12.054  0.00  0.00    +0.000 HD
ENDBRANCH  47  48
ENDBRANCH  45  47
ENDBRANCH  35  45
ENDBRANCH  31  38
ENDBRANCH   1  32
BRANCH   1  52
ATOM     52  C   UNL     1      -7.752  -5.653  20.094  0.00  0.00    +0.000 C 
ATOM     53  H   UNL     1      -7.469  -6.641  20.488  0.00  0.00    +0.000 HD
ATOM     54  H   UNL     1      -8.359  -5.179  20.879  0.00  0.00    +0.000 HD
BRANCH  52  55
ATOM     55  N   UNL     1      -6.481  -4.889  19.951  0.00  0.00    +0.000 NA
BRANCH  55  56
ATOM     56  C   UNL     1      -6.157  -4.002  21.078  0.00  0.00    +0.000 C 
ATOM     57  H   UNL     1      -6.024  -4.528  22.018  0.00  0.00    +0.000 HD
ATOM     58  H   UNL     1      -7.004  -3.329  21.263  0.00  0.00    +0.000 HD
ATOM     59  H   UNL     1      -5.267  -3.388  20.895  0.00  0.00    +0.000 HD
ENDBRANCH  55  56
BRANCH  55  60
ATOM     60  C   UNL     1      -5.360  -5.858  19.873  0.00  0.00    +0.000 C 
ATOM     61  H   UNL     1      -5.360  -6.545  20.725  0.00  0.00    +0.000 HD
ATOM     62  H   UNL     1      -4.385  -5.354  19.842  0.00  0.00    +0.000 HD
ATOM     63  H   UNL     1      -5.449  -6.472  18.969  0.00  0.00    +0.000 HD
ENDBRANCH  55  60
ENDBRANCH  52  55
ENDBRANCH   1  52
TORSDOF 11
ENDMDL
MODEL 6
REMARK VINA RESULT:    -8.716      1.800      2.258
REMARK INTER + INTRA:         -14.350
REMARK INTER:                 -12.886
REMARK INTRA:                  -1.464
REMARK UNBOUND:                -1.048
REMARK  Name = 
REMARK  11 active torsions:
REMARK  status: ('A' for Active; 'I' for Inactive)
REMARK    1  A    between atoms: C_1  and  O_2
REMARK    2  A    between atoms: O_2  and  C_3
REMARK    3  A    between atoms: C_3  and  C_5
REMARK    4  A    between atoms: C_8  and  N_9
REMARK    5  A    between atoms: C_10  and  C_12
REMARK    6  A    between atoms: C_12  and  C_13
REMARK    7  A    between atoms: C_13  and  N_14
REMARK    8  A    between atoms: N_14  and  C_15
REMARK    9  A    between atoms: N_14  and  C_16
REMARK   10  A    between atoms: N_19  and  C_20
REMARK   11  A    between atoms: C_27  and  C_28
REMARK                            x       y       z     vdW  Elec       q    Type
REMARK                         _______ _______ _______ _____ _____    ______ ____
ROOT
ATOM      1  C   UNL     1      -9.913  -5.894  16.155  0.00  0.00    +0.000 C 
ATOM      2  C   UNL     1     -10.900  -7.127  16.162  0.00  0.00    +0.000 C 
ATOM      3  C   UNL     1     -10.678  -8.130  17.306  0.00  0.00    +0.000 C 
ATOM      4  N   UNL     1      -9.261  -8.463  17.257  0.00  0.00    +0.000 N 
ATOM      5  C   UNL     1      -8.435  -7.358  17.702  0.00  0.00    +0.000 C 
ATOM      6  C   UNL     1      -8.485  -6.317  16.580  0.00  0.00    +0.000 C 
ATOM      7  H   UNL     1     -10.785  -7.685  15.224  0.00  0.00    +0.000 HD
ATOM      8  H   UNL     1     -11.942  -6.780  16.188  0.00  0.00    +0.000 HD
ATOM      9  H   UNL     1     -11.331  -8.995  17.137  0.00  0.00    +0.000 HD
ATOM     10  H   UNL     1     -10.954  -7.724  18.288  0.00  0.00    +0.000 HD
ATOM     11  H   UNL     1      -7.403  -7.650  17.911  0.00  0.00    +0.000 HD
ATOM     12  H   UNL     1      -8.808  -6.927  18.640  0.00  0.00    +0.000 HD
ATOM     13  H   UNL     1      -7.996  -6.737  15.697  0.00  0.00    +0.000 HD
ATOM     14  H   UNL     1      -7.896  -5.462  16.920  0.00  0.00    +0.000 HD
ENDROOT
BRANCH   4  15
ATOM     15  C   UNL     1      -8.875  -9.753  17.581  0.00  0.00    +0.000 A 
ATOM     16  N   UNL     1      -8.656 -10.065  18.887  0.00  0.00    +0.000 NA
ATOM     17  C   UNL     1      -8.381 -11.337  19.232  0.00  0.00    +0.000 A 
ATOM     18  N   UNL     1      -8.311 -12.407  18.432  0.00  0.00    +0.000 NA
ATOM     19  C   UNL     1      -8.551 -12.077  17.158  0.00  0.00    +0.000 A 
ATOM     20  N   UNL     1      -8.587 -12.989  16.146  0.00  0.00    +0.000 N 
ATOM     21  C   UNL     1      -8.878 -12.369  14.969  0.00  0.00    +0.000 A 
ATOM     22  C   UNL     1      -9.047 -11.017  15.219  0.00  0.00    +0.000 A 
ATOM     23  C   UNL     1      -8.825 -10.816  16.636  0.00  0.00    +0.000 A 
ATOM     24  H   UNL     1      -8.208 -11.517  20.288  0.00  0.00    +0.000 HD
ATOM     25  H   UNL     1      -8.447 -13.979  16.279  0.00  0.00    +0.000 HD
ATOM     26  H   UNL     1      -8.970 -12.929  14.048  0.00  0.00    +0.000 HD
BRANCH  22  27
ATOM     27  C   UNL     1      -9.418 -10.037  14.168  0.00  0.00    +0.000 C 
ATOM     28  H   UNL     1     -10.501  -9.878  14.144  0.00  0.00    +0.000 HD
ATOM     29  H   UNL     1      -9.153 -10.393  13.171  0.00  0.00    +0.000 HD
ATOM     30  H   UNL     1      -8.950  -9.069  14.362  0.00  0.00    +0.000 HD
ENDBRANCH  22  27
ENDBRANCH   4  15
BRANCH   1  32
ATOM     31  N   UNL     1      -9.771  -3.737  17.397  0.00  0.00    +0.000 N 
ATOM     32  C   UNL     1     -10.456  -4.922  17.212  0.00  0.00    +0.000 C 
ATOM     33  O   UNL     1     -11.404  -5.275  17.914  0.00  0.00    +0.000 OA
ATOM     34  H   UNL     1      -9.062  -3.507  16.698  0.00  0.00    +0.000 HD
BRANCH  31  38
ATOM     35  C   UNL     1     -10.644  -0.761  20.300  0.00  0.00    +0.000 A 
ATOM     36  C   UNL     1      -9.914  -1.887  20.662  0.00  0.00    +0.000 A 
ATOM     37  C   UNL     1      -9.634  -2.877  19.719  0.00  0.00    +0.000 A 
ATOM     38  C   UNL     1     -10.062  -2.775  18.394  0.00  0.00    +0.000 A 
ATOM     39  C   UNL     1     -10.799  -1.643  18.027  0.00  0.00    +0.000 A 
ATOM     40  C   UNL     1     -11.093  -0.643  18.973  0.00  0.00    +0.000 A 
ATOM     41  H   UNL     1      -9.550  -2.016  21.681  0.00  0.00    +0.000 HD
ATOM     42  H   UNL     1      -9.050  -3.718  20.074  0.00  0.00    +0.000 HD
ATOM     43  H   UNL     1     -11.171  -1.521  17.011  0.00  0.00    +0.000 HD
ATOM     44  H   UNL     1     -11.674   0.224  18.664  0.00  0.00    +0.000 HD
BRANCH  35  45
ATOM     45  C   UNL     1     -10.889   0.264  21.354  0.00  0.00    +0.000 C 
ATOM     46  O   UNL     1     -10.369   1.369  21.372  0.00  0.00    +0.000 OA
BRANCH  45  47
ATOM     47  O   UNL     1     -11.771  -0.207  22.269  0.00  0.00    +0.000 OA
BRANCH  47  48
ATOM     48  C   UNL     1     -13.133   0.048  21.929  0.00  0.00    +0.000 C 
ATOM     49  H   UNL     1     -13.562  -0.885  21.559  0.00  0.00    +0.000 HD
ATOM     50  H   UNL     1     -13.184   0.800  21.137  0.00  0.00    +0.000 HD
ATOM     51  H   UNL     1     -13.704   0.369  22.806  0.00  0.00    +0.000 HD
ENDBRANCH  47  48
ENDBRANCH  45  47
ENDBRANCH  35  45
ENDBRANCH  31  38
ENDBRANCH   1  32
BRANCH   1  52
ATOM     52  C   UNL     1      -9.941  -5.317  14.694  0.00  0.00    +0.000 C 
ATOM     53  H   UNL     1     -10.725  -5.886  14.172  0.00  0.00    +0.000 HD
ATOM     54  H   UNL     1      -8.996  -5.579  14.195  0.00  0.00    +0.000 HD
BRANCH  52  55
ATOM     55  N   UNL     1     -10.233  -3.880  14.430  0.00  0.00    +0.000 NA
BRANCH  55  56
ATOM     56  C   UNL     1      -9.224  -3.176  13.625  0.00  0.00    +0.000 C 
ATOM     57  H   UNL     1      -9.153  -2.117  13.851  0.00  0.00    +0.000 HD
ATOM     58  H   UNL     1      -9.518  -3.208  12.568  0.00  0.00    +0.000 HD
ATOM     59  H   UNL     1      -8.224  -3.618  13.714  0.00  0.00    +0.000 HD
ENDBRANCH  55  56
BRANCH  55  60
ATOM     60  C   UNL     1     -11.493  -3.796  13.651  0.00  0.00    +0.000 C 
ATOM     61  H   UNL     1     -11.444  -4.396  12.737  0.00  0.00    +0.000 HD
ATOM     62  H   UNL     1     -11.730  -2.761  13.367  0.00  0.00    +0.000 HD
ATOM     63  H   UNL     1     -12.333  -4.182  14.240  0.00  0.00    +0.000 HD
ENDBRANCH  55  60
ENDBRANCH  52  55
ENDBRANCH   1  52
TORSDOF 11
ENDMDL
MODEL 7
REMARK VINA RESULT:    -8.568      3.030      6.476
REMARK INTER + INTRA:         -14.123
REMARK INTER:                 -13.094
REMARK INTRA:                  -1.029
REMARK UNBOUND:                -1.048
REMARK  Name = 
REMARK  11 active torsions:
REMARK  status: ('A' for Active; 'I' for Inactive)
REMARK    1  A    between atoms: C_1  and  O_2
REMARK    2  A    between atoms: O_2  and  C_3
REMARK    3  A    between atoms: C_3  and  C_5
REMARK    4  A    between atoms: C_8  and  N_9
REMARK    5  A    between atoms: C_10  and  C_12
REMARK    6  A    between atoms: C_12  and  C_13
REMARK    7  A    between atoms: C_13  and  N_14
REMARK    8  A    between atoms: N_14  and  C_15
REMARK    9  A    between atoms: N_14  and  C_16
REMARK   10  A    between atoms: N_19  and  C_20
REMARK   11  A    between atoms: C_27  and  C_28
REMARK                            x       y       z     vdW  Elec       q    Type
REMARK                         _______ _______ _______ _____ _____    ______ ____
ROOT
ATOM      1  C   UNL     1      -9.999  -5.809  17.635  0.00  0.00    +0.000 C 
ATOM      2  C   UNL     1      -8.585  -6.334  17.164  0.00  0.00    +0.000 C 
ATOM      3  C   UNL     1      -8.585  -7.753  16.571  0.00  0.00    +0.000 C 
ATOM      4  N   UNL     1      -9.264  -8.583  17.557  0.00  0.00    +0.000 N 
ATOM      5  C   UNL     1     -10.687  -8.308  17.601  0.00  0.00    +0.000 C 
ATOM      6  C   UNL     1     -10.832  -6.944  18.280  0.00  0.00    +0.000 C 
ATOM      7  H   UNL     1      -7.903  -6.349  18.023  0.00  0.00    +0.000 HD
ATOM      8  H   UNL     1      -8.147  -5.642  16.433  0.00  0.00    +0.000 HD
ATOM      9  H   UNL     1      -7.545  -8.053  16.397  0.00  0.00    +0.000 HD
ATOM     10  H   UNL     1      -9.088  -7.807  15.597  0.00  0.00    +0.000 HD
ATOM     11  H   UNL     1     -11.255  -9.070  18.139  0.00  0.00    +0.000 HD
ATOM     12  H   UNL     1     -11.123  -8.281  16.594  0.00  0.00    +0.000 HD
ATOM     13  H   UNL     1     -10.500  -7.039  19.318  0.00  0.00    +0.000 HD
ATOM     14  H   UNL     1     -11.899  -6.708  18.285  0.00  0.00    +0.000 HD
ENDROOT
BRANCH   4  15
ATOM     15  C   UNL     1      -8.835  -9.888  17.729  0.00  0.00    +0.000 A 
ATOM     16  N   UNL     1      -8.505 -10.312  18.980  0.00  0.00    +0.000 NA
ATOM     17  C   UNL     1      -8.185 -11.604  19.184  0.00  0.00    +0.000 A 
ATOM     18  N   UNL     1      -8.166 -12.596  18.286  0.00  0.00    +0.000 NA
ATOM     19  C   UNL     1      -8.513 -12.156  17.070  0.00  0.00    +0.000 A 
ATOM     20  N   UNL     1      -8.618 -12.974  15.985  0.00  0.00    +0.000 N 
ATOM     21  C   UNL     1      -9.013 -12.257  14.897  0.00  0.00    +0.000 A 
ATOM     22  C   UNL     1      -9.180 -10.937  15.283  0.00  0.00    +0.000 A 
ATOM     23  C   UNL     1      -8.847 -10.860  16.690  0.00  0.00    +0.000 A 
ATOM     24  H   UNL     1      -7.925 -11.874  20.202  0.00  0.00    +0.000 HD
ATOM     25  H   UNL     1      -8.454 -13.969  16.015  0.00  0.00    +0.000 HD
ATOM     26  H   UNL     1      -9.172 -12.733  13.939  0.00  0.00    +0.000 HD
BRANCH  22  27
ATOM     27  C   UNL     1      -9.649  -9.874  14.359  0.00  0.00    +0.000 C 
ATOM     28  H   UNL     1      -9.629 -10.219  13.320  0.00  0.00    +0.000 HD
ATOM     29  H   UNL     1      -9.000  -8.997  14.388  0.00  0.00    +0.000 HD
ATOM     30  H   UNL     1     -10.679  -9.591  14.590  0.00  0.00    +0.000 HD
ENDBRANCH  22  27
ENDBRANCH   4  15
BRANCH   1  32
ATOM     31  N   UNL     1     -10.174  -4.297  15.661  0.00  0.00    +0.000 N 
ATOM     32  C   UNL     1     -10.721  -5.356  16.359  0.00  0.00    +0.000 C 
ATOM     33  O   UNL     1     -11.797  -5.878  16.067  0.00  0.00    +0.000 OA
ATOM     34  H   UNL     1      -9.234  -4.007  15.938  0.00  0.00    +0.000 HD
BRANCH  31  38
ATOM     35  C   UNL     1     -12.013  -2.400  12.335  0.00  0.00    +0.000 A 
ATOM     36  C   UNL     1     -11.310  -3.585  12.153  0.00  0.00    +0.000 A 
ATOM     37  C   UNL     1     -10.691  -4.209  13.238  0.00  0.00    +0.000 A 
ATOM     38  C   UNL     1     -10.756  -3.681  14.528  0.00  0.00    +0.000 A 
ATOM     39  C   UNL     1     -11.461  -2.486  14.714  0.00  0.00    +0.000 A 
ATOM     40  C   UNL     1     -12.083  -1.845  13.625  0.00  0.00    +0.000 A 
ATOM     41  H   UNL     1     -11.231  -4.045  11.169  0.00  0.00    +0.000 HD
ATOM     42  H   UNL     1     -10.173  -5.136  13.018  0.00  0.00    +0.000 HD
ATOM     43  H   UNL     1     -11.530  -2.022  15.696  0.00  0.00    +0.000 HD
ATOM     44  H   UNL     1     -12.619  -0.913  13.794  0.00  0.00    +0.000 HD
BRANCH  35  45
ATOM     45  C   UNL     1     -12.664  -1.799  11.136  0.00  0.00    +0.000 C 
ATOM     46  O   UNL     1     -13.574  -0.986  11.185  0.00  0.00    +0.000 OA
BRANCH  45  47
ATOM     47  O   UNL     1     -12.094  -2.278  10.004  0.00  0.00    +0.000 OA
BRANCH  47  48
ATOM     48  C   UNL     1     -11.497  -1.264   9.196  0.00  0.00    +0.000 C 
ATOM     49  H   UNL     1     -11.864  -0.299   9.551  0.00  0.00    +0.000 HD
ATOM     50  H   UNL     1     -11.797  -1.395   8.153  0.00  0.00    +0.000 HD
ATOM     51  H   UNL     1     -10.406  -1.277   9.291  0.00  0.00    +0.000 HD
ENDBRANCH  47  48
ENDBRANCH  45  47
ENDBRANCH  35  45
ENDBRANCH  31  38
ENDBRANCH   1  32
BRANCH   1  52
ATOM     52  C   UNL     1      -9.717  -4.641  18.649  0.00  0.00    +0.000 C 
ATOM     53  H   UNL     1      -8.631  -4.474  18.604  0.00  0.00    +0.000 HD
ATOM     54  H   UNL     1      -9.924  -5.003  19.667  0.00  0.00    +0.000 HD
BRANCH  52  55
ATOM     55  N   UNL     1     -10.347  -3.300  18.486  0.00  0.00    +0.000 NA
BRANCH  55  56
ATOM     56  C   UNL     1     -11.740  -3.206  18.945  0.00  0.00    +0.000 C 
ATOM     57  H   UNL     1     -12.114  -4.126  19.383  0.00  0.00    +0.000 HD
ATOM     58  H   UNL     1     -12.394  -3.032  18.082  0.00  0.00    +0.000 HD
ATOM     59  H   UNL     1     -11.898  -2.391  19.662  0.00  0.00    +0.000 HD
ENDBRANCH  55  56
BRANCH  55  60
ATOM     60  C   UNL     1      -9.589  -2.327  19.311  0.00  0.00    +0.000 C 
ATOM     61  H   UNL     1      -9.174  -2.795  20.209  0.00  0.00    +0.000 HD
ATOM     62  H   UNL     1     -10.217  -1.483  19.627  0.00  0.00    +0.000 HD
ATOM     63  H   UNL     1      -8.743  -1.923  18.743  0.00  0.00    +0.000 HD
ENDBRANCH  55  60
ENDBRANCH  52  55
ENDBRANCH   1  52
TORSDOF 11
ENDMDL
MODEL 8
REMARK VINA RESULT:    -8.493      3.209      9.128
REMARK INTER + INTRA:         -14.009
REMARK INTER:                 -12.646
REMARK INTRA:                  -1.363
REMARK UNBOUND:                -1.048
REMARK  Name = 
REMARK  11 active torsions:
REMARK  status: ('A' for Active; 'I' for Inactive)
REMARK    1  A    between atoms: C_1  and  O_2
REMARK    2  A    between atoms: O_2  and  C_3
REMARK    3  A    between atoms: C_3  and  C_5
REMARK    4  A    between atoms: C_8  and  N_9
REMARK    5  A    between atoms: C_10  and  C_12
REMARK    6  A    between atoms: C_12  and  C_13
REMARK    7  A    between atoms: C_13  and  N_14
REMARK    8  A    between atoms: N_14  and  C_15
REMARK    9  A    between atoms: N_14  and  C_16
REMARK   10  A    between atoms: N_19  and  C_20
REMARK   11  A    between atoms: C_27  and  C_28
REMARK                            x       y       z     vdW  Elec       q    Type
REMARK                         _______ _______ _______ _____ _____    ______ ____
ROOT
ATOM      1  C   UNL     1     -10.324  -5.440  17.438  0.00  0.00    +0.000 C 
ATOM      2  C   UNL     1     -11.783  -4.961  17.067  0.00  0.00    +0.000 C 
ATOM      3  C   UNL     1     -12.128  -5.032  15.570  0.00  0.00    +0.000 C 
ATOM      4  N   UNL     1     -11.047  -4.331  14.891  0.00  0.00    +0.000 N 
ATOM      5  C   UNL     1      -9.813  -5.091  14.921  0.00  0.00    +0.000 C 
ATOM      6  C   UNL     1      -9.301  -5.006  16.361  0.00  0.00    +0.000 C 
ATOM      7  H   UNL     1     -11.906  -3.913  17.371  0.00  0.00    +0.000 HD
ATOM      8  H   UNL     1     -12.528  -5.535  17.633  0.00  0.00    +0.000 HD
ATOM      9  H   UNL     1     -13.108  -4.564  15.420  0.00  0.00    +0.000 HD
ATOM     10  H   UNL     1     -12.221  -6.063  15.204  0.00  0.00    +0.000 HD
ATOM     11  H   UNL     1      -9.061  -4.719  14.221  0.00  0.00    +0.000 HD
ATOM     12  H   UNL     1      -9.978  -6.139  14.636  0.00  0.00    +0.000 HD
ATOM     13  H   UNL     1      -9.032  -3.967  16.570  0.00  0.00    +0.000 HD
ATOM     14  H   UNL     1      -8.389  -5.607  16.405  0.00  0.00    +0.000 HD
ENDROOT
BRANCH   4  15
ATOM     15  C   UNL     1     -11.347  -3.597  13.756  0.00  0.00    +0.000 A 
ATOM     16  N   UNL     1     -11.155  -4.167  12.535  0.00  0.00    +0.000 NA
ATOM     17  C   UNL     1     -11.537  -3.508  11.424  0.00  0.00    +0.000 A 
ATOM     18  N   UNL     1     -12.135  -2.315  11.343  0.00  0.00    +0.000 NA
ATOM     19  C   UNL     1     -12.332  -1.787  12.557  0.00  0.00    +0.000 A 
ATOM     20  N   UNL     1     -12.965  -0.597  12.759  0.00  0.00    +0.000 N 
ATOM     21  C   UNL     1     -13.042  -0.329  14.091  0.00  0.00    +0.000 A 
ATOM     22  C   UNL     1     -12.451  -1.375  14.781  0.00  0.00    +0.000 A 
ATOM     23  C   UNL     1     -11.977  -2.321  13.793  0.00  0.00    +0.000 A 
ATOM     24  H   UNL     1     -11.348  -4.014  10.483  0.00  0.00    +0.000 HD
ATOM     25  H   UNL     1     -13.342  -0.030  12.014  0.00  0.00    +0.000 HD
ATOM     26  H   UNL     1     -13.529   0.566  14.456  0.00  0.00    +0.000 HD
BRANCH  22  27
ATOM     27  C   UNL     1     -12.393  -1.441  16.263  0.00  0.00    +0.000 C 
ATOM     28  H   UNL     1     -12.092  -2.438  16.600  0.00  0.00    +0.000 HD
ATOM     29  H   UNL     1     -13.371  -1.263  16.713  0.00  0.00    +0.000 HD
ATOM     30  H   UNL     1     -11.661  -0.729  16.650  0.00  0.00    +0.000 HD
ENDBRANCH  22  27
ENDBRANCH   4  15
BRANCH   1  32
ATOM     31  N   UNL     1      -9.207  -7.656  17.201  0.00  0.00    +0.000 N 
ATOM     32  C   UNL     1     -10.382  -6.974  17.449  0.00  0.00    +0.000 C 
ATOM     33  O   UNL     1     -11.474  -7.527  17.574  0.00  0.00    +0.000 OA
ATOM     34  H   UNL     1      -8.349  -7.101  17.208  0.00  0.00    +0.000 HD
BRANCH  31  38
ATOM     35  C   UNL     1      -8.783 -11.872  16.896  0.00  0.00    +0.000 A 
ATOM     36  C   UNL     1      -9.053 -11.120  15.758  0.00  0.00    +0.000 A 
ATOM     37  C   UNL     1      -9.207  -9.736  15.851  0.00  0.00    +0.000 A 
ATOM     38  C   UNL     1      -9.093  -9.060  17.068  0.00  0.00    +0.000 A 
ATOM     39  C   UNL     1      -8.823  -9.815  18.215  0.00  0.00    +0.000 A 
ATOM     40  C   UNL     1      -8.674 -11.213  18.133  0.00  0.00    +0.000 A 
ATOM     41  H   UNL     1      -9.147 -11.594  14.782  0.00  0.00    +0.000 HD
ATOM     42  H   UNL     1      -9.403  -9.218  14.919  0.00  0.00    +0.000 HD
ATOM     43  H   UNL     1      -8.741  -9.341  19.191  0.00  0.00    +0.000 HD
ATOM     44  H   UNL     1      -8.473 -11.778  19.041  0.00  0.00    +0.000 HD
BRANCH  35  45
ATOM     45  C   UNL     1      -8.612 -13.342  16.720  0.00  0.00    +0.000 C 
ATOM     46  O   UNL     1      -8.806 -14.166  17.602  0.00  0.00    +0.000 OA
BRANCH  45  47
ATOM     47  O   UNL     1      -8.225 -13.621  15.452  0.00  0.00    +0.000 OA
BRANCH  47  48
ATOM     48  C   UNL     1      -8.828 -14.801  14.921  0.00  0.00    +0.000 C 
ATOM     49  H   UNL     1      -9.908 -14.650  14.922  0.00  0.00    +0.000 HD
ATOM     50  H   UNL     1      -8.590 -15.658  15.558  0.00  0.00    +0.000 HD
ATOM     51  H   UNL     1      -8.502 -14.980  13.891  0.00  0.00    +0.000 HD
ENDBRANCH  47  48
ENDBRANCH  45  47
ENDBRANCH  35  45
ENDBRANCH  31  38
ENDBRANCH   1  32
BRANCH   1  52
ATOM     52  C   UNL     1     -10.000  -4.811  18.841  0.00  0.00    +0.000 C 
ATOM     53  H   UNL     1     -10.312  -5.567  19.577  0.00  0.00    +0.000 HD
ATOM     54  H   UNL     1     -10.661  -3.947  19.000  0.00  0.00    +0.000 HD
BRANCH  52  55
ATOM     55  N   UNL     1      -8.612  -4.421  19.217  0.00  0.00    +0.000 NA
BRANCH  55  56
ATOM     56  C   UNL     1      -8.514  -3.321  20.187  0.00  0.00    +0.000 C 
ATOM     57  H   UNL     1      -7.494  -3.016  20.394  0.00  0.00    +0.000 HD
ATOM     58  H   UNL     1      -8.897  -3.659  21.158  0.00  0.00    +0.000 HD
ATOM     59  H   UNL     1      -9.086  -2.434  19.885  0.00  0.00    +0.000 HD
ENDBRANCH  55  56
BRANCH  55  60
ATOM     60  C   UNL     1      -7.960  -5.584  19.868  0.00  0.00    +0.000 C 
ATOM     61  H   UNL     1      -6.889  -5.417  20.018  0.00  0.00    +0.000 HD
ATOM     62  H   UNL     1      -8.081  -6.503  19.278  0.00  0.00    +0.000 HD
ATOM     63  H   UNL     1      -8.397  -5.761  20.858  0.00  0.00    +0.000 HD
ENDBRANCH  55  60
ENDBRANCH  52  55
ENDBRANCH   1  52
TORSDOF 11
ENDMDL
MODEL 9
REMARK VINA RESULT:    -8.012      3.422      9.063
REMARK INTER + INTRA:         -13.274
REMARK INTER:                 -11.642
REMARK INTRA:                  -1.632
REMARK UNBOUND:                -1.048
REMARK  Name = 
REMARK  11 active torsions:
REMARK  status: ('A' for Active; 'I' for Inactive)
REMARK    1  A    between atoms: C_1  and  O_2
REMARK    2  A    between atoms: O_2  and  C_3
REMARK    3  A    between atoms: C_3  and  C_5
REMARK    4  A    between atoms: C_8  and  N_9
REMARK    5  A    between atoms: C_10  and  C_12
REMARK    6  A    between atoms: C_12  and  C_13
REMARK    7  A    between atoms: C_13  and  N_14
REMARK    8  A    between atoms: N_14  and  C_15
REMARK    9  A    between atoms: N_14  and  C_16
REMARK   10  A    between atoms: N_19  and  C_20
REMARK   11  A    between atoms: C_27  and  C_28
REMARK                            x       y       z     vdW  Elec       q    Type
REMARK                         _______ _______ _______ _____ _____    ______ ____
ROOT
ATOM      1  C   UNL     1     -10.716  -3.940  17.178  0.00  0.00    +0.000 C 
ATOM      2  C   UNL     1      -9.385  -3.430  17.859  0.00  0.00    +0.000 C 
ATOM      3  C   UNL     1      -9.440  -3.322  19.392  0.00  0.00    +0.000 C 
ATOM      4  N   UNL     1     -10.632  -2.535  19.680  0.00  0.00    +0.000 N 
ATOM      5  C   UNL     1     -11.844  -3.285  19.417  0.00  0.00    +0.000 C 
ATOM      6  C   UNL     1     -11.965  -3.371  17.894  0.00  0.00    +0.000 C 
ATOM      7  H   UNL     1      -9.148  -2.428  17.478  0.00  0.00    +0.000 HD
ATOM      8  H   UNL     1      -8.541  -4.074  17.576  0.00  0.00    +0.000 HD
ATOM      9  H   UNL     1      -8.515  -2.845  19.736  0.00  0.00    +0.000 HD
ATOM     10  H   UNL     1      -9.484  -4.301  19.886  0.00  0.00    +0.000 HD
ATOM     11  H   UNL     1     -12.736  -2.824  19.850  0.00  0.00    +0.000 HD
ATOM     12  H   UNL     1     -11.800  -4.291  19.854  0.00  0.00    +0.000 HD
ATOM     13  H   UNL     1     -12.130  -2.363  17.503  0.00  0.00    +0.000 HD
ATOM     14  H   UNL     1     -12.857  -3.966  17.683  0.00  0.00    +0.000 HD
ENDROOT
BRANCH   4  15
ATOM     15  C   UNL     1     -10.606  -1.671  20.761  0.00  0.00    +0.000 A 
ATOM     16  N   UNL     1     -10.520  -2.191  22.016  0.00  0.00    +0.000 NA
ATOM     17  C   UNL     1     -10.390  -1.366  23.072  0.00  0.00    +0.000 A 
ATOM     18  N   UNL     1     -10.304  -0.031  23.065  0.00  0.00    +0.000 NA
ATOM     19  C   UNL     1     -10.371   0.453  21.818  0.00  0.00    +0.000 A 
ATOM     20  N   UNL     1     -10.261   1.779  21.527  0.00  0.00    +0.000 N 
ATOM     21  C   UNL     1     -10.339   1.970  20.182  0.00  0.00    +0.000 A 
ATOM     22  C   UNL     1     -10.495   0.734  19.575  0.00  0.00    +0.000 A 
ATOM     23  C   UNL     1     -10.528  -0.256  20.631  0.00  0.00    +0.000 A 
ATOM     24  H   UNL     1     -10.334  -1.844  24.045  0.00  0.00    +0.000 HD
ATOM     25  H   UNL     1     -10.112   2.495  22.223  0.00  0.00    +0.000 HD
ATOM     26  H   UNL     1     -10.254   2.958  19.749  0.00  0.00    +0.000 HD
BRANCH  22  27
ATOM     27  C   UNL     1     -10.571   0.556  18.103  0.00  0.00    +0.000 C 
ATOM     28  H   UNL     1     -10.150  -0.409  17.802  0.00  0.00    +0.000 HD
ATOM     29  H   UNL     1      -9.985   1.309  17.574  0.00  0.00    +0.000 HD
ATOM     30  H   UNL     1     -11.611   0.579  17.767  0.00  0.00    +0.000 HD
ENDBRANCH  22  27
ENDBRANCH   4  15
BRANCH   1  32
ATOM     31  N   UNL     1      -9.527  -6.131  17.142  0.00  0.00    +0.000 N 
ATOM     32  C   UNL     1     -10.717  -5.465  17.359  0.00  0.00    +0.000 C 
ATOM     33  O   UNL     1     -11.784  -6.035  17.588  0.00  0.00    +0.000 OA
ATOM     34  H   UNL     1      -8.690  -5.552  17.055  0.00  0.00    +0.000 HD
BRANCH  31  38
ATOM     35  C   UNL     1      -8.962 -10.339  17.288  0.00  0.00    +0.000 A 
ATOM     36  C   UNL     1      -9.287  -9.726  16.083  0.00  0.00    +0.000 A 
ATOM     37  C   UNL     1      -9.488  -8.346  16.028  0.00  0.00    +0.000 A 
ATOM     38  C   UNL     1      -9.367  -7.537  17.160  0.00  0.00    +0.000 A 
ATOM     39  C   UNL     1      -9.043  -8.152  18.375  0.00  0.00    +0.000 A 
ATOM     40  C   UNL     1      -8.846  -9.545  18.442  0.00  0.00    +0.000 A 
ATOM     41  H   UNL     1      -9.388 -10.308  15.168  0.00  0.00    +0.000 HD
ATOM     42  H   UNL     1      -9.725  -7.941  15.051  0.00  0.00    +0.000 HD
ATOM     43  H   UNL     1      -8.953  -7.571  19.291  0.00  0.00    +0.000 HD
ATOM     44  H   UNL     1      -8.602  -9.999  19.401  0.00  0.00    +0.000 HD
BRANCH  35  45
ATOM     45  C   UNL     1      -8.744 -11.813  17.270  0.00  0.00    +0.000 C 
ATOM     46  O   UNL     1      -8.713 -12.490  16.253  0.00  0.00    +0.000 OA
BRANCH  45  47
ATOM     47  O   UNL     1      -8.580 -12.279  18.532  0.00  0.00    +0.000 OA
BRANCH  47  48
ATOM     48  C   UNL     1      -8.817 -13.681  18.654  0.00  0.00    +0.000 C 
ATOM     49  H   UNL     1      -8.984 -14.078  17.652  0.00  0.00    +0.000 HD
ATOM     50  H   UNL     1      -9.712 -13.856  19.258  0.00  0.00    +0.000 HD
ATOM     51  H   UNL     1      -7.950 -14.190  19.089  0.00  0.00    +0.000 HD
ENDBRANCH  47  48
ENDBRANCH  45  47
ENDBRANCH  35  45
ENDBRANCH  31  38
ENDBRANCH   1  32
BRANCH   1  52
ATOM     52  C   UNL     1     -10.643  -3.484  15.675  0.00  0.00    +0.000 C 
ATOM     53  H   UNL     1      -9.626  -3.087  15.542  0.00  0.00    +0.000 HD
ATOM     54  H   UNL     1     -11.320  -2.628  15.536  0.00  0.00    +0.000 HD
BRANCH  52  55
ATOM     55  N   UNL     1     -10.860  -4.446  14.558  0.00  0.00    +0.000 NA
BRANCH  55  56
ATOM     56  C   UNL     1     -11.769  -3.980  13.502  0.00  0.00    +0.000 C 
ATOM     57  H   UNL     1     -11.805  -2.899  13.407  0.00  0.00    +0.000 HD
ATOM     58  H   UNL     1     -12.798  -4.262  13.759  0.00  0.00    +0.000 HD
ATOM     59  H   UNL     1     -11.534  -4.406  12.519  0.00  0.00    +0.000 HD
ENDBRANCH  55  56
BRANCH  55  60
ATOM     60  C   UNL     1      -9.557  -4.681  13.887  0.00  0.00    +0.000 C 
ATOM     61  H   UNL     1      -9.587  -5.569  13.248  0.00  0.00    +0.000 HD
ATOM     62  H   UNL     1      -8.742  -4.811  14.612  0.00  0.00    +0.000 HD
ATOM     63  H   UNL     1      -9.301  -3.833  13.243  0.00  0.00    +0.000 HD
ENDBRANCH  55  60
ENDBRANCH  52  55
ENDBRANCH   1  52
TORSDOF 11
ENDMDL
