
 OpenBabel01112422403D

 44 48  0  0  0  0  0  0  0  0999 V2000
    2.8672   -1.0757    0.1705 O   0  0  0  0  0  0  0  0  0  0  0  0
    2.2152   -0.0706   -0.1084 C   0  0  0  0  0  0  0  0  0  0  0  0
    0.8015   -0.0420    0.3485 C   0  0  0  0  0  0  0  0  0  0  0  0
    0.5008   -0.5467    1.6159 C   0  0  0  0  0  0  0  0  0  0  0  0
   -0.8044   -0.4665    2.1028 C   0  0  0  0  0  0  0  0  0  0  0  0
   -1.8236    0.1128    1.3301 C   0  0  0  0  0  0  0  0  0  0  0  0
   -3.1364    0.2077    1.8146 C   0  0  0  0  0  0  0  0  0  0  0  0
   -4.1426    0.7868    1.0401 C   0  0  0  0  0  0  0  0  0  0  0  0
   -3.8446    1.2985   -0.2195 C   0  0  0  0  0  0  0  0  0  0  0  0
   -2.5422    1.2188   -0.7144 C   0  0  0  0  0  0  0  0  0  0  0  0
   -1.5251    0.6103    0.0397 C   0  0  0  0  0  0  0  0  0  0  0  0
   -0.2149    0.4983   -0.4532 C   0  0  0  0  0  0  0  0  0  0  0  0
    2.8535    0.9385   -0.8777 N   0  0  0  0  0  0  0  0  0  0  0  0
    3.9176    0.7086   -1.7708 C   0  0  0  0  0  0  0  0  0  0  0  0
    4.6298   -0.4755   -2.0747 C   0  0  0  0  0  0  0  0  0  0  0  0
    5.6042   -0.4183   -3.0708 C   0  0  0  0  0  0  0  0  0  0  0  0
    6.3282   -1.5235   -3.4224 O   0  0  0  0  0  0  0  0  0  0  0  0
    5.8591    0.7610   -3.7532 C   0  0  0  0  0  0  0  0  0  0  0  0
    6.8141    0.7883   -4.7322 O   0  0  0  0  0  0  0  0  0  0  0  0
    5.1608    1.9269   -3.4647 C   0  0  0  0  0  0  0  0  0  0  0  0
    4.1624    1.8978   -2.4609 C   0  0  0  0  0  0  0  0  0  0  0  0
    3.2793    2.8906   -1.9440 C   0  0  0  0  0  0  0  0  0  0  0  0
    3.0746    4.2569   -2.2524 C   0  0  0  0  0  0  0  0  0  0  0  0
    2.1207    5.0090   -1.5568 C   0  0  0  0  0  0  0  0  0  0  0  0
    1.4217    4.4184   -0.5241 C   0  0  0  0  0  0  0  0  0  0  0  0
    0.4744    5.0994    0.1984 O   0  0  0  0  0  0  0  0  0  0  0  0
    1.6505    3.0917   -0.1635 C   0  0  0  0  0  0  0  0  0  0  0  0
    1.0075    2.6215    0.9546 O   0  0  0  0  0  0  0  0  0  0  0  0
    2.5302    2.2973   -0.9207 C   0  0  0  0  0  0  0  0  0  0  0  0
    1.2846   -0.9727    2.2380 H   0  0  0  0  0  0  0  0  0  0  0  0
   -1.0160   -0.8464    3.0998 H   0  0  0  0  0  0  0  0  0  0  0  0
   -3.3869   -0.1776    2.8005 H   0  0  0  0  0  0  0  0  0  0  0  0
   -5.1589    0.8362    1.4219 H   0  0  0  0  0  0  0  0  0  0  0  0
   -4.6277    1.7539   -0.8203 H   0  0  0  0  0  0  0  0  0  0  0  0
   -2.3273    1.6358   -1.6961 H   0  0  0  0  0  0  0  0  0  0  0  0
    0.0202    0.8938   -1.4388 H   0  0  0  0  0  0  0  0  0  0  0  0
    4.4273   -1.4041   -1.5511 H   0  0  0  0  0  0  0  0  0  0  0  0
    6.0284   -2.2659   -2.8624 H   0  0  0  0  0  0  0  0  0  0  0  0
    7.1594   -0.1271   -4.7574 H   0  0  0  0  0  0  0  0  0  0  0  0
    5.3748    2.8375   -4.0112 H   0  0  0  0  0  0  0  0  0  0  0  0
    3.6627    4.7273   -3.0356 H   0  0  0  0  0  0  0  0  0  0  0  0
    1.9660    6.0493   -1.8227 H   0  0  0  0  0  0  0  0  0  0  0  0
    0.4319    6.0080   -0.1354 H   0  0  0  0  0  0  0  0  0  0  0  0
    0.3090    3.2814    1.1442 H   0  0  0  0  0  0  0  0  0  0  0  0
  1  2  2  0  0  0  0
  2  3  1  0  0  0  0
  2 13  1  0  0  0  0
  3  4  1  0  0  0  0
  3 12  2  0  0  0  0
  4  5  2  0  0  0  0
  4 30  1  0  0  0  0
  5  6  1  0  0  0  0
  5 31  1  0  0  0  0
  6  7  1  0  0  0  0
  6 11  2  0  0  0  0
  7  8  2  0  0  0  0
  7 32  1  0  0  0  0
  8  9  1  0  0  0  0
  8 33  1  0  0  0  0
  9 10  2  0  0  0  0
  9 34  1  0  0  0  0
 10 11  1  0  0  0  0
 10 35  1  0  0  0  0
 11 12  1  0  0  0  0
 12 36  1  0  0  0  0
 13 14  1  0  0  0  0
 13 29  1  0  0  0  0
 14 15  1  0  0  0  0
 14 21  2  0  0  0  0
 15 16  2  0  0  0  0
 15 37  1  0  0  0  0
 16 17  1  0  0  0  0
 16 18  1  0  0  0  0
 17 38  1  0  0  0  0
 18 19  1  0  0  0  0
 18 20  2  0  0  0  0
 19 39  1  0  0  0  0
 20 21  1  0  0  0  0
 20 40  1  0  0  0  0
 21 22  1  0  0  0  0
 22 23  1  0  0  0  0
 22 29  2  0  0  0  0
 23 24  2  0  0  0  0
 23 41  1  0  0  0  0
 24 25  1  0  0  0  0
 24 42  1  0  0  0  0
 25 26  1  0  0  0  0
 25 27  2  0  0  0  0
 26 43  1  0  0  0  0
 27 28  1  0  0  0  0
 27 29  1  0  0  0  0
 28 44  1  0  0  0  0
M  END
$$$$
