REMARK  Name = 
REMARK  7 active torsions:
REMARK  status: ('A' for Active; 'I' for Inactive)
REMARK    1  A    between atoms: C_2  and  C_3
REMARK    2  A    between atoms: C_6  and  C_7
REMARK    3  A    between atoms: C_7  and  N_8
REMARK    4  A    between atoms: C_11  and  O_12
REMARK    5  A    between atoms: C_13  and  O_14
REMARK    6  A    between atoms: C_20  and  O_21
REMARK    7  A    between atoms: C_22  and  O_23
REMARK                            x       y       z     vdW  Elec       q    Type
REMARK                         _______ _______ _______ _____ _____    ______ ____
ROOT
ATOM      1  N   UNL     1      -0.746  -0.213   0.255  0.00  0.00    +0.000 N 
ATOM      2  C   UNL     1      -0.043  -0.803   1.301  0.00  0.00    +0.000 A 
ATOM      3  C   UNL     1       0.371  -0.298   2.551  0.00  0.00    +0.000 A 
ATOM      4  C   UNL     1       1.076  -1.151   3.399  0.00  0.00    +0.000 A 
ATOM      5  C   UNL     1       1.341  -2.464   3.038  0.00  0.00    +0.000 A 
ATOM      6  C   UNL     1       0.918  -2.973   1.817  0.00  0.00    +0.000 A 
ATOM      7  C   UNL     1       0.216  -2.127   0.928  0.00  0.00    +0.000 A 
ATOM      8  C   UNL     1      -0.364  -2.334  -0.361  0.00  0.00    +0.000 A 
ATOM      9  C   UNL     1      -0.459  -3.468  -1.205  0.00  0.00    +0.000 A 
ATOM     10  C   UNL     1      -1.119  -3.382  -2.436  0.00  0.00    +0.000 A 
ATOM     11  C   UNL     1      -1.670  -2.174  -2.825  0.00  0.00    +0.000 A 
ATOM     12  C   UNL     1      -1.593  -1.041  -2.010  0.00  0.00    +0.000 A 
ATOM     13  C   UNL     1      -0.943  -1.127  -0.769  0.00  0.00    +0.000 A 
ATOM     14  H   UNL     1       0.145   0.715   2.851  0.00  0.00    +0.000 HD
ATOM     15  H   UNL     1       1.123  -4.006   1.560  0.00  0.00    +0.000 HD
ATOM     16  H   UNL     1      -0.030  -4.415  -0.887  0.00  0.00    +0.000 HD
ATOM     17  H   UNL     1      -1.194  -4.267  -3.059  0.00  0.00    +0.000 HD
ENDROOT
BRANCH   1  18
ATOM     18  C   UNL     1      -1.336   1.127   0.301  0.00  0.00    +0.000 C 
ATOM     19  H   UNL     1      -2.261   1.131  -0.282  0.00  0.00    +0.000 HD
ATOM     20  H   UNL     1      -1.652   1.311   1.334  0.00  0.00    +0.000 HD
BRANCH  18  24
ATOM     21  C   UNL     1       1.417   4.196  -1.017  0.00  0.00    +0.000 A 
ATOM     22  C   UNL     1       0.564   3.583  -1.934  0.00  0.00    +0.000 A 
ATOM     23  C   UNL     1      -0.331   2.600  -1.506  0.00  0.00    +0.000 A 
ATOM     24  C   UNL     1      -0.387   2.210  -0.160  0.00  0.00    +0.000 A 
ATOM     25  C   UNL     1       0.456   2.858   0.753  0.00  0.00    +0.000 A 
ATOM     26  C   UNL     1       1.354   3.840   0.331  0.00  0.00    +0.000 A 
ATOM     27  H   UNL     1       0.591   3.861  -2.986  0.00  0.00    +0.000 HD
ATOM     28  H   UNL     1      -0.988   2.145  -2.244  0.00  0.00    +0.000 HD
ATOM     29  H   UNL     1       0.422   2.613   1.810  0.00  0.00    +0.000 HD
ATOM     30  H   UNL     1       2.008   4.315   1.059  0.00  0.00    +0.000 HD
BRANCH  21  32
ATOM     31  N   UNL     1       3.100   6.006  -1.796  0.00  0.00    +0.000 NA
ATOM     32  C   UNL     1       2.346   5.196  -1.450  0.00  0.00    +0.000 C 
ENDBRANCH  21  32
ENDBRANCH  18  24
ENDBRANCH   1  18
BRANCH   4  33
ATOM     33  O   UNL     1       1.530  -0.731   4.622  0.00  0.00    +0.000 OA
ATOM     34  H   UNL     1       1.301   0.208   4.725  0.00  0.00    +0.000 HD
ENDBRANCH   4  33
BRANCH   5  35
ATOM     35  O   UNL     1       2.023  -3.280   3.897  0.00  0.00    +0.000 OA
ATOM     36  H   UNL     1       2.215  -2.713   4.671  0.00  0.00    +0.000 HD
ENDBRANCH   5  35
BRANCH  11  37
ATOM     37  O   UNL     1      -2.331  -2.034  -4.018  0.00  0.00    +0.000 OA
ATOM     38  H   UNL     1      -2.346  -2.902  -4.456  0.00  0.00    +0.000 HD
ENDBRANCH  11  37
BRANCH  12  39
ATOM     39  O   UNL     1      -2.188   0.114  -2.459  0.00  0.00    +0.000 OA
ATOM     40  H   UNL     1      -2.537  -0.129  -3.341  0.00  0.00    +0.000 HD
ENDBRANCH  12  39
TORSDOF 7
