MODEL 1
REMARK VINA RESULT:   -10.271      0.000      0.000
REMARK INTER + INTRA:         -14.152
REMARK INTER:                 -13.274
REMARK INTRA:                  -0.879
REMARK UNBOUND:                -0.879
REMARK  Name = 
REMARK  6 active torsions:
REMARK  status: ('A' for Active; 'I' for Inactive)
REMARK    1  A    between atoms: C_1  and  N_2
REMARK    2  A    between atoms: C_12  and  C_13
REMARK    3  A    between atoms: C_13  and  C_14
REMARK    4  A    between atoms: C_14  and  N_15
REMARK    5  A    between atoms: C_19  and  C_20
REMARK    6  A    between atoms: C_20  and  O_21
REMARK                            x       y       z     vdW  Elec       q    Type
REMARK                         _______ _______ _______ _____ _____    ______ ____
ROOT
ATOM      1  N   UNL     1      -8.865  -9.383  18.719  0.00  0.00    +0.000 N 
ATOM      2  C   UNL     1      -8.655 -10.681  18.223  0.00  0.00    +0.000 A 
ATOM      3  C   UNL     1      -9.582 -10.749  17.208  0.00  0.00    +0.000 A 
ATOM      4  C   UNL     1      -9.274  -9.508  16.582  0.00  0.00    +0.000 A 
ATOM      5  C   UNL     1      -9.245  -9.149  15.233  0.00  0.00    +0.000 A 
ATOM      6  C   UNL     1      -9.236  -7.816  14.911  0.00  0.00    +0.000 A 
ATOM      7  C   UNL     1      -9.490  -6.911  15.941  0.00  0.00    +0.000 A 
ATOM      8  C   UNL     1      -9.998  -5.682  15.548  0.00  0.00    +0.000 A 
ATOM      9  N   UNL     1      -9.977  -5.018  14.363  0.00  0.00    +0.000 N 
ATOM     10  C   UNL     1     -10.295  -3.696  14.561  0.00  0.00    +0.000 A 
ATOM     11  C   UNL     1     -10.120  -2.622  13.638  0.00  0.00    +0.000 A 
ATOM     12  C   UNL     1     -10.464  -1.355  14.131  0.00  0.00    +0.000 A 
ATOM     13  C   UNL     1     -10.998  -1.184  15.406  0.00  0.00    +0.000 A 
ATOM     14  C   UNL     1     -11.203  -2.271  16.259  0.00  0.00    +0.000 A 
ATOM     15  C   UNL     1     -10.824  -3.539  15.845  0.00  0.00    +0.000 A 
ATOM     16  C   UNL     1     -10.672  -4.836  16.382  0.00  0.00    +0.000 A 
ATOM     17  C   UNL     1     -10.665  -5.092  17.782  0.00  0.00    +0.000 A 
ATOM     18  C   UNL     1      -9.676  -6.059  18.150  0.00  0.00    +0.000 A 
ATOM     19  C   UNL     1      -9.361  -7.181  17.336  0.00  0.00    +0.000 A 
ATOM     20  C   UNL     1      -9.139  -8.553  17.635  0.00  0.00    +0.000 A 
ATOM     21  C   UNL     1      -8.829  -5.244  19.007  0.00  0.00    +0.000 C 
ATOM     22  O   UNL     1      -7.611  -5.140  19.101  0.00  0.00    +0.000 OA
ATOM     23  N   UNL     1      -9.688  -4.277  19.513  0.00  0.00    +0.000 N 
ATOM     24  C   UNL     1     -10.880  -4.172  18.844  0.00  0.00    +0.000 C 
ATOM     25  O   UNL     1     -11.788  -3.417  19.153  0.00  0.00    +0.000 OA
ATOM     26  H   UNL     1      -7.618 -11.004  18.195  0.00  0.00    +0.000 HD
ATOM     27  H   UNL     1     -10.632 -10.946  17.449  0.00  0.00    +0.000 HD
ATOM     28  H   UNL     1      -9.283  -9.904  14.454  0.00  0.00    +0.000 HD
ATOM     29  H   UNL     1      -9.232  -7.538  13.864  0.00  0.00    +0.000 HD
ATOM     30  H   UNL     1      -9.510  -5.373  13.533  0.00  0.00    +0.000 HD
ATOM     31  H   UNL     1     -10.287  -0.481  13.512  0.00  0.00    +0.000 HD
ATOM     32  H   UNL     1     -11.239  -0.179  15.759  0.00  0.00    +0.000 HD
ATOM     33  H   UNL     1     -11.630  -2.084  17.243  0.00  0.00    +0.000 HD
ATOM     34  H   UNL     1      -9.338  -3.438  19.941  0.00  0.00    +0.000 HD
ENDROOT
BRANCH   1  35
ATOM     35  C   UNL     1      -8.478  -9.105  20.081  0.00  0.00    +0.000 C 
ATOM     36  H   UNL     1      -7.403  -9.258  20.176  0.00  0.00    +0.000 HD
ATOM     37  H   UNL     1      -9.068  -9.713  20.763  0.00  0.00    +0.000 HD
ATOM     38  H   UNL     1      -8.690  -8.044  20.275  0.00  0.00    +0.000 HD
ENDBRANCH   1  35
BRANCH  11  39
ATOM     39  C   UNL     1      -9.578  -2.845  12.258  0.00  0.00    +0.000 C 
ATOM     40  H   UNL     1      -9.836  -3.860  11.926  0.00  0.00    +0.000 HD
ATOM     41  H   UNL     1      -8.488  -2.785  12.292  0.00  0.00    +0.000 HD
BRANCH  39  42
ATOM     42  C   UNL     1     -10.157  -1.796  11.280  0.00  0.00    +0.000 C 
ATOM     43  H   UNL     1      -9.335  -1.352  10.708  0.00  0.00    +0.000 HD
ATOM     44  H   UNL     1     -10.584  -0.974  11.865  0.00  0.00    +0.000 HD
BRANCH  42  45
ATOM     45  N   UNL     1     -11.257  -2.251  10.401  0.00  0.00    +0.000 NA
ATOM     46  C   UNL     1     -12.437  -1.374  10.493  0.00  0.00    +0.000 C 
ATOM     47  C   UNL     1     -13.185  -1.847  11.722  0.00  0.00    +0.000 C 
ATOM     48  C   UNL     1     -13.059  -3.356  11.621  0.00  0.00    +0.000 C 
ATOM     49  C   UNL     1     -11.730  -3.588  10.898  0.00  0.00    +0.000 C 
ATOM     50  H   UNL     1     -13.055  -1.531   9.600  0.00  0.00    +0.000 HD
ATOM     51  H   UNL     1     -12.208  -0.306  10.525  0.00  0.00    +0.000 HD
ATOM     52  H   UNL     1     -14.228  -1.519  11.732  0.00  0.00    +0.000 HD
ATOM     53  H   UNL     1     -12.704  -1.482  12.637  0.00  0.00    +0.000 HD
ATOM     54  H   UNL     1     -13.903  -3.761  11.051  0.00  0.00    +0.000 HD
ATOM     55  H   UNL     1     -13.067  -3.817  12.615  0.00  0.00    +0.000 HD
ATOM     56  H   UNL     1     -11.003  -4.013  11.604  0.00  0.00    +0.000 HD
BRANCH  49  57
ATOM     57  C   UNL     1     -11.859  -4.593   9.741  0.00  0.00    +0.000 C 
ATOM     58  H   UNL     1     -11.513  -4.172   8.791  0.00  0.00    +0.000 HD
ATOM     59  H   UNL     1     -12.902  -4.906   9.619  0.00  0.00    +0.000 HD
BRANCH  57  60
ATOM     60  O   UNL     1     -11.078  -5.754  10.023  0.00  0.00    +0.000 OA
ATOM     61  H   UNL     1     -10.293  -5.659   9.451  0.00  0.00    +0.000 HD
ENDBRANCH  57  60
ENDBRANCH  49  57
ENDBRANCH  42  45
ENDBRANCH  39  42
ENDBRANCH  11  39
TORSDOF 6
ENDMDL
MODEL 2
REMARK VINA RESULT:   -10.176      2.696      7.924
REMARK INTER + INTRA:         -14.029
REMARK INTER:                 -13.432
REMARK INTRA:                  -0.598
REMARK UNBOUND:                -0.879
REMARK  Name = 
REMARK  6 active torsions:
REMARK  status: ('A' for Active; 'I' for Inactive)
REMARK    1  A    between atoms: C_1  and  N_2
REMARK    2  A    between atoms: C_12  and  C_13
REMARK    3  A    between atoms: C_13  and  C_14
REMARK    4  A    between atoms: C_14  and  N_15
REMARK    5  A    between atoms: C_19  and  C_20
REMARK    6  A    between atoms: C_20  and  O_21
REMARK                            x       y       z     vdW  Elec       q    Type
REMARK                         _______ _______ _______ _____ _____    ______ ____
ROOT
ATOM      1  N   UNL     1     -11.900  -0.941  15.762  0.00  0.00    +0.000 N 
ATOM      2  C   UNL     1     -12.406  -0.592  14.499  0.00  0.00    +0.000 A 
ATOM      3  C   UNL     1     -11.588  -1.313  13.659  0.00  0.00    +0.000 A 
ATOM      4  C   UNL     1     -11.681  -2.566  14.327  0.00  0.00    +0.000 A 
ATOM      5  C   UNL     1     -11.734  -3.867  13.824  0.00  0.00    +0.000 A 
ATOM      6  C   UNL     1     -11.494  -4.910  14.681  0.00  0.00    +0.000 A 
ATOM      7  C   UNL     1     -10.987  -4.595  15.941  0.00  0.00    +0.000 A 
ATOM      8  C   UNL     1     -10.268  -5.602  16.568  0.00  0.00    +0.000 A 
ATOM      9  N   UNL     1     -10.240  -6.950  16.398  0.00  0.00    +0.000 N 
ATOM     10  C   UNL     1      -9.645  -7.546  17.483  0.00  0.00    +0.000 A 
ATOM     11  C   UNL     1      -9.664  -8.932  17.820  0.00  0.00    +0.000 A 
ATOM     12  C   UNL     1      -9.034  -9.256  19.030  0.00  0.00    +0.000 A 
ATOM     13  C   UNL     1      -8.385  -8.295  19.801  0.00  0.00    +0.000 A 
ATOM     14  C   UNL     1      -8.345  -6.956  19.406  0.00  0.00    +0.000 A 
ATOM     15  C   UNL     1      -9.004  -6.569  18.250  0.00  0.00    +0.000 A 
ATOM     16  C   UNL     1      -9.377  -5.384  17.580  0.00  0.00    +0.000 A 
ATOM     17  C   UNL     1      -9.335  -4.104  18.201  0.00  0.00    +0.000 A 
ATOM     18  C   UNL     1     -10.471  -3.301  17.864  0.00  0.00    +0.000 A 
ATOM     19  C   UNL     1     -11.067  -3.319  16.574  0.00  0.00    +0.000 A 
ATOM     20  C   UNL     1     -11.541  -2.286  15.721  0.00  0.00    +0.000 A 
ATOM     21  C   UNL     1     -11.070  -3.141  19.181  0.00  0.00    +0.000 C 
ATOM     22  O   UNL     1     -12.230  -3.203  19.570  0.00  0.00    +0.000 OA
ATOM     23  N   UNL     1      -9.997  -3.246  20.056  0.00  0.00    +0.000 N 
ATOM     24  C   UNL     1      -8.860  -3.773  19.500  0.00  0.00    +0.000 C 
ATOM     25  O   UNL     1      -7.798  -3.910  20.084  0.00  0.00    +0.000 OA
ATOM     26  H   UNL     1     -13.486  -0.490  14.444  0.00  0.00    +0.000 HD
ATOM     27  H   UNL     1     -10.586  -0.937  13.428  0.00  0.00    +0.000 HD
ATOM     28  H   UNL     1     -11.907  -4.050  12.768  0.00  0.00    +0.000 HD
ATOM     29  H   UNL     1     -11.518  -5.919  14.286  0.00  0.00    +0.000 HD
ATOM     30  H   UNL     1     -10.828  -7.440  15.730  0.00  0.00    +0.000 HD
ATOM     31  H   UNL     1      -9.073 -10.281  19.389  0.00  0.00    +0.000 HD
ATOM     32  H   UNL     1      -7.919  -8.585  20.745  0.00  0.00    +0.000 HD
ATOM     33  H   UNL     1      -7.818  -6.244  20.042  0.00  0.00    +0.000 HD
ATOM     34  H   UNL     1     -10.136  -3.416  21.037  0.00  0.00    +0.000 HD
ENDROOT
BRANCH   1  35
ATOM     35  C   UNL     1     -12.122  -0.029  16.858  0.00  0.00    +0.000 C 
ATOM     36  H   UNL     1     -11.182   0.466  17.097  0.00  0.00    +0.000 HD
ATOM     37  H   UNL     1     -12.560  -0.565  17.699  0.00  0.00    +0.000 HD
ATOM     38  H   UNL     1     -12.835   0.735  16.515  0.00  0.00    +0.000 HD
ENDBRANCH   1  35
BRANCH  11  39
ATOM     39  C   UNL     1     -10.339  -9.949  16.949  0.00  0.00    +0.000 C 
ATOM     40  H   UNL     1     -11.219  -9.494  16.475  0.00  0.00    +0.000 HD
ATOM     41  H   UNL     1     -10.698 -10.768  17.574  0.00  0.00    +0.000 HD
BRANCH  39  42
ATOM     42  C   UNL     1      -9.357 -10.468  15.872  0.00  0.00    +0.000 C 
ATOM     43  H   UNL     1      -8.911  -9.610  15.355  0.00  0.00    +0.000 HD
ATOM     44  H   UNL     1      -9.931 -11.002  15.107  0.00  0.00    +0.000 HD
BRANCH  42  45
ATOM     45  N   UNL     1      -8.332 -11.432  16.324  0.00  0.00    +0.000 NA
ATOM     46  C   UNL     1      -7.704 -12.144  15.196  0.00  0.00    +0.000 C 
ATOM     47  C   UNL     1      -8.660 -13.271  14.862  0.00  0.00    +0.000 C 
ATOM     48  C   UNL     1      -9.095 -13.749  16.235  0.00  0.00    +0.000 C 
ATOM     49  C   UNL     1      -9.018 -12.505  17.123  0.00  0.00    +0.000 C 
ATOM     50  H   UNL     1      -6.747 -12.557  15.537  0.00  0.00    +0.000 HD
ATOM     51  H   UNL     1      -7.478 -11.515  14.332  0.00  0.00    +0.000 HD
ATOM     52  H   UNL     1      -8.186 -14.064  14.278  0.00  0.00    +0.000 HD
ATOM     53  H   UNL     1      -9.520 -12.899  14.294  0.00  0.00    +0.000 HD
ATOM     54  H   UNL     1      -8.416 -14.536  16.585  0.00  0.00    +0.000 HD
ATOM     55  H   UNL     1     -10.109 -14.163  16.201  0.00  0.00    +0.000 HD
ATOM     56  H   UNL     1     -10.036 -12.188  17.392  0.00  0.00    +0.000 HD
BRANCH  49  57
ATOM     57  C   UNL     1      -8.276 -12.771  18.443  0.00  0.00    +0.000 C 
ATOM     58  H   UNL     1      -8.108 -11.850  19.012  0.00  0.00    +0.000 HD
ATOM     59  H   UNL     1      -7.305 -13.239  18.249  0.00  0.00    +0.000 HD
BRANCH  57  60
ATOM     60  O   UNL     1      -9.043 -13.661  19.255  0.00  0.00    +0.000 OA
ATOM     61  H   UNL     1      -8.853 -13.375  20.169  0.00  0.00    +0.000 HD
ENDBRANCH  57  60
ENDBRANCH  49  57
ENDBRANCH  42  45
ENDBRANCH  39  42
ENDBRANCH  11  39
TORSDOF 6
ENDMDL
MODEL 3
REMARK VINA RESULT:    -9.685      3.774      7.817
REMARK INTER + INTRA:         -13.394
REMARK INTER:                 -13.049
REMARK INTRA:                  -0.345
REMARK UNBOUND:                -0.879
REMARK  Name = 
REMARK  6 active torsions:
REMARK  status: ('A' for Active; 'I' for Inactive)
REMARK    1  A    between atoms: C_1  and  N_2
REMARK    2  A    between atoms: C_12  and  C_13
REMARK    3  A    between atoms: C_13  and  C_14
REMARK    4  A    between atoms: C_14  and  N_15
REMARK    5  A    between atoms: C_19  and  C_20
REMARK    6  A    between atoms: C_20  and  O_21
REMARK                            x       y       z     vdW  Elec       q    Type
REMARK                         _______ _______ _______ _____ _____    ______ ____
ROOT
ATOM      1  N   UNL     1     -11.738   1.001  18.656  0.00  0.00    +0.000 N 
ATOM      2  C   UNL     1     -12.445   1.690  17.657  0.00  0.00    +0.000 A 
ATOM      3  C   UNL     1     -11.930   1.132  16.509  0.00  0.00    +0.000 A 
ATOM      4  C   UNL     1     -12.050  -0.234  16.888  0.00  0.00    +0.000 A 
ATOM      5  C   UNL     1     -12.386  -1.363  16.138  0.00  0.00    +0.000 A 
ATOM      6  C   UNL     1     -12.115  -2.601  16.662  0.00  0.00    +0.000 A 
ATOM      7  C   UNL     1     -11.316  -2.648  17.803  0.00  0.00    +0.000 A 
ATOM      8  C   UNL     1     -10.626  -3.834  18.005  0.00  0.00    +0.000 A 
ATOM      9  N   UNL     1     -10.819  -5.096  17.540  0.00  0.00    +0.000 N 
ATOM     10  C   UNL     1     -10.095  -5.988  18.295  0.00  0.00    +0.000 A 
ATOM     11  C   UNL     1     -10.232  -7.408  18.313  0.00  0.00    +0.000 A 
ATOM     12  C   UNL     1      -9.412  -8.071  19.237  0.00  0.00    +0.000 A 
ATOM     13  C   UNL     1      -8.490  -7.386  20.024  0.00  0.00    +0.000 A 
ATOM     14  C   UNL     1      -8.351  -5.998  19.936  0.00  0.00    +0.000 A 
ATOM     15  C   UNL     1      -9.180  -5.286  19.083  0.00  0.00    +0.000 A 
ATOM     16  C   UNL     1      -9.520  -3.946  18.799  0.00  0.00    +0.000 A 
ATOM     17  C   UNL     1      -9.174  -2.866  19.658  0.00  0.00    +0.000 A 
ATOM     18  C   UNL     1     -10.234  -1.913  19.786  0.00  0.00    +0.000 A 
ATOM     19  C   UNL     1     -11.086  -1.564  18.702  0.00  0.00    +0.000 A 
ATOM     20  C   UNL     1     -11.583  -0.318  18.235  0.00  0.00    +0.000 A 
ATOM     21  C   UNL     1     -10.515  -2.033  21.209  0.00  0.00    +0.000 C 
ATOM     22  O   UNL     1     -11.565  -2.091  21.839  0.00  0.00    +0.000 OA
ATOM     23  N   UNL     1      -9.306  -2.438  21.760  0.00  0.00    +0.000 N 
ATOM     24  C   UNL     1      -8.395  -2.905  20.848  0.00  0.00    +0.000 C 
ATOM     25  O   UNL     1      -7.263  -3.269  21.119  0.00  0.00    +0.000 OA
ATOM     26  H   UNL     1     -13.489   1.892  17.884  0.00  0.00    +0.000 HD
ATOM     27  H   UNL     1     -10.957   1.469  16.137  0.00  0.00    +0.000 HD
ATOM     28  H   UNL     1     -12.800  -1.266  15.140  0.00  0.00    +0.000 HD
ATOM     29  H   UNL     1     -12.359  -3.476  16.072  0.00  0.00    +0.000 HD
ATOM     30  H   UNL     1     -11.596  -5.357  16.939  0.00  0.00    +0.000 HD
ATOM     31  H   UNL     1      -9.515  -9.145  19.360  0.00  0.00    +0.000 HD
ATOM     32  H   UNL     1      -7.880  -7.936  20.743  0.00  0.00    +0.000 HD
ATOM     33  H   UNL     1      -7.610  -5.511  20.569  0.00  0.00    +0.000 HD
ATOM     34  H   UNL     1      -9.258  -2.832  22.683  0.00  0.00    +0.000 HD
ENDROOT
BRANCH   1  35
ATOM     35  C   UNL     1     -11.597   1.631  19.946  0.00  0.00    +0.000 C 
ATOM     36  H   UNL     1     -10.915   1.036  20.553  0.00  0.00    +0.000 HD
ATOM     37  H   UNL     1     -12.578   1.766  20.398  0.00  0.00    +0.000 HD
ATOM     38  H   UNL     1     -11.140   2.618  19.786  0.00  0.00    +0.000 HD
ENDBRANCH   1  35
BRANCH  11  39
ATOM     39  C   UNL     1     -11.208  -8.120  17.425  0.00  0.00    +0.000 C 
ATOM     40  H   UNL     1     -12.037  -7.442  17.179  0.00  0.00    +0.000 HD
ATOM     41  H   UNL     1     -11.634  -8.964  17.971  0.00  0.00    +0.000 HD
BRANCH  39  42
ATOM     42  C   UNL     1     -10.505  -8.599  16.132  0.00  0.00    +0.000 C 
ATOM     43  H   UNL     1     -10.443  -7.760  15.430  0.00  0.00    +0.000 HD
ATOM     44  H   UNL     1     -11.146  -9.341  15.643  0.00  0.00    +0.000 HD
BRANCH  42  45
ATOM     45  N   UNL     1      -9.201  -9.273  16.303  0.00  0.00    +0.000 NA
ATOM     46  C   UNL     1      -8.419  -9.292  15.053  0.00  0.00    +0.000 C 
ATOM     47  C   UNL     1      -8.958 -10.470  14.269  0.00  0.00    +0.000 C 
ATOM     48  C   UNL     1      -9.154 -11.519  15.349  0.00  0.00    +0.000 C 
ATOM     49  C   UNL     1      -9.459 -10.720  16.618  0.00  0.00    +0.000 C 
ATOM     50  H   UNL     1      -7.366  -9.465  15.307  0.00  0.00    +0.000 HD
ATOM     51  H   UNL     1      -8.450  -8.359  14.485  0.00  0.00    +0.000 HD
ATOM     52  H   UNL     1      -8.272 -10.804  13.487  0.00  0.00    +0.000 HD
ATOM     53  H   UNL     1      -9.916 -10.221  13.798  0.00  0.00    +0.000 HD
ATOM     54  H   UNL     1      -8.239 -12.113  15.457  0.00  0.00    +0.000 HD
ATOM     55  H   UNL     1      -9.973 -12.199  15.089  0.00  0.00    +0.000 HD
ATOM     56  H   UNL     1     -10.512 -10.869  16.895  0.00  0.00    +0.000 HD
BRANCH  49  57
ATOM     57  C   UNL     1      -8.617 -11.183  17.819  0.00  0.00    +0.000 C 
ATOM     58  H   UNL     1      -8.568 -10.420  18.603  0.00  0.00    +0.000 HD
ATOM     59  H   UNL     1      -7.596 -11.419  17.503  0.00  0.00    +0.000 HD
BRANCH  57  60
ATOM     60  O   UNL     1      -9.191 -12.363  18.382  0.00  0.00    +0.000 OA
ATOM     61  H   UNL     1      -9.686 -12.764  17.643  0.00  0.00    +0.000 HD
ENDBRANCH  57  60
ENDBRANCH  49  57
ENDBRANCH  42  45
ENDBRANCH  39  42
ENDBRANCH  11  39
TORSDOF 6
ENDMDL
MODEL 4
REMARK VINA RESULT:    -9.392      4.538      8.166
REMARK INTER + INTRA:         -13.015
REMARK INTER:                 -13.192
REMARK INTRA:                   0.176
REMARK UNBOUND:                -0.879
REMARK  Name = 
REMARK  6 active torsions:
REMARK  status: ('A' for Active; 'I' for Inactive)
REMARK    1  A    between atoms: C_1  and  N_2
REMARK    2  A    between atoms: C_12  and  C_13
REMARK    3  A    between atoms: C_13  and  C_14
REMARK    4  A    between atoms: C_14  and  N_15
REMARK    5  A    between atoms: C_19  and  C_20
REMARK    6  A    between atoms: C_20  and  O_21
REMARK                            x       y       z     vdW  Elec       q    Type
REMARK                         _______ _______ _______ _____ _____    ______ ____
ROOT
ATOM      1  N   UNL     1     -10.384   1.310  21.651  0.00  0.00    +0.000 N 
ATOM      2  C   UNL     1     -11.036   2.364  20.990  0.00  0.00    +0.000 A 
ATOM      3  C   UNL     1     -10.556   2.233  19.706  0.00  0.00    +0.000 A 
ATOM      4  C   UNL     1     -10.776   0.834  19.561  0.00  0.00    +0.000 A 
ATOM      5  C   UNL     1     -11.187   0.085  18.457  0.00  0.00    +0.000 A 
ATOM      6  C   UNL     1     -11.009  -1.275  18.486  0.00  0.00    +0.000 A 
ATOM      7  C   UNL     1     -10.221  -1.791  19.513  0.00  0.00    +0.000 A 
ATOM      8  C   UNL     1      -9.618  -3.013  19.252  0.00  0.00    +0.000 A 
ATOM      9  N   UNL     1      -9.899  -4.000  18.361  0.00  0.00    +0.000 N 
ATOM     10  C   UNL     1      -9.245  -5.154  18.721  0.00  0.00    +0.000 A 
ATOM     11  C   UNL     1      -9.483  -6.469  18.220  0.00  0.00    +0.000 A 
ATOM     12  C   UNL     1      -8.717  -7.479  18.820  0.00  0.00    +0.000 A 
ATOM     13  C   UNL     1      -7.752  -7.195  19.783  0.00  0.00    +0.000 A 
ATOM     14  C   UNL     1      -7.514  -5.885  20.206  0.00  0.00    +0.000 A 
ATOM     15  C   UNL     1      -8.285  -4.854  19.692  0.00  0.00    +0.000 A 
ATOM     16  C   UNL     1      -8.527  -3.483  19.925  0.00  0.00    +0.000 A 
ATOM     17  C   UNL     1      -8.109  -2.820  21.113  0.00  0.00    +0.000 A 
ATOM     18  C   UNL     1      -9.099  -1.911  21.603  0.00  0.00    +0.000 A 
ATOM     19  C   UNL     1      -9.918  -1.131  20.741  0.00  0.00    +0.000 A 
ATOM     20  C   UNL     1     -10.323   0.231  20.773  0.00  0.00    +0.000 A 
ATOM     21  C   UNL     1      -9.395  -2.524  22.889  0.00  0.00    +0.000 C 
ATOM     22  O   UNL     1     -10.449  -2.738  23.476  0.00  0.00    +0.000 OA
ATOM     23  N   UNL     1      -8.221  -3.185  23.227  0.00  0.00    +0.000 N 
ATOM     24  C   UNL     1      -7.341  -3.346  22.188  0.00  0.00    +0.000 C 
ATOM     25  O   UNL     1      -6.239  -3.861  22.282  0.00  0.00    +0.000 OA
ATOM     26  H   UNL     1     -12.063   2.540  21.297  0.00  0.00    +0.000 HD
ATOM     27  H   UNL     1      -9.560   2.615  19.462  0.00  0.00    +0.000 HD
ATOM     28  H   UNL     1     -11.589   0.569  17.573  0.00  0.00    +0.000 HD
ATOM     29  H   UNL     1     -11.312  -1.854  17.621  0.00  0.00    +0.000 HD
ATOM     30  H   UNL     1     -10.689  -3.969  17.723  0.00  0.00    +0.000 HD
ATOM     31  H   UNL     1      -8.897  -8.514  18.543  0.00  0.00    +0.000 HD
ATOM     32  H   UNL     1      -7.187  -8.011  20.237  0.00  0.00    +0.000 HD
ATOM     33  H   UNL     1      -6.743  -5.716  20.958  0.00  0.00    +0.000 HD
ATOM     34  H   UNL     1      -8.205  -3.892  23.941  0.00  0.00    +0.000 HD
ENDROOT
BRANCH   1  35
ATOM     35  C   UNL     1     -10.206   1.412  23.079  0.00  0.00    +0.000 C 
ATOM     36  H   UNL     1     -11.051   1.955  23.499  0.00  0.00    +0.000 HD
ATOM     37  H   UNL     1      -9.242   1.866  23.298  0.00  0.00    +0.000 HD
ATOM     38  H   UNL     1     -10.219   0.391  23.488  0.00  0.00    +0.000 HD
ENDBRANCH   1  35
BRANCH  11  39
ATOM     39  C   UNL     1     -10.503  -6.737  17.155  0.00  0.00    +0.000 C 
ATOM     40  H   UNL     1     -10.220  -6.202  16.238  0.00  0.00    +0.000 HD
ATOM     41  H   UNL     1     -11.466  -6.335  17.476  0.00  0.00    +0.000 HD
BRANCH  39  42
ATOM     42  C   UNL     1     -10.604  -8.256  16.881  0.00  0.00    +0.000 C 
ATOM     43  H   UNL     1     -11.333  -8.425  16.079  0.00  0.00    +0.000 HD
ATOM     44  H   UNL     1     -11.028  -8.741  17.767  0.00  0.00    +0.000 HD
BRANCH  42  45
ATOM     45  N   UNL     1      -9.332  -8.966  16.628  0.00  0.00    +0.000 NA
ATOM     46  C   UNL     1      -8.877  -8.809  15.234  0.00  0.00    +0.000 C 
ATOM     47  C   UNL     1      -9.648  -9.850  14.449  0.00  0.00    +0.000 C 
ATOM     48  C   UNL     1      -9.629 -11.045  15.384  0.00  0.00    +0.000 C 
ATOM     49  C   UNL     1      -9.578 -10.440  16.789  0.00  0.00    +0.000 C 
ATOM     50  H   UNL     1      -7.804  -9.032  15.193  0.00  0.00    +0.000 HD
ATOM     51  H   UNL     1      -8.998  -7.802  14.829  0.00  0.00    +0.000 HD
ATOM     52  H   UNL     1      -9.188 -10.073  13.483  0.00  0.00    +0.000 HD
ATOM     53  H   UNL     1     -10.677  -9.520  14.268  0.00  0.00    +0.000 HD
ATOM     54  H   UNL     1      -8.746 -11.661  15.179  0.00  0.00    +0.000 HD
ATOM     55  H   UNL     1     -10.519 -11.667  15.241  0.00  0.00    +0.000 HD
ATOM     56  H   UNL     1     -10.539 -10.614  17.293  0.00  0.00    +0.000 HD
BRANCH  49  57
ATOM     57  C   UNL     1      -8.495 -11.088  17.668  0.00  0.00    +0.000 C 
ATOM     58  H   UNL     1      -7.518 -10.614  17.532  0.00  0.00    +0.000 HD
ATOM     59  H   UNL     1      -8.398 -12.153  17.432  0.00  0.00    +0.000 HD
BRANCH  57  60
ATOM     60  O   UNL     1      -8.859 -10.970  19.043  0.00  0.00    +0.000 OA
ATOM     61  H   UNL     1      -9.517 -10.249  19.056  0.00  0.00    +0.000 HD
ENDBRANCH  57  60
ENDBRANCH  49  57
ENDBRANCH  42  45
ENDBRANCH  39  42
ENDBRANCH  11  39
TORSDOF 6
ENDMDL
MODEL 5
REMARK VINA RESULT:    -9.346      3.138      8.820
REMARK INTER + INTRA:         -12.956
REMARK INTER:                 -12.083
REMARK INTRA:                  -0.873
REMARK UNBOUND:                -0.879
REMARK  Name = 
REMARK  6 active torsions:
REMARK  status: ('A' for Active; 'I' for Inactive)
REMARK    1  A    between atoms: C_1  and  N_2
REMARK    2  A    between atoms: C_12  and  C_13
REMARK    3  A    between atoms: C_13  and  C_14
REMARK    4  A    between atoms: C_14  and  N_15
REMARK    5  A    between atoms: C_19  and  C_20
REMARK    6  A    between atoms: C_20  and  O_21
REMARK                            x       y       z     vdW  Elec       q    Type
REMARK                         _______ _______ _______ _____ _____    ______ ____
ROOT
ATOM      1  N   UNL     1     -12.631  -1.376  14.161  0.00  0.00    +0.000 N 
ATOM      2  C   UNL     1     -13.221  -0.105  14.264  0.00  0.00    +0.000 A 
ATOM      3  C   UNL     1     -13.665  -0.104  15.567  0.00  0.00    +0.000 A 
ATOM      4  C   UNL     1     -12.467  -0.570  16.179  0.00  0.00    +0.000 A 
ATOM      5  C   UNL     1     -11.871  -0.227  17.394  0.00  0.00    +0.000 A 
ATOM      6  C   UNL     1     -10.899  -1.051  17.901  0.00  0.00    +0.000 A 
ATOM      7  C   UNL     1     -10.734  -2.292  17.289  0.00  0.00    +0.000 A 
ATOM      8  C   UNL     1     -10.177  -3.284  18.082  0.00  0.00    +0.000 A 
ATOM      9  N   UNL     1      -9.424  -3.238  19.213  0.00  0.00    +0.000 N 
ATOM     10  C   UNL     1      -8.820  -4.454  19.422  0.00  0.00    +0.000 A 
ATOM     11  C   UNL     1      -7.753  -4.739  20.324  0.00  0.00    +0.000 A 
ATOM     12  C   UNL     1      -7.277  -6.058  20.281  0.00  0.00    +0.000 A 
ATOM     13  C   UNL     1      -7.858  -7.022  19.462  0.00  0.00    +0.000 A 
ATOM     14  C   UNL     1      -8.938  -6.712  18.632  0.00  0.00    +0.000 A 
ATOM     15  C   UNL     1      -9.409  -5.409  18.589  0.00  0.00    +0.000 A 
ATOM     16  C   UNL     1     -10.298  -4.620  17.827  0.00  0.00    +0.000 A 
ATOM     17  C   UNL     1     -10.814  -5.041  16.569  0.00  0.00    +0.000 A 
ATOM     18  C   UNL     1     -10.852  -3.974  15.616  0.00  0.00    +0.000 A 
ATOM     19  C   UNL     1     -11.171  -2.636  15.975  0.00  0.00    +0.000 A 
ATOM     20  C   UNL     1     -12.001  -1.652  15.372  0.00  0.00    +0.000 A 
ATOM     21  C   UNL     1      -9.928  -4.491  14.618  0.00  0.00    +0.000 C 
ATOM     22  O   UNL     1      -9.025  -3.962  13.980  0.00  0.00    +0.000 OA
ATOM     23  N   UNL     1     -10.018  -5.870  14.754  0.00  0.00    +0.000 N 
ATOM     24  C   UNL     1     -10.620  -6.287  15.913  0.00  0.00    +0.000 C 
ATOM     25  O   UNL     1     -10.835  -7.452  16.206  0.00  0.00    +0.000 OA
ATOM     26  H   UNL     1     -12.698   0.692  13.743  0.00  0.00    +0.000 HD
ATOM     27  H   UNL     1     -14.595  -0.623  15.819  0.00  0.00    +0.000 HD
ATOM     28  H   UNL     1     -12.204   0.641  17.954  0.00  0.00    +0.000 HD
ATOM     29  H   UNL     1     -10.448  -0.793  18.853  0.00  0.00    +0.000 HD
ATOM     30  H   UNL     1      -9.124  -2.370  19.648  0.00  0.00    +0.000 HD
ATOM     31  H   UNL     1      -6.416  -6.329  20.886  0.00  0.00    +0.000 HD
ATOM     32  H   UNL     1      -7.449  -8.034  19.445  0.00  0.00    +0.000 HD
ATOM     33  H   UNL     1      -9.361  -7.504  18.015  0.00  0.00    +0.000 HD
ATOM     34  H   UNL     1      -9.321  -6.481  14.366  0.00  0.00    +0.000 HD
ENDROOT
BRANCH   1  35
ATOM     35  C   UNL     1     -12.514  -1.967  12.850  0.00  0.00    +0.000 C 
ATOM     36  H   UNL     1     -13.068  -2.905  12.839  0.00  0.00    +0.000 HD
ATOM     37  H   UNL     1     -11.464  -2.076  12.588  0.00  0.00    +0.000 HD
ATOM     38  H   UNL     1     -12.990  -1.280  12.134  0.00  0.00    +0.000 HD
ENDBRANCH   1  35
BRANCH  11  39
ATOM     39  C   UNL     1      -7.173  -3.688  21.222  0.00  0.00    +0.000 C 
ATOM     40  H   UNL     1      -7.200  -2.716  20.709  0.00  0.00    +0.000 HD
ATOM     41  H   UNL     1      -6.124  -3.922  21.411  0.00  0.00    +0.000 HD
BRANCH  39  42
ATOM     42  C   UNL     1      -7.969  -3.617  22.547  0.00  0.00    +0.000 C 
ATOM     43  H   UNL     1      -7.265  -3.487  23.377  0.00  0.00    +0.000 HD
ATOM     44  H   UNL     1      -8.446  -4.589  22.718  0.00  0.00    +0.000 HD
BRANCH  42  45
ATOM     45  N   UNL     1      -9.073  -2.635  22.601  0.00  0.00    +0.000 NA
ATOM     46  C   UNL     1      -8.629  -1.281  22.223  0.00  0.00    +0.000 C 
ATOM     47  C   UNL     1      -8.015  -0.703  23.482  0.00  0.00    +0.000 C 
ATOM     48  C   UNL     1      -8.967  -1.185  24.561  0.00  0.00    +0.000 C 
ATOM     49  C   UNL     1      -9.519  -2.510  24.031  0.00  0.00    +0.000 C 
ATOM     50  H   UNL     1      -9.511  -0.695  21.938  0.00  0.00    +0.000 HD
ATOM     51  H   UNL     1      -7.948  -1.248  21.370  0.00  0.00    +0.000 HD
ATOM     52  H   UNL     1      -7.941   0.387  23.451  0.00  0.00    +0.000 HD
ATOM     53  H   UNL     1      -7.010  -1.108  23.648  0.00  0.00    +0.000 HD
ATOM     54  H   UNL     1      -9.764  -0.447  24.708  0.00  0.00    +0.000 HD
ATOM     55  H   UNL     1      -8.443  -1.315  25.515  0.00  0.00    +0.000 HD
ATOM     56  H   UNL     1      -9.115  -3.337  24.631  0.00  0.00    +0.000 HD
BRANCH  49  57
ATOM     57  C   UNL     1     -11.051  -2.594  24.141  0.00  0.00    +0.000 C 
ATOM     58  H   UNL     1     -11.471  -1.738  24.680  0.00  0.00    +0.000 HD
ATOM     59  H   UNL     1     -11.348  -3.509  24.664  0.00  0.00    +0.000 HD
BRANCH  57  60
ATOM     60  O   UNL     1     -11.626  -2.623  22.835  0.00  0.00    +0.000 OA
ATOM     61  H   UNL     1     -12.248  -3.375  22.864  0.00  0.00    +0.000 HD
ENDBRANCH  57  60
ENDBRANCH  49  57
ENDBRANCH  42  45
ENDBRANCH  39  42
ENDBRANCH  11  39
TORSDOF 6
ENDMDL
MODEL 6
REMARK VINA RESULT:    -8.956      4.018      7.628
REMARK INTER + INTRA:         -12.453
REMARK INTER:                 -11.268
REMARK INTRA:                  -1.184
REMARK UNBOUND:                -0.879
REMARK  Name = 
REMARK  6 active torsions:
REMARK  status: ('A' for Active; 'I' for Inactive)
REMARK    1  A    between atoms: C_1  and  N_2
REMARK    2  A    between atoms: C_12  and  C_13
REMARK    3  A    between atoms: C_13  and  C_14
REMARK    4  A    between atoms: C_14  and  N_15
REMARK    5  A    between atoms: C_19  and  C_20
REMARK    6  A    between atoms: C_20  and  O_21
REMARK                            x       y       z     vdW  Elec       q    Type
REMARK                         _______ _______ _______ _____ _____    ______ ____
ROOT
ATOM      1  N   UNL     1      -9.495   0.849  23.891  0.00  0.00    +0.000 N 
ATOM      2  C   UNL     1     -10.315   1.984  23.780  0.00  0.00    +0.000 A 
ATOM      3  C   UNL     1     -10.263   2.239  22.429  0.00  0.00    +0.000 A 
ATOM      4  C   UNL     1     -10.526   0.917  21.972  0.00  0.00    +0.000 A 
ATOM      5  C   UNL     1     -11.268   0.458  20.882  0.00  0.00    +0.000 A 
ATOM      6  C   UNL     1     -11.097  -0.840  20.475  0.00  0.00    +0.000 A 
ATOM      7  C   UNL     1     -10.030  -1.546  21.028  0.00  0.00    +0.000 A 
ATOM      8  C   UNL     1      -9.548  -2.600  20.266  0.00  0.00    +0.000 A 
ATOM      9  N   UNL     1     -10.100  -3.333  19.264  0.00  0.00    +0.000 N 
ATOM     10  C   UNL     1      -9.373  -4.484  19.072  0.00  0.00    +0.000 A 
ATOM     11  C   UNL     1      -9.765  -5.632  18.321  0.00  0.00    +0.000 A 
ATOM     12  C   UNL     1      -8.855  -6.699  18.354  0.00  0.00    +0.000 A 
ATOM     13  C   UNL     1      -7.636  -6.605  19.018  0.00  0.00    +0.000 A 
ATOM     14  C   UNL     1      -7.268  -5.440  19.697  0.00  0.00    +0.000 A 
ATOM     15  C   UNL     1      -8.156  -4.377  19.750  0.00  0.00    +0.000 A 
ATOM     16  C   UNL     1      -8.304  -3.142  20.418  0.00  0.00    +0.000 A 
ATOM     17  C   UNL     1      -7.529  -2.788  21.559  0.00  0.00    +0.000 A 
ATOM     18  C   UNL     1      -8.310  -2.127  22.559  0.00  0.00    +0.000 A 
ATOM     19  C   UNL     1      -9.353  -1.215  22.239  0.00  0.00    +0.000 A 
ATOM     20  C   UNL     1      -9.719   0.051  22.772  0.00  0.00    +0.000 A 
ATOM     21  C   UNL     1      -8.191  -3.083  23.650  0.00  0.00    +0.000 C 
ATOM     22  O   UNL     1      -9.010  -3.531  24.444  0.00  0.00    +0.000 OA
ATOM     23  N   UNL     1      -6.975  -3.712  23.417  0.00  0.00    +0.000 N 
ATOM     24  C   UNL     1      -6.466  -3.517  22.159  0.00  0.00    +0.000 C 
ATOM     25  O   UNL     1      -5.394  -3.946  21.767  0.00  0.00    +0.000 OA
ATOM     26  H   UNL     1     -11.193   1.986  24.420  0.00  0.00    +0.000 HD
ATOM     27  H   UNL     1      -9.391   2.753  22.011  0.00  0.00    +0.000 HD
ATOM     28  H   UNL     1     -11.923   1.126  20.333  0.00  0.00    +0.000 HD
ATOM     29  H   UNL     1     -11.660  -1.190  19.617  0.00  0.00    +0.000 HD
ATOM     30  H   UNL     1     -11.050  -3.198  18.931  0.00  0.00    +0.000 HD
ATOM     31  H   UNL     1      -9.120  -7.634  17.867  0.00  0.00    +0.000 HD
ATOM     32  H   UNL     1      -6.961  -7.463  19.033  0.00  0.00    +0.000 HD
ATOM     33  H   UNL     1      -6.300  -5.415  20.196  0.00  0.00    +0.000 HD
ATOM     34  H   UNL     1      -6.740  -4.580  23.866  0.00  0.00    +0.000 HD
ENDROOT
BRANCH   1  35
ATOM     35  C   UNL     1      -8.877   0.579  25.167  0.00  0.00    +0.000 C 
ATOM     36  H   UNL     1      -8.926  -0.492  25.359  0.00  0.00    +0.000 HD
ATOM     37  H   UNL     1      -9.348   1.184  25.939  0.00  0.00    +0.000 HD
ATOM     38  H   UNL     1      -7.818   0.864  25.088  0.00  0.00    +0.000 HD
ENDBRANCH   1  35
BRANCH  11  39
ATOM     39  C   UNL     1     -11.069  -5.689  17.584  0.00  0.00    +0.000 C 
ATOM     40  H   UNL     1     -11.765  -4.960  18.021  0.00  0.00    +0.000 HD
ATOM     41  H   UNL     1     -11.511  -6.677  17.722  0.00  0.00    +0.000 HD
BRANCH  39  42
ATOM     42  C   UNL     1     -10.849  -5.388  16.083  0.00  0.00    +0.000 C 
ATOM     43  H   UNL     1     -11.092  -6.285  15.502  0.00  0.00    +0.000 HD
ATOM     44  H   UNL     1      -9.780  -5.213  15.917  0.00  0.00    +0.000 HD
BRANCH  42  45
ATOM     45  N   UNL     1     -11.521  -4.185  15.546  0.00  0.00    +0.000 NA
ATOM     46  C   UNL     1     -11.797  -4.302  14.103  0.00  0.00    +0.000 C 
ATOM     47  C   UNL     1     -10.500  -3.916  13.423  0.00  0.00    +0.000 C 
ATOM     48  C   UNL     1     -10.024  -2.746  14.264  0.00  0.00    +0.000 C 
ATOM     49  C   UNL     1     -10.572  -3.026  15.665  0.00  0.00    +0.000 C 
ATOM     50  H   UNL     1     -12.582  -3.581  13.842  0.00  0.00    +0.000 HD
ATOM     51  H   UNL     1     -12.161  -5.282  13.788  0.00  0.00    +0.000 HD
ATOM     52  H   UNL     1     -10.641  -3.641  12.374  0.00  0.00    +0.000 HD
ATOM     53  H   UNL     1      -9.777  -4.738  13.465  0.00  0.00    +0.000 HD
ATOM     54  H   UNL     1     -10.423  -1.810  13.855  0.00  0.00    +0.000 HD
ATOM     55  H   UNL     1      -8.930  -2.681  14.260  0.00  0.00    +0.000 HD
ATOM     56  H   UNL     1      -9.739  -3.281  16.336  0.00  0.00    +0.000 HD
BRANCH  49  57
ATOM     57  C   UNL     1     -11.270  -1.800  16.278  0.00  0.00    +0.000 C 
ATOM     58  H   UNL     1     -11.895  -1.276  15.548  0.00  0.00    +0.000 HD
ATOM     59  H   UNL     1     -10.530  -1.094  16.669  0.00  0.00    +0.000 HD
BRANCH  57  60
ATOM     60  O   UNL     1     -12.103  -2.214  17.361  0.00  0.00    +0.000 OA
ATOM     61  H   UNL     1     -11.672  -1.838  18.152  0.00  0.00    +0.000 HD
ENDBRANCH  57  60
ENDBRANCH  49  57
ENDBRANCH  42  45
ENDBRANCH  39  42
ENDBRANCH  11  39
TORSDOF 6
ENDMDL
MODEL 7
REMARK VINA RESULT:    -8.858      1.455      2.042
REMARK INTER + INTRA:         -12.326
REMARK INTER:                 -11.593
REMARK INTRA:                  -0.733
REMARK UNBOUND:                -0.879
REMARK  Name = 
REMARK  6 active torsions:
REMARK  status: ('A' for Active; 'I' for Inactive)
REMARK    1  A    between atoms: C_1  and  N_2
REMARK    2  A    between atoms: C_12  and  C_13
REMARK    3  A    between atoms: C_13  and  C_14
REMARK    4  A    between atoms: C_14  and  N_15
REMARK    5  A    between atoms: C_19  and  C_20
REMARK    6  A    between atoms: C_20  and  O_21
REMARK                            x       y       z     vdW  Elec       q    Type
REMARK                         _______ _______ _______ _____ _____    ______ ____
ROOT
ATOM      1  N   UNL     1      -8.853  -9.361  18.804  0.00  0.00    +0.000 N 
ATOM      2  C   UNL     1      -8.638 -10.666  18.331  0.00  0.00    +0.000 A 
ATOM      3  C   UNL     1      -9.574 -10.760  17.327  0.00  0.00    +0.000 A 
ATOM      4  C   UNL     1      -9.281  -9.530  16.674  0.00  0.00    +0.000 A 
ATOM      5  C   UNL     1      -9.267  -9.196  15.318  0.00  0.00    +0.000 A 
ATOM      6  C   UNL     1      -9.271  -7.869  14.971  0.00  0.00    +0.000 A 
ATOM      7  C   UNL     1      -9.521  -6.946  15.986  0.00  0.00    +0.000 A 
ATOM      8  C   UNL     1     -10.042  -5.728  15.575  0.00  0.00    +0.000 A 
ATOM      9  N   UNL     1     -10.036  -5.088  14.376  0.00  0.00    +0.000 N 
ATOM     10  C   UNL     1     -10.362  -3.764  14.552  0.00  0.00    +0.000 A 
ATOM     11  C   UNL     1     -10.203  -2.707  13.608  0.00  0.00    +0.000 A 
ATOM     12  C   UNL     1     -10.551  -1.433  14.080  0.00  0.00    +0.000 A 
ATOM     13  C   UNL     1     -11.074  -1.241  15.356  0.00  0.00    +0.000 A 
ATOM     14  C   UNL     1     -11.264  -2.314  16.231  0.00  0.00    +0.000 A 
ATOM     15  C   UNL     1     -10.879  -3.586  15.838  0.00  0.00    +0.000 A 
ATOM     16  C   UNL     1     -10.714  -4.871  16.398  0.00  0.00    +0.000 A 
ATOM     17  C   UNL     1     -10.692  -5.101  17.802  0.00  0.00    +0.000 A 
ATOM     18  C   UNL     1      -9.693  -6.054  18.180  0.00  0.00    +0.000 A 
ATOM     19  C   UNL     1      -9.377  -7.189  17.384  0.00  0.00    +0.000 A 
ATOM     20  C   UNL     1      -9.143  -8.553  17.707  0.00  0.00    +0.000 A 
ATOM     21  C   UNL     1      -8.843  -5.217  19.013  0.00  0.00    +0.000 C 
ATOM     22  O   UNL     1      -7.626  -5.102  19.094  0.00  0.00    +0.000 OA
ATOM     23  N   UNL     1      -9.705  -4.247  19.509  0.00  0.00    +0.000 N 
ATOM     24  C   UNL     1     -10.904  -4.162  18.849  0.00  0.00    +0.000 C 
ATOM     25  O   UNL     1     -11.814  -3.408  19.152  0.00  0.00    +0.000 OA
ATOM     26  H   UNL     1      -7.599 -10.983  18.300  0.00  0.00    +0.000 HD
ATOM     27  H   UNL     1     -10.620 -10.959  17.581  0.00  0.00    +0.000 HD
ATOM     28  H   UNL     1      -9.307  -9.966  14.555  0.00  0.00    +0.000 HD
ATOM     29  H   UNL     1      -9.277  -7.611  13.918  0.00  0.00    +0.000 HD
ATOM     30  H   UNL     1      -9.574  -5.455  13.549  0.00  0.00    +0.000 HD
ATOM     31  H   UNL     1     -10.386  -0.570  13.442  0.00  0.00    +0.000 HD
ATOM     32  H   UNL     1     -11.319  -0.232  15.692  0.00  0.00    +0.000 HD
ATOM     33  H   UNL     1     -11.683  -2.110  17.216  0.00  0.00    +0.000 HD
ATOM     34  H   UNL     1      -9.357  -3.397  19.917  0.00  0.00    +0.000 HD
ENDROOT
BRANCH   1  35
ATOM     35  C   UNL     1      -8.455  -9.054  20.157  0.00  0.00    +0.000 C 
ATOM     36  H   UNL     1      -7.503  -9.542  20.360  0.00  0.00    +0.000 HD
ATOM     37  H   UNL     1      -9.247  -9.338  20.847  0.00  0.00    +0.000 HD
ATOM     38  H   UNL     1      -8.302  -7.967  20.219  0.00  0.00    +0.000 HD
ENDBRANCH   1  35
BRANCH  11  39
ATOM     39  C   UNL     1      -9.672  -2.952  12.228  0.00  0.00    +0.000 C 
ATOM     40  H   UNL     1      -9.170  -3.930  12.199  0.00  0.00    +0.000 HD
ATOM     41  H   UNL     1      -8.917  -2.197  11.999  0.00  0.00    +0.000 HD
BRANCH  39  42
ATOM     42  C   UNL     1     -10.823  -2.910  11.195  0.00  0.00    +0.000 C 
ATOM     43  H   UNL     1     -11.775  -3.061  11.719  0.00  0.00    +0.000 HD
ATOM     44  H   UNL     1     -10.720  -3.771  10.525  0.00  0.00    +0.000 HD
BRANCH  42  45
ATOM     45  N   UNL     1     -10.866  -1.733  10.303  0.00  0.00    +0.000 NA
ATOM     46  C   UNL     1     -11.035  -2.115   8.889  0.00  0.00    +0.000 C 
ATOM     47  C   UNL     1      -9.643  -2.467   8.407  0.00  0.00    +0.000 C 
ATOM     48  C   UNL     1      -8.790  -1.398   9.064  0.00  0.00    +0.000 C 
ATOM     49  C   UNL     1      -9.526  -1.053  10.361  0.00  0.00    +0.000 C 
ATOM     50  H   UNL     1     -11.410  -1.244   8.338  0.00  0.00    +0.000 HD
ATOM     51  H   UNL     1     -11.754  -2.920   8.719  0.00  0.00    +0.000 HD
ATOM     52  H   UNL     1      -9.559  -2.451   7.317  0.00  0.00    +0.000 HD
ATOM     53  H   UNL     1      -9.348  -3.462   8.757  0.00  0.00    +0.000 HD
ATOM     54  H   UNL     1      -8.711  -0.527   8.402  0.00  0.00    +0.000 HD
ATOM     55  H   UNL     1      -7.777  -1.770   9.258  0.00  0.00    +0.000 HD
ATOM     56  H   UNL     1      -8.947  -1.424  11.217  0.00  0.00    +0.000 HD
BRANCH  49  57
ATOM     57  C   UNL     1      -9.685   0.464  10.560  0.00  0.00    +0.000 C 
ATOM     58  H   UNL     1      -9.593   1.013   9.618  0.00  0.00    +0.000 HD
ATOM     59  H   UNL     1      -8.925   0.840  11.254  0.00  0.00    +0.000 HD
BRANCH  57  60
ATOM     60  O   UNL     1     -10.970   0.744  11.115  0.00  0.00    +0.000 OA
ATOM     61  H   UNL     1     -10.774   1.116  11.997  0.00  0.00    +0.000 HD
ENDBRANCH  57  60
ENDBRANCH  49  57
ENDBRANCH  42  45
ENDBRANCH  39  42
ENDBRANCH  11  39
TORSDOF 6
ENDMDL
MODEL 8
REMARK VINA RESULT:    -8.809      6.684     10.139
REMARK INTER + INTRA:         -12.263
REMARK INTER:                 -11.589
REMARK INTRA:                  -0.673
REMARK UNBOUND:                -0.879
REMARK  Name = 
REMARK  6 active torsions:
REMARK  status: ('A' for Active; 'I' for Inactive)
REMARK    1  A    between atoms: C_1  and  N_2
REMARK    2  A    between atoms: C_12  and  C_13
REMARK    3  A    between atoms: C_13  and  C_14
REMARK    4  A    between atoms: C_14  and  N_15
REMARK    5  A    between atoms: C_19  and  C_20
REMARK    6  A    between atoms: C_20  and  O_21
REMARK                            x       y       z     vdW  Elec       q    Type
REMARK                         _______ _______ _______ _____ _____    ______ ____
ROOT
ATOM      1  N   UNL     1      -8.283  -5.447  18.885  0.00  0.00    +0.000 N 
ATOM      2  C   UNL     1      -8.872  -5.603  17.620  0.00  0.00    +0.000 A 
ATOM      3  C   UNL     1     -10.153  -5.156  17.847  0.00  0.00    +0.000 A 
ATOM      4  C   UNL     1      -9.819  -3.946  18.518  0.00  0.00    +0.000 A 
ATOM      5  C   UNL     1     -10.414  -2.684  18.474  0.00  0.00    +0.000 A 
ATOM      6  C   UNL     1     -10.102  -1.779  19.455  0.00  0.00    +0.000 A 
ATOM      7  C   UNL     1      -9.392  -2.254  20.557  0.00  0.00    +0.000 A 
ATOM      8  C   UNL     1      -9.544  -1.527  21.729  0.00  0.00    +0.000 A 
ATOM      9  N   UNL     1      -9.944  -0.251  21.969  0.00  0.00    +0.000 N 
ATOM     10  C   UNL     1      -9.592   0.117  23.246  0.00  0.00    +0.000 A 
ATOM     11  C   UNL     1      -9.582   1.436  23.788  0.00  0.00    +0.000 A 
ATOM     12  C   UNL     1      -9.105   1.532  25.104  0.00  0.00    +0.000 A 
ATOM     13  C   UNL     1      -8.736   0.406  25.835  0.00  0.00    +0.000 A 
ATOM     14  C   UNL     1      -8.812  -0.875  25.282  0.00  0.00    +0.000 A 
ATOM     15  C   UNL     1      -9.218  -1.022  23.964  0.00  0.00    +0.000 A 
ATOM     16  C   UNL     1      -9.279  -2.024  22.972  0.00  0.00    +0.000 A 
ATOM     17  C   UNL     1      -8.591  -3.265  23.090  0.00  0.00    +0.000 A 
ATOM     18  C   UNL     1      -7.998  -3.674  21.853  0.00  0.00    +0.000 A 
ATOM     19  C   UNL     1      -8.620  -3.453  20.594  0.00  0.00    +0.000 A 
ATOM     20  C   UNL     1      -8.787  -4.277  19.448  0.00  0.00    +0.000 A 
ATOM     21  C   UNL     1      -6.591  -3.662  22.228  0.00  0.00    +0.000 C 
ATOM     22  O   UNL     1      -5.590  -3.252  21.652  0.00  0.00    +0.000 OA
ATOM     23  N   UNL     1      -6.603  -3.906  23.595  0.00  0.00    +0.000 N 
ATOM     24  C   UNL     1      -7.828  -3.745  24.189  0.00  0.00    +0.000 C 
ATOM     25  O   UNL     1      -8.062  -3.951  25.369  0.00  0.00    +0.000 OA
ATOM     26  H   UNL     1      -8.228  -5.367  16.777  0.00  0.00    +0.000 HD
ATOM     27  H   UNL     1     -10.877  -5.818  18.333  0.00  0.00    +0.000 HD
ATOM     28  H   UNL     1     -11.149  -2.440  17.713  0.00  0.00    +0.000 HD
ATOM     29  H   UNL     1     -10.578  -0.805  19.431  0.00  0.00    +0.000 HD
ATOM     30  H   UNL     1     -10.183   0.407  21.233  0.00  0.00    +0.000 HD
ATOM     31  H   UNL     1      -8.998   2.513  25.557  0.00  0.00    +0.000 HD
ATOM     32  H   UNL     1      -8.356   0.523  26.851  0.00  0.00    +0.000 HD
ATOM     33  H   UNL     1      -8.518  -1.723  25.899  0.00  0.00    +0.000 HD
ATOM     34  H   UNL     1      -5.799  -3.716  24.167  0.00  0.00    +0.000 HD
ENDROOT
BRANCH   1  35
ATOM     35  C   UNL     1      -7.137  -6.262  19.207  0.00  0.00    +0.000 C 
ATOM     36  H   UNL     1      -6.677  -5.875  20.116  0.00  0.00    +0.000 HD
ATOM     37  H   UNL     1      -6.460  -6.298  18.356  0.00  0.00    +0.000 HD
ATOM     38  H   UNL     1      -7.501  -7.279  19.414  0.00  0.00    +0.000 HD
ENDBRANCH   1  35
BRANCH  11  39
ATOM     39  C   UNL     1     -10.022   2.624  22.987  0.00  0.00    +0.000 C 
ATOM     40  H   UNL     1     -11.114   2.602  22.874  0.00  0.00    +0.000 HD
ATOM     41  H   UNL     1      -9.593   2.555  21.986  0.00  0.00    +0.000 HD
BRANCH  39  42
ATOM     42  C   UNL     1      -9.581   3.933  23.685  0.00  0.00    +0.000 C 
ATOM     43  H   UNL     1      -8.900   4.478  23.021  0.00  0.00    +0.000 HD
ATOM     44  H   UNL     1      -8.983   3.673  24.566  0.00  0.00    +0.000 HD
BRANCH  42  45
ATOM     45  N   UNL     1     -10.661   4.801  24.200  0.00  0.00    +0.000 NA
ATOM     46  C   UNL     1     -10.197   5.675  25.292  0.00  0.00    +0.000 C 
ATOM     47  C   UNL     1     -10.256   4.814  26.537  0.00  0.00    +0.000 C 
ATOM     48  C   UNL     1     -11.552   4.049  26.344  0.00  0.00    +0.000 C 
ATOM     49  C   UNL     1     -11.709   3.924  24.827  0.00  0.00    +0.000 C 
ATOM     50  H   UNL     1     -10.898   6.513  25.387  0.00  0.00    +0.000 HD
ATOM     51  H   UNL     1      -9.210   6.116  25.132  0.00  0.00    +0.000 HD
ATOM     52  H   UNL     1     -10.257   5.405  27.457  0.00  0.00    +0.000 HD
ATOM     53  H   UNL     1      -9.405   4.125  26.576  0.00  0.00    +0.000 HD
ATOM     54  H   UNL     1     -12.382   4.609  26.789  0.00  0.00    +0.000 HD
ATOM     55  H   UNL     1     -11.503   3.068  26.830  0.00  0.00    +0.000 HD
ATOM     56  H   UNL     1     -11.556   2.877  24.531  0.00  0.00    +0.000 HD
BRANCH  49  57
ATOM     57  C   UNL     1     -13.117   4.316  24.347  0.00  0.00    +0.000 C 
ATOM     58  H   UNL     1     -13.248   4.143  23.274  0.00  0.00    +0.000 HD
ATOM     59  H   UNL     1     -13.310   5.375  24.552  0.00  0.00    +0.000 HD
BRANCH  57  60
ATOM     60  O   UNL     1     -14.094   3.544  25.045  0.00  0.00    +0.000 OA
ATOM     61  H   UNL     1     -13.608   3.175  25.807  0.00  0.00    +0.000 HD
ENDBRANCH  57  60
ENDBRANCH  49  57
ENDBRANCH  42  45
ENDBRANCH  39  42
ENDBRANCH  11  39
TORSDOF 6
ENDMDL
MODEL 9
REMARK VINA RESULT:    -8.777      3.594      8.177
REMARK INTER + INTRA:         -12.221
REMARK INTER:                 -11.776
REMARK INTRA:                  -0.444
REMARK UNBOUND:                -0.879
REMARK  Name = 
REMARK  6 active torsions:
REMARK  status: ('A' for Active; 'I' for Inactive)
REMARK    1  A    between atoms: C_1  and  N_2
REMARK    2  A    between atoms: C_12  and  C_13
REMARK    3  A    between atoms: C_13  and  C_14
REMARK    4  A    between atoms: C_14  and  N_15
REMARK    5  A    between atoms: C_19  and  C_20
REMARK    6  A    between atoms: C_20  and  O_21
REMARK                            x       y       z     vdW  Elec       q    Type
REMARK                         _______ _______ _______ _____ _____    ______ ____
ROOT
ATOM      1  N   UNL     1     -10.995   1.983  20.946  0.00  0.00    +0.000 N 
ATOM      2  C   UNL     1     -11.216   2.146  22.324  0.00  0.00    +0.000 A 
ATOM      3  C   UNL     1     -12.253   1.270  22.550  0.00  0.00    +0.000 A 
ATOM      4  C   UNL     1     -11.704   0.143  21.875  0.00  0.00    +0.000 A 
ATOM      5  C   UNL     1     -11.757  -1.218  22.179  0.00  0.00    +0.000 A 
ATOM      6  C   UNL     1     -11.428  -2.121  21.200  0.00  0.00    +0.000 A 
ATOM      7  C   UNL     1     -11.285  -1.630  19.904  0.00  0.00    +0.000 A 
ATOM      8  C   UNL     1     -11.485  -2.551  18.887  0.00  0.00    +0.000 A 
ATOM      9  N   UNL     1     -11.441  -3.909  18.860  0.00  0.00    +0.000 N 
ATOM     10  C   UNL     1     -11.356  -4.348  17.560  0.00  0.00    +0.000 A 
ATOM     11  C   UNL     1     -11.018  -5.661  17.117  0.00  0.00    +0.000 A 
ATOM     12  C   UNL     1     -10.934  -5.814  15.725  0.00  0.00    +0.000 A 
ATOM     13  C   UNL     1     -11.226  -4.768  14.854  0.00  0.00    +0.000 A 
ATOM     14  C   UNL     1     -11.605  -3.511  15.330  0.00  0.00    +0.000 A 
ATOM     15  C   UNL     1     -11.645  -3.287  16.698  0.00  0.00    +0.000 A 
ATOM     16  C   UNL     1     -11.784  -2.210  17.599  0.00  0.00    +0.000 A 
ATOM     17  C   UNL     1     -11.661  -0.850  17.197  0.00  0.00    +0.000 A 
ATOM     18  C   UNL     1     -10.935  -0.067  18.149  0.00  0.00    +0.000 A 
ATOM     19  C   UNL     1     -11.049  -0.267  19.552  0.00  0.00    +0.000 A 
ATOM     20  C   UNL     1     -11.174   0.635  20.643  0.00  0.00    +0.000 A 
ATOM     21  C   UNL     1      -9.790   0.323  17.340  0.00  0.00    +0.000 C 
ATOM     22  O   UNL     1      -8.589   0.369  17.580  0.00  0.00    +0.000 OA
ATOM     23  N   UNL     1     -10.278   0.316  16.039  0.00  0.00    +0.000 N 
ATOM     24  C   UNL     1     -11.473  -0.336  15.884  0.00  0.00    +0.000 C 
ATOM     25  O   UNL     1     -12.090  -0.420  14.835  0.00  0.00    +0.000 OA
ATOM     26  H   UNL     1     -10.320   2.280  22.924  0.00  0.00    +0.000 HD
ATOM     27  H   UNL     1     -13.275   1.565  22.289  0.00  0.00    +0.000 HD
ATOM     28  H   UNL     1     -12.104  -1.560  23.149  0.00  0.00    +0.000 HD
ATOM     29  H   UNL     1     -11.486  -3.178  21.432  0.00  0.00    +0.000 HD
ATOM     30  H   UNL     1     -11.204  -4.476  19.669  0.00  0.00    +0.000 HD
ATOM     31  H   UNL     1     -10.608  -6.766  15.317  0.00  0.00    +0.000 HD
ATOM     32  H   UNL     1     -11.134  -4.922  13.777  0.00  0.00    +0.000 HD
ATOM     33  H   UNL     1     -11.830  -2.729  14.605  0.00  0.00    +0.000 HD
ATOM     34  H   UNL     1      -9.658   0.310  15.248  0.00  0.00    +0.000 HD
ENDROOT
BRANCH   1  35
ATOM     35  C   UNL     1     -10.369   3.065  20.226  0.00  0.00    +0.000 C 
ATOM     36  H   UNL     1     -11.007   3.945  20.294  0.00  0.00    +0.000 HD
ATOM     37  H   UNL     1     -10.161   2.755  19.204  0.00  0.00    +0.000 HD
ATOM     38  H   UNL     1      -9.418   3.291  20.729  0.00  0.00    +0.000 HD
ENDBRANCH   1  35
BRANCH  11  39
ATOM     39  C   UNL     1     -10.746  -6.776  18.082  0.00  0.00    +0.000 C 
ATOM     40  H   UNL     1     -11.515  -6.773  18.867  0.00  0.00    +0.000 HD
ATOM     41  H   UNL     1      -9.787  -6.596  18.571  0.00  0.00    +0.000 HD
BRANCH  39  42
ATOM     42  C   UNL     1     -10.741  -8.135  17.342  0.00  0.00    +0.000 C 
ATOM     43  H   UNL     1     -11.258  -8.019  16.382  0.00  0.00    +0.000 HD
ATOM     44  H   UNL     1     -11.346  -8.845  17.916  0.00  0.00    +0.000 HD
BRANCH  42  45
ATOM     45  N   UNL     1      -9.426  -8.793  17.183  0.00  0.00    +0.000 NA
ATOM     46  C   UNL     1      -8.892  -8.643  15.817  0.00  0.00    +0.000 C 
ATOM     47  C   UNL     1      -9.568  -9.731  15.009  0.00  0.00    +0.000 C 
ATOM     48  C   UNL     1      -9.556 -10.906  15.969  0.00  0.00    +0.000 C 
ATOM     49  C   UNL     1      -9.619 -10.273  17.361  0.00  0.00    +0.000 C 
ATOM     50  H   UNL     1      -7.810  -8.820  15.847  0.00  0.00    +0.000 HD
ATOM     51  H   UNL     1      -9.030  -7.650  15.383  0.00  0.00    +0.000 HD
ATOM     52  H   UNL     1      -9.039  -9.952  14.078  0.00  0.00    +0.000 HD
ATOM     53  H   UNL     1     -10.597  -9.451  14.758  0.00  0.00    +0.000 HD
ATOM     54  H   UNL     1      -8.637 -11.487  15.832  0.00  0.00    +0.000 HD
ATOM     55  H   UNL     1     -10.409 -11.570  15.785  0.00  0.00    +0.000 HD
ATOM     56  H   UNL     1     -10.601 -10.479  17.809  0.00  0.00    +0.000 HD
BRANCH  49  57
ATOM     57  C   UNL     1      -8.567 -10.856  18.319  0.00  0.00    +0.000 C 
ATOM     58  H   UNL     1      -7.548 -10.588  18.021  0.00  0.00    +0.000 HD
ATOM     59  H   UNL     1      -8.641 -11.949  18.350  0.00  0.00    +0.000 HD
BRANCH  57  60
ATOM     60  O   UNL     1      -8.790 -10.359  19.638  0.00  0.00    +0.000 OA
ATOM     61  H   UNL     1      -9.535  -9.736  19.536  0.00  0.00    +0.000 HD
ENDBRANCH  57  60
ENDBRANCH  49  57
ENDBRANCH  42  45
ENDBRANCH  39  42
ENDBRANCH  11  39
TORSDOF 6
ENDMDL
