REMARK  Name = 
REMARK  8 active torsions:
REMARK  status: ('A' for Active; 'I' for Inactive)
REMARK    1  A    between atoms: C_1  and  C_2
REMARK    2  A    between atoms: C_8  and  C_9
REMARK    3  A    between atoms: C_13  and  O_14
REMARK    4  A    between atoms: O_14  and  C_15
REMARK    5  A    between atoms: C_15  and  C_16
REMARK    6  A    between atoms: C_16  and  N_17
REMARK    7  A    between atoms: C_16  and  C_18
REMARK    8  A    between atoms: C_18  and  C_19
REMARK                            x       y       z     vdW  Elec       q    Type
REMARK                         _______ _______ _______ _____ _____    ______ ____
ROOT
ATOM      1  O   UNL     1       0.836  -0.774   0.409  0.00  0.00    +0.000 OA
ENDROOT
BRANCH   1   6
ATOM      2  C   UNL     1       2.442   1.750   2.463  0.00  0.00    +0.000 A 
ATOM      3  C   UNL     1       2.991   0.925   3.443  0.00  0.00    +0.000 A 
ATOM      4  N   UNL     1       2.853  -0.427   3.486  0.00  0.00    +0.000 NA
ATOM      5  C   UNL     1       2.137  -0.996   2.489  0.00  0.00    +0.000 A 
ATOM      6  C   UNL     1       1.566  -0.285   1.448  0.00  0.00    +0.000 A 
ATOM      7  C   UNL     1       1.735   1.095   1.442  0.00  0.00    +0.000 A 
ATOM      8  H   UNL     1       3.566   1.344   4.266  0.00  0.00    +0.000 HD
ATOM      9  H   UNL     1       2.046  -2.073   2.575  0.00  0.00    +0.000 HD
ATOM     10  H   UNL     1       1.304   1.660   0.618  0.00  0.00    +0.000 HD
BRANCH   2  17
ATOM     11  C   UNL     1       1.080   6.581   1.677  0.00  0.00    +0.000 A 
ATOM     12  N   UNL     1       1.745   7.699   1.996  0.00  0.00    +0.000 NA
ATOM     13  N   UNL     1       2.868   7.249   2.591  0.00  0.00    +0.000 N 
ATOM     14  C   UNL     1       2.949   5.886   2.666  0.00  0.00    +0.000 A 
ATOM     15  C   UNL     1       3.903   5.034   3.193  0.00  0.00    +0.000 A 
ATOM     16  N   UNL     1       3.692   3.695   3.111  0.00  0.00    +0.000 NA
ATOM     17  C   UNL     1       2.572   3.213   2.511  0.00  0.00    +0.000 A 
ATOM     18  C   UNL     1       1.585   4.042   1.980  0.00  0.00    +0.000 A 
ATOM     19  C   UNL     1       1.793   5.420   2.066  0.00  0.00    +0.000 A 
ATOM     20  H   UNL     1       3.535   7.930   2.924  0.00  0.00    +0.000 HD
ATOM     21  H   UNL     1       4.817   5.362   3.674  0.00  0.00    +0.000 HD
ATOM     22  H   UNL     1       0.682   3.654   1.529  0.00  0.00    +0.000 HD
BRANCH  11  23
ATOM     23  C   UNL     1      -0.239   6.633   1.001  0.00  0.00    +0.000 C 
ATOM     24  H   UNL     1      -0.560   7.662   0.813  0.00  0.00    +0.000 HD
ATOM     25  H   UNL     1      -0.999   6.146   1.620  0.00  0.00    +0.000 HD
ATOM     26  H   UNL     1      -0.194   6.108   0.042  0.00  0.00    +0.000 HD
ENDBRANCH  11  23
ENDBRANCH   2  17
ENDBRANCH   1   6
BRANCH   1  27
ATOM     27  C   UNL     1       0.599  -2.186   0.362  0.00  0.00    +0.000 C 
ATOM     28  H   UNL     1       0.043  -2.499   1.254  0.00  0.00    +0.000 HD
ATOM     29  H   UNL     1       1.555  -2.724   0.313  0.00  0.00    +0.000 HD
BRANCH  27  30
ATOM     30  C   UNL     1      -0.238  -2.458  -0.910  0.00  0.00    +0.000 C 
ATOM     31  H   UNL     1      -1.137  -1.831  -0.863  0.00  0.00    +0.000 HD
BRANCH  30  32
ATOM     32  N   UNL     1       0.524  -2.008  -2.098  0.00  0.00    +0.000 NA
ATOM     33  H   UNL     1       1.379  -2.552  -2.189  0.00  0.00    +0.000 HD
ATOM     34  H   UNL     1       0.817  -1.043  -1.936  0.00  0.00    +0.000 HD
ENDBRANCH  30  32
BRANCH  30  35
ATOM     35  C   UNL     1      -0.668  -3.940  -0.996  0.00  0.00    +0.000 C 
ATOM     36  H   UNL     1      -1.250  -4.203  -0.103  0.00  0.00    +0.000 HD
ATOM     37  H   UNL     1       0.223  -4.583  -0.978  0.00  0.00    +0.000 HD
BRANCH  35  38
ATOM     38  C   UNL     1      -1.475  -4.263  -2.224  0.00  0.00    +0.000 A 
ATOM     39  C   UNL     1      -0.946  -4.688  -3.428  0.00  0.00    +0.000 A 
ATOM     40  N   UNL     1      -1.962  -4.820  -4.329  0.00  0.00    +0.000 N 
ATOM     41  C   UNL     1      -3.163  -4.507  -3.741  0.00  0.00    +0.000 A 
ATOM     42  C   UNL     1      -4.449  -4.485  -4.296  0.00  0.00    +0.000 A 
ATOM     43  C   UNL     1      -5.509  -4.117  -3.465  0.00  0.00    +0.000 A 
ATOM     44  C   UNL     1      -5.286  -3.794  -2.129  0.00  0.00    +0.000 A 
ATOM     45  C   UNL     1      -3.989  -3.819  -1.589  0.00  0.00    +0.000 A 
ATOM     46  C   UNL     1      -2.898  -4.172  -2.411  0.00  0.00    +0.000 A 
ATOM     47  H   UNL     1       0.079  -4.864  -3.725  0.00  0.00    +0.000 HD
ATOM     48  H   UNL     1      -1.851  -5.088  -5.297  0.00  0.00    +0.000 HD
ATOM     49  H   UNL     1      -4.622  -4.737  -5.337  0.00  0.00    +0.000 HD
ATOM     50  H   UNL     1      -6.517  -4.080  -3.869  0.00  0.00    +0.000 HD
ATOM     51  H   UNL     1      -6.126  -3.513  -1.499  0.00  0.00    +0.000 HD
ATOM     52  H   UNL     1      -3.837  -3.561  -0.547  0.00  0.00    +0.000 HD
ENDBRANCH  35  38
ENDBRANCH  30  35
ENDBRANCH  27  30
ENDBRANCH   1  27
TORSDOF 8
