REMARK  Name = 
REMARK  5 active torsions:
REMARK  status: ('A' for Active; 'I' for Inactive)
REMARK    1  A    between atoms: C_1  and  C_2
REMARK    2  A    between atoms: C_2  and  N_3
REMARK    3  A    between atoms: N_8  and  C_9
REMARK    4  A    between atoms: N_18  and  C_19
REMARK    5  A    between atoms: C_24  and  N_25
REMARK                            x       y       z     vdW  Elec       q    Type
REMARK                         _______ _______ _______ _____ _____    ______ ____
ROOT
ATOM      1  N   UNL     1       0.241  -1.836  -3.535  0.00  0.00    +0.000 N 
ATOM      2  C   UNL     1      -0.369  -1.126  -4.530  0.00  0.00    +0.000 A 
ATOM      3  N   UNL     1      -0.923  -0.022  -4.075  0.00  0.00    +0.000 NA
ATOM      4  C   UNL     1      -0.654  -0.033  -2.717  0.00  0.00    +0.000 A 
ATOM      5  C   UNL     1      -1.010   0.843  -1.676  0.00  0.00    +0.000 A 
ATOM      6  N   UNL     1      -1.799   1.969  -1.970  0.00  0.00    +0.000 N 
ATOM      7  N   UNL     1      -0.564   0.534  -0.419  0.00  0.00    +0.000 NA
ATOM      8  C   UNL     1       0.146  -0.593  -0.205  0.00  0.00    +0.000 A 
ATOM      9  N   UNL     1       0.476  -0.987   1.076  0.00  0.00    +0.000 N 
ATOM     10  N   UNL     1       0.505  -1.484  -1.144  0.00  0.00    +0.000 NA
ATOM     11  C   UNL     1       0.079  -1.149  -2.366  0.00  0.00    +0.000 A 
ATOM     12  H   UNL     1      -0.382  -1.458  -5.560  0.00  0.00    +0.000 HD
ATOM     13  H   UNL     1      -2.004   2.026  -2.964  0.00  0.00    +0.000 HD
ATOM     14  H   UNL     1       1.065  -1.806   0.997  0.00  0.00    +0.000 HD
ENDROOT
BRANCH   9  15
ATOM     15  C   UNL     1       0.862  -0.019   2.105  0.00  0.00    +0.000 C 
ATOM     16  C   UNL     1       2.367   0.285   2.074  0.00  0.00    +0.000 C 
ATOM     17  C   UNL     1       3.240  -0.927   2.404  0.00  0.00    +0.000 C 
ATOM     18  C   UNL     1       2.837  -1.630   3.697  0.00  0.00    +0.000 C 
ATOM     19  C   UNL     1       1.333  -1.851   3.845  0.00  0.00    +0.000 C 
ATOM     20  C   UNL     1       0.499  -0.604   3.506  0.00  0.00    +0.000 C 
ATOM     21  H   UNL     1       0.308   0.919   1.977  0.00  0.00    +0.000 HD
ATOM     22  H   UNL     1       2.579   1.071   2.811  0.00  0.00    +0.000 HD
ATOM     23  H   UNL     1       2.659   0.687   1.097  0.00  0.00    +0.000 HD
ATOM     24  H   UNL     1       4.286  -0.604   2.489  0.00  0.00    +0.000 HD
ATOM     25  H   UNL     1       3.209  -1.640   1.573  0.00  0.00    +0.000 HD
ATOM     26  H   UNL     1       3.198  -1.047   4.552  0.00  0.00    +0.000 HD
ATOM     27  H   UNL     1       3.348  -2.600   3.750  0.00  0.00    +0.000 HD
ATOM     28  H   UNL     1       1.126  -2.163   4.878  0.00  0.00    +0.000 HD
ATOM     29  H   UNL     1       1.035  -2.695   3.209  0.00  0.00    +0.000 HD
ATOM     30  H   UNL     1       0.698   0.160   4.268  0.00  0.00    +0.000 HD
BRANCH  20  31
ATOM     31  N   UNL     1      -0.928  -0.963   3.584  0.00  0.00    +0.000 NA
ATOM     32  H   UNL     1      -1.134  -1.513   2.743  0.00  0.00    +0.000 HD
ATOM     33  H   UNL     1      -1.482  -0.115   3.451  0.00  0.00    +0.000 HD
ENDBRANCH  20  31
ENDBRANCH   9  15
BRANCH   6  34
ATOM     34  C   UNL     1      -2.573   2.805  -1.153  0.00  0.00    +0.000 A 
ATOM     35  C   UNL     1      -3.148   3.959  -1.713  0.00  0.00    +0.000 A 
ATOM     36  C   UNL     1      -3.862   4.871  -0.928  0.00  0.00    +0.000 A 
ATOM     37  C   UNL     1      -4.006   4.644   0.437  0.00  0.00    +0.000 A 
ATOM     38  C   UNL     1      -3.447   3.503   1.004  0.00  0.00    +0.000 A 
ATOM     39 CL   UNL     1      -3.625   3.210   2.691  0.00  0.00    +0.000 Cl
ATOM     40  C   UNL     1      -2.735   2.595   0.220  0.00  0.00    +0.000 A 
ATOM     41  H   UNL     1      -3.037   4.165  -2.776  0.00  0.00    +0.000 HD
ATOM     42  H   UNL     1      -4.295   5.760  -1.381  0.00  0.00    +0.000 HD
ATOM     43  H   UNL     1      -4.549   5.356   1.052  0.00  0.00    +0.000 HD
ATOM     44  H   UNL     1      -2.322   1.710   0.692  0.00  0.00    +0.000 HD
ENDBRANCH   6  34
BRANCH   1  45
ATOM     45  C   UNL     1       0.905  -3.115  -3.682  0.00  0.00    +0.000 C 
ATOM     46  H   UNL     1       0.750  -3.688  -2.762  0.00  0.00    +0.000 HD
ATOM     47  H   UNL     1       0.408  -3.659  -4.494  0.00  0.00    +0.000 HD
BRANCH  45  48
ATOM     48  C   UNL     1       2.386  -2.963  -3.975  0.00  0.00    +0.000 C 
ATOM     49  H   UNL     1       2.856  -3.947  -4.080  0.00  0.00    +0.000 HD
ATOM     50  H   UNL     1       2.897  -2.426  -3.169  0.00  0.00    +0.000 HD
ATOM     51  H   UNL     1       2.551  -2.407  -4.903  0.00  0.00    +0.000 HD
ENDBRANCH  45  48
ENDBRANCH   1  45
TORSDOF 5
