MODEL 1
REMARK VINA RESULT:    -7.243      0.000      0.000
REMARK INTER + INTRA:         -11.118
REMARK INTER:                 -10.208
REMARK INTRA:                  -0.911
REMARK UNBOUND:                -0.911
REMARK  Name = 
REMARK  9 active torsions:
REMARK  status: ('A' for Active; 'I' for Inactive)
REMARK    1  A    between atoms: C_1  and  O_2
REMARK    2  A    between atoms: O_2  and  C_3
REMARK    3  A    between atoms: C_4  and  N_5
REMARK    4  A    between atoms: N_5  and  C_6
REMARK    5  A    between atoms: C_7  and  C_9
REMARK    6  A    between atoms: C_9  and  C_10
REMARK    7  A    between atoms: C_10  and  C_11
REMARK    8  A    between atoms: C_11  and  O_13
REMARK    9  A    between atoms: C_17  and  C_18
REMARK                            x       y       z     vdW  Elec       q    Type
REMARK                         _______ _______ _______ _____ _____    ______ ____
ROOT
ATOM      1  C   UNL     1     -13.285   3.206  17.133  0.00  0.00    +0.000 C 
ATOM      2  C   UNL     1     -14.121   3.075  15.807  0.00  0.00    +0.000 C 
ATOM      3  C   UNL     1     -13.248   2.853  14.572  0.00  0.00    +0.000 C 
ATOM      4  C   UNL     1     -12.163   1.827  14.797  0.00  0.00    +0.000 C 
ATOM      5  O   UNL     1     -11.337   2.260  15.871  0.00  0.00    +0.000 OA
ATOM      6  C   UNL     1     -11.964   2.339  17.177  0.00  0.00    +0.000 C 
ATOM      7  N   UNL     1     -12.033   0.993  17.743  0.00  0.00    +0.000 N 
ATOM      8  C   UNL     1     -11.850   0.545  19.084  0.00  0.00    +0.000 A 
ATOM      9  C   UNL     1     -12.251   1.076  20.323  0.00  0.00    +0.000 A 
ATOM     10  C   UNL     1     -11.695   0.536  21.494  0.00  0.00    +0.000 A 
ATOM     11  C   UNL     1     -10.709  -0.444  21.444  0.00  0.00    +0.000 A 
ATOM     12  C   UNL     1     -10.455  -1.106  20.251  0.00  0.00    +0.000 A 
ATOM     13  C   UNL     1     -11.152  -0.718  19.090  0.00  0.00    +0.000 A 
ATOM     14  C   UNL     1     -11.336  -1.280  17.832  0.00  0.00    +0.000 A 
ATOM     15  C   UNL     1     -11.332  -2.646  17.522  0.00  0.00    +0.000 A 
ATOM     16  C   UNL     1     -11.504  -2.935  16.146  0.00  0.00    +0.000 A 
ATOM     17  C   UNL     1     -11.784  -1.769  15.381  0.00  0.00    +0.000 A 
ATOM     18  C   UNL     1     -12.277  -1.742  14.061  0.00  0.00    +0.000 A 
ATOM     19  C   UNL     1     -12.314  -2.667  12.998  0.00  0.00    +0.000 A 
ATOM     20  C   UNL     1     -13.037  -2.380  11.840  0.00  0.00    +0.000 A 
ATOM     21  C   UNL     1     -13.771  -1.206  11.742  0.00  0.00    +0.000 A 
ATOM     22  C   UNL     1     -13.699  -0.221  12.734  0.00  0.00    +0.000 A 
ATOM     23  C   UNL     1     -12.889  -0.444  13.860  0.00  0.00    +0.000 A 
ATOM     24  N   UNL     1     -12.551   0.433  14.917  0.00  0.00    +0.000 N 
ATOM     25  C   UNL     1     -11.998  -0.451  15.772  0.00  0.00    +0.000 A 
ATOM     26  C   UNL     1     -11.759  -0.170  17.104  0.00  0.00    +0.000 A 
ATOM     27  C   UNL     1     -11.656  -4.332  15.970  0.00  0.00    +0.000 C 
ATOM     28  O   UNL     1     -11.750  -5.066  14.997  0.00  0.00    +0.000 OA
ATOM     29  N   UNL     1     -11.785  -4.808  17.279  0.00  0.00    +0.000 N 
ATOM     30  C   UNL     1     -11.615  -3.818  18.340  0.00  0.00    +0.000 C 
ATOM     31  H   UNL     1     -12.930   4.249  17.093  0.00  0.00    +0.000 HD
ATOM     32  H   UNL     1     -14.539   4.084  15.663  0.00  0.00    +0.000 HD
ATOM     33  H   UNL     1     -12.742   3.805  14.356  0.00  0.00    +0.000 HD
ATOM     34  H   UNL     1     -13.821   2.610  13.680  0.00  0.00    +0.000 HD
ATOM     35  H   UNL     1     -11.510   1.847  13.919  0.00  0.00    +0.000 HD
ATOM     36  H   UNL     1     -13.003   1.856  20.380  0.00  0.00    +0.000 HD
ATOM     37  H   UNL     1     -12.017   0.908  22.464  0.00  0.00    +0.000 HD
ATOM     38  H   UNL     1     -10.170  -0.735  22.341  0.00  0.00    +0.000 HD
ATOM     39  H   UNL     1      -9.713  -1.898  20.199  0.00  0.00    +0.000 HD
ATOM     40  H   UNL     1     -11.768  -3.604  13.066  0.00  0.00    +0.000 HD
ATOM     41  H   UNL     1     -13.043  -3.101  11.028  0.00  0.00    +0.000 HD
ATOM     42  H   UNL     1     -14.398  -1.044  10.870  0.00  0.00    +0.000 HD
ATOM     43  H   UNL     1     -14.294   0.680  12.635  0.00  0.00    +0.000 HD
ATOM     44  H   UNL     1     -12.352  -5.636  17.393  0.00  0.00    +0.000 HD
ATOM     45  H   UNL     1     -10.806  -4.111  19.006  0.00  0.00    +0.000 HD
ATOM     46  H   UNL     1     -12.568  -3.720  18.871  0.00  0.00    +0.000 HD
ENDROOT
BRANCH   6  47
ATOM     47  C   UNL     1     -10.902   3.143  17.975  0.00  0.00    +0.000 C 
ATOM     48  H   UNL     1     -11.167   4.208  18.019  0.00  0.00    +0.000 HD
ATOM     49  H   UNL     1     -10.866   2.807  19.018  0.00  0.00    +0.000 HD
ATOM     50  H   UNL     1      -9.896   3.052  17.555  0.00  0.00    +0.000 HD
ENDBRANCH   6  47
BRANCH   2  51
ATOM     51  N   UNL     1     -15.341   2.253  15.788  0.00  0.00    +0.000 N 
ATOM     52  C   UNL     1     -16.487   2.695  15.162  0.00  0.00    +0.000 C 
ATOM     53  O   UNL     1     -16.809   3.873  15.092  0.00  0.00    +0.000 OA
BRANCH  51  54
ATOM     54  C   UNL     1     -15.286   0.922  16.386  0.00  0.00    +0.000 C 
ATOM     55  H   UNL     1     -14.270   0.524  16.307  0.00  0.00    +0.000 HD
ATOM     56  H   UNL     1     -15.954   0.229  15.870  0.00  0.00    +0.000 HD
ATOM     57  H   UNL     1     -15.584   0.986  17.435  0.00  0.00    +0.000 HD
ENDBRANCH  51  54
BRANCH  52  58
ATOM     58  C   UNL     1     -17.318   1.660  14.458  0.00  0.00    +0.000 C 
ATOM     59  H   UNL     1     -17.365   1.948  13.399  0.00  0.00    +0.000 HD
ATOM     60  H   UNL     1     -16.857   0.668  14.464  0.00  0.00    +0.000 HD
BRANCH  58  61
ATOM     61  C   UNL     1     -18.691   1.657  15.083  0.00  0.00    +0.000 C 
ATOM     62  H   UNL     1     -18.721   2.272  15.988  0.00  0.00    +0.000 HD
ATOM     63  H   UNL     1     -19.437   2.074  14.395  0.00  0.00    +0.000 HD
BRANCH  61  64
ATOM     64  C   UNL     1     -19.041   0.251  15.429  0.00  0.00    +0.000 C 
ATOM     65  O   UNL     1     -18.947  -0.253  16.536  0.00  0.00    +0.000 OA
BRANCH  64  66
ATOM     66  O   UNL     1     -19.398  -0.476  14.358  0.00  0.00    +0.000 OA
ATOM     67  H   UNL     1     -18.549  -0.724  13.939  0.00  0.00    +0.000 HD
ENDBRANCH  64  66
ENDBRANCH  61  64
ENDBRANCH  58  61
ENDBRANCH  52  58
ENDBRANCH   2  51
BRANCH   1  68
ATOM     68  O   UNL     1     -14.017   3.112  18.364  0.00  0.00    +0.000 OA
BRANCH  68  69
ATOM     69  C   UNL     1     -14.109   4.270  19.171  0.00  0.00    +0.000 C 
ATOM     70  H   UNL     1     -14.916   4.913  18.816  0.00  0.00    +0.000 HD
ATOM     71  H   UNL     1     -14.248   4.052  20.232  0.00  0.00    +0.000 HD
ATOM     72  H   UNL     1     -13.165   4.815  19.066  0.00  0.00    +0.000 HD
ENDBRANCH  68  69
ENDBRANCH   1  68
TORSDOF 9
ENDMDL
MODEL 2
REMARK VINA RESULT:    -7.203      4.188      8.152
REMARK INTER + INTRA:         -11.061
REMARK INTER:                 -10.286
REMARK INTRA:                  -0.775
REMARK UNBOUND:                -0.911
REMARK  Name = 
REMARK  9 active torsions:
REMARK  status: ('A' for Active; 'I' for Inactive)
REMARK    1  A    between atoms: C_1  and  O_2
REMARK    2  A    between atoms: O_2  and  C_3
REMARK    3  A    between atoms: C_4  and  N_5
REMARK    4  A    between atoms: N_5  and  C_6
REMARK    5  A    between atoms: C_7  and  C_9
REMARK    6  A    between atoms: C_9  and  C_10
REMARK    7  A    between atoms: C_10  and  C_11
REMARK    8  A    between atoms: C_11  and  O_13
REMARK    9  A    between atoms: C_17  and  C_18
REMARK                            x       y       z     vdW  Elec       q    Type
REMARK                         _______ _______ _______ _____ _____    ______ ____
ROOT
ATOM      1  C   UNL     1     -10.590   0.325  23.295  0.00  0.00    +0.000 C 
ATOM      2  C   UNL     1     -10.387  -1.216  23.054  0.00  0.00    +0.000 C 
ATOM      3  C   UNL     1     -11.605  -1.885  22.421  0.00  0.00    +0.000 C 
ATOM      4  C   UNL     1     -12.186  -1.088  21.277  0.00  0.00    +0.000 C 
ATOM      5  O   UNL     1     -12.566   0.195  21.759  0.00  0.00    +0.000 OA
ATOM      6  C   UNL     1     -11.493   1.055  22.223  0.00  0.00    +0.000 C 
ATOM      7  N   UNL     1     -10.844   1.658  21.061  0.00  0.00    +0.000 N 
ATOM      8  C   UNL     1     -10.322   2.972  20.872  0.00  0.00    +0.000 A 
ATOM      9  C   UNL     1      -9.593   3.830  21.714  0.00  0.00    +0.000 A 
ATOM     10  C   UNL     1      -9.443   5.174  21.333  0.00  0.00    +0.000 A 
ATOM     11  C   UNL     1     -10.065   5.679  20.195  0.00  0.00    +0.000 A 
ATOM     12  C   UNL     1     -10.614   4.806  19.265  0.00  0.00    +0.000 A 
ATOM     13  C   UNL     1     -10.596   3.423  19.530  0.00  0.00    +0.000 A 
ATOM     14  C   UNL     1     -10.818   2.283  18.765  0.00  0.00    +0.000 A 
ATOM     15  C   UNL     1     -10.594   2.148  17.389  0.00  0.00    +0.000 A 
ATOM     16  C   UNL     1     -10.947   0.882  16.860  0.00  0.00    +0.000 A 
ATOM     17  C   UNL     1     -11.330  -0.039  17.874  0.00  0.00    +0.000 A 
ATOM     18  C   UNL     1     -11.462  -1.433  17.720  0.00  0.00    +0.000 A 
ATOM     19  C   UNL     1     -11.635  -2.297  16.620  0.00  0.00    +0.000 A 
ATOM     20  C   UNL     1     -11.568  -3.679  16.793  0.00  0.00    +0.000 A 
ATOM     21  C   UNL     1     -11.278  -4.219  18.039  0.00  0.00    +0.000 A 
ATOM     22  C   UNL     1     -11.182  -3.408  19.175  0.00  0.00    +0.000 A 
ATOM     23  C   UNL     1     -11.355  -2.020  19.041  0.00  0.00    +0.000 A 
ATOM     24  N   UNL     1     -11.434  -1.020  20.037  0.00  0.00    +0.000 N 
ATOM     25  C   UNL     1     -11.324   0.077  19.260  0.00  0.00    +0.000 A 
ATOM     26  C   UNL     1     -11.046   1.336  19.760  0.00  0.00    +0.000 A 
ATOM     27  C   UNL     1     -10.523   0.796  15.511  0.00  0.00    +0.000 C 
ATOM     28  O   UNL     1     -10.659  -0.033  14.623  0.00  0.00    +0.000 OA
ATOM     29  N   UNL     1      -9.737   1.943  15.348  0.00  0.00    +0.000 N 
ATOM     30  C   UNL     1      -9.699   2.859  16.486  0.00  0.00    +0.000 C 
ATOM     31  H   UNL     1     -11.189   0.348  24.221  0.00  0.00    +0.000 HD
ATOM     32  H   UNL     1     -10.348  -1.635  24.072  0.00  0.00    +0.000 HD
ATOM     33  H   UNL     1     -12.385  -1.941  23.194  0.00  0.00    +0.000 HD
ATOM     34  H   UNL     1     -11.418  -2.912  22.111  0.00  0.00    +0.000 HD
ATOM     35  H   UNL     1     -13.127  -1.568  20.991  0.00  0.00    +0.000 HD
ATOM     36  H   UNL     1      -9.119   3.459  22.617  0.00  0.00    +0.000 HD
ATOM     37  H   UNL     1      -8.854   5.846  21.951  0.00  0.00    +0.000 HD
ATOM     38  H   UNL     1     -10.081   6.746  19.999  0.00  0.00    +0.000 HD
ATOM     39  H   UNL     1     -11.073   5.179  18.353  0.00  0.00    +0.000 HD
ATOM     40  H   UNL     1     -11.836  -1.894  15.631  0.00  0.00    +0.000 HD
ATOM     41  H   UNL     1     -11.715  -4.328  15.934  0.00  0.00    +0.000 HD
ATOM     42  H   UNL     1     -11.142  -5.293  18.133  0.00  0.00    +0.000 HD
ATOM     43  H   UNL     1     -10.942  -3.858  20.133  0.00  0.00    +0.000 HD
ATOM     44  H   UNL     1      -8.980   1.867  14.684  0.00  0.00    +0.000 HD
ATOM     45  H   UNL     1     -10.046   3.846  16.189  0.00  0.00    +0.000 HD
ATOM     46  H   UNL     1      -8.673   2.882  16.871  0.00  0.00    +0.000 HD
ENDROOT
BRANCH   6  47
ATOM     47  C   UNL     1     -12.292   2.165  22.959  0.00  0.00    +0.000 C 
ATOM     48  H   UNL     1     -12.233   3.117  22.415  0.00  0.00    +0.000 HD
ATOM     49  H   UNL     1     -13.359   1.913  22.994  0.00  0.00    +0.000 HD
ATOM     50  H   UNL     1     -11.948   2.328  23.984  0.00  0.00    +0.000 HD
ENDBRANCH   6  47
BRANCH   2  51
ATOM     51  N   UNL     1      -9.120  -1.708  22.492  0.00  0.00    +0.000 N 
ATOM     52  C   UNL     1      -8.480  -2.804  23.031  0.00  0.00    +0.000 C 
ATOM     53  O   UNL     1      -8.519  -3.093  24.218  0.00  0.00    +0.000 OA
BRANCH  51  54
ATOM     54  C   UNL     1      -8.591  -1.051  21.298  0.00  0.00    +0.000 C 
ATOM     55  H   UNL     1      -9.420  -0.683  20.685  0.00  0.00    +0.000 HD
ATOM     56  H   UNL     1      -8.011  -1.746  20.690  0.00  0.00    +0.000 HD
ATOM     57  H   UNL     1      -7.950  -0.221  21.599  0.00  0.00    +0.000 HD
ENDBRANCH  51  54
BRANCH  52  58
ATOM     58  C   UNL     1      -7.782  -3.723  22.070  0.00  0.00    +0.000 C 
ATOM     59  H   UNL     1      -8.193  -4.729  22.227  0.00  0.00    +0.000 HD
ATOM     60  H   UNL     1      -7.995  -3.487  21.023  0.00  0.00    +0.000 HD
BRANCH  58  61
ATOM     61  C   UNL     1      -6.304  -3.686  22.374  0.00  0.00    +0.000 C 
ATOM     62  H   UNL     1      -5.983  -2.685  22.681  0.00  0.00    +0.000 HD
ATOM     63  H   UNL     1      -6.055  -4.363  23.200  0.00  0.00    +0.000 HD
BRANCH  61  64
ATOM     64  C   UNL     1      -5.566  -4.084  21.143  0.00  0.00    +0.000 C 
ATOM     65  O   UNL     1      -5.938  -4.910  20.326  0.00  0.00    +0.000 OA
BRANCH  64  66
ATOM     66  O   UNL     1      -4.359  -3.503  21.048  0.00  0.00    +0.000 OA
ATOM     67  H   UNL     1      -4.193  -3.443  20.086  0.00  0.00    +0.000 HD
ENDBRANCH  64  66
ENDBRANCH  61  64
ENDBRANCH  58  61
ENDBRANCH  52  58
ENDBRANCH   2  51
BRANCH   1  68
ATOM     68  O   UNL     1      -9.413   1.088  23.598  0.00  0.00    +0.000 OA
BRANCH  68  69
ATOM     69  C   UNL     1      -8.853   0.959  24.891  0.00  0.00    +0.000 C 
ATOM     70  H   UNL     1      -8.581  -0.080  25.081  0.00  0.00    +0.000 HD
ATOM     71  H   UNL     1      -7.990   1.606  25.058  0.00  0.00    +0.000 HD
ATOM     72  H   UNL     1      -9.627   1.248  25.610  0.00  0.00    +0.000 HD
ENDBRANCH  68  69
ENDBRANCH   1  68
TORSDOF 9
ENDMDL
MODEL 3
REMARK VINA RESULT:    -6.952      3.759      8.094
REMARK INTER + INTRA:         -10.708
REMARK INTER:                  -9.607
REMARK INTRA:                  -1.102
REMARK UNBOUND:                -0.911
REMARK  Name = 
REMARK  9 active torsions:
REMARK  status: ('A' for Active; 'I' for Inactive)
REMARK    1  A    between atoms: C_1  and  O_2
REMARK    2  A    between atoms: O_2  and  C_3
REMARK    3  A    between atoms: C_4  and  N_5
REMARK    4  A    between atoms: N_5  and  C_6
REMARK    5  A    between atoms: C_7  and  C_9
REMARK    6  A    between atoms: C_9  and  C_10
REMARK    7  A    between atoms: C_10  and  C_11
REMARK    8  A    between atoms: C_11  and  O_13
REMARK    9  A    between atoms: C_17  and  C_18
REMARK                            x       y       z     vdW  Elec       q    Type
REMARK                         _______ _______ _______ _____ _____    ______ ____
ROOT
ATOM      1  C   UNL     1     -11.881  -2.146  17.028  0.00  0.00    +0.000 C 
ATOM      2  C   UNL     1     -11.710  -0.785  17.797  0.00  0.00    +0.000 C 
ATOM      3  C   UNL     1     -12.058  -0.892  19.281  0.00  0.00    +0.000 C 
ATOM      4  C   UNL     1     -11.473  -2.121  19.935  0.00  0.00    +0.000 C 
ATOM      5  O   UNL     1     -11.965  -3.275  19.264  0.00  0.00    +0.000 OA
ATOM      6  C   UNL     1     -11.562  -3.439  17.879  0.00  0.00    +0.000 C 
ATOM      7  N   UNL     1     -10.202  -3.973  17.850  0.00  0.00    +0.000 N 
ATOM      8  C   UNL     1      -9.605  -4.933  16.981  0.00  0.00    +0.000 A 
ATOM      9  C   UNL     1      -9.709  -5.149  15.595  0.00  0.00    +0.000 A 
ATOM     10  C   UNL     1      -9.197  -6.343  15.063  0.00  0.00    +0.000 A 
ATOM     11  C   UNL     1      -8.671  -7.336  15.883  0.00  0.00    +0.000 A 
ATOM     12  C   UNL     1      -8.386  -7.052  17.212  0.00  0.00    +0.000 A 
ATOM     13  C   UNL     1      -8.706  -5.780  17.726  0.00  0.00    +0.000 A 
ATOM     14  C   UNL     1      -8.365  -5.082  18.878  0.00  0.00    +0.000 A 
ATOM     15  C   UNL     1      -7.179  -5.215  19.612  0.00  0.00    +0.000 A 
ATOM     16  C   UNL     1      -7.114  -4.406  20.772  0.00  0.00    +0.000 A 
ATOM     17  C   UNL     1      -8.221  -3.518  20.873  0.00  0.00    +0.000 A 
ATOM     18  C   UNL     1      -8.315  -2.407  21.734  0.00  0.00    +0.000 A 
ATOM     19  C   UNL     1      -7.660  -2.011  22.918  0.00  0.00    +0.000 A 
ATOM     20  C   UNL     1      -7.878  -0.741  23.452  0.00  0.00    +0.000 A 
ATOM     21  C   UNL     1      -8.702   0.165  22.798  0.00  0.00    +0.000 A 
ATOM     22  C   UNL     1      -9.438  -0.209  21.669  0.00  0.00    +0.000 A 
ATOM     23  C   UNL     1      -9.316  -1.519  21.176  0.00  0.00    +0.000 A 
ATOM     24  N   UNL     1     -10.039  -2.168  20.149  0.00  0.00    +0.000 N 
ATOM     25  C   UNL     1      -9.271  -3.266  19.996  0.00  0.00    +0.000 A 
ATOM     26  C   UNL     1      -9.362  -4.110  18.905  0.00  0.00    +0.000 A 
ATOM     27  C   UNL     1      -5.817  -4.488  21.336  0.00  0.00    +0.000 C 
ATOM     28  O   UNL     1      -5.298  -4.053  22.354  0.00  0.00    +0.000 OA
ATOM     29  N   UNL     1      -5.088  -5.182  20.364  0.00  0.00    +0.000 N 
ATOM     30  C   UNL     1      -5.853  -5.672  19.219  0.00  0.00    +0.000 C 
ATOM     31  H   UNL     1     -12.969  -2.191  16.855  0.00  0.00    +0.000 HD
ATOM     32  H   UNL     1     -12.506  -0.149  17.378  0.00  0.00    +0.000 HD
ATOM     33  H   UNL     1     -13.151  -0.985  19.352  0.00  0.00    +0.000 HD
ATOM     34  H   UNL     1     -11.797   0.000  19.848  0.00  0.00    +0.000 HD
ATOM     35  H   UNL     1     -11.895  -2.185  20.943  0.00  0.00    +0.000 HD
ATOM     36  H   UNL     1     -10.138  -4.395  14.942  0.00  0.00    +0.000 HD
ATOM     37  H   UNL     1      -9.236  -6.515  13.990  0.00  0.00    +0.000 HD
ATOM     38  H   UNL     1      -8.432  -8.317  15.484  0.00  0.00    +0.000 HD
ATOM     39  H   UNL     1      -7.942  -7.803  17.861  0.00  0.00    +0.000 HD
ATOM     40  H   UNL     1      -6.990  -2.696  23.431  0.00  0.00    +0.000 HD
ATOM     41  H   UNL     1      -7.373  -0.460  24.371  0.00  0.00    +0.000 HD
ATOM     42  H   UNL     1      -8.787   1.177  23.183  0.00  0.00    +0.000 HD
ATOM     43  H   UNL     1     -10.063   0.526  21.172  0.00  0.00    +0.000 HD
ATOM     44  H   UNL     1      -4.105  -4.957  20.307  0.00  0.00    +0.000 HD
ATOM     45  H   UNL     1      -5.752  -6.752  19.131  0.00  0.00    +0.000 HD
ATOM     46  H   UNL     1      -5.495  -5.152  18.323  0.00  0.00    +0.000 HD
ENDROOT
BRANCH   6  47
ATOM     47  C   UNL     1     -12.531  -4.560  17.413  0.00  0.00    +0.000 C 
ATOM     48  H   UNL     1     -12.225  -4.961  16.437  0.00  0.00    +0.000 HD
ATOM     49  H   UNL     1     -12.497  -5.411  18.103  0.00  0.00    +0.000 HD
ATOM     50  H   UNL     1     -13.568  -4.222  17.341  0.00  0.00    +0.000 HD
ENDBRANCH   6  47
BRANCH   2  51
ATOM     51  N   UNL     1     -10.520   0.047  17.557  0.00  0.00    +0.000 N 
ATOM     52  C   UNL     1     -10.582   1.421  17.652  0.00  0.00    +0.000 C 
ATOM     53  O   UNL     1     -11.577   2.074  17.375  0.00  0.00    +0.000 OA
BRANCH  51  54
ATOM     54  C   UNL     1      -9.251  -0.624  17.287  0.00  0.00    +0.000 C 
ATOM     55  H   UNL     1      -8.422   0.057  17.508  0.00  0.00    +0.000 HD
ATOM     56  H   UNL     1      -9.172  -0.912  16.238  0.00  0.00    +0.000 HD
ATOM     57  H   UNL     1      -9.177  -1.518  17.908  0.00  0.00    +0.000 HD
ENDBRANCH  51  54
BRANCH  52  58
ATOM     58  C   UNL     1      -9.376   2.117  18.217  0.00  0.00    +0.000 C 
ATOM     59  H   UNL     1      -9.718   2.713  19.074  0.00  0.00    +0.000 HD
ATOM     60  H   UNL     1      -8.638   1.423  18.628  0.00  0.00    +0.000 HD
BRANCH  58  61
ATOM     61  C   UNL     1      -8.795   2.998  17.138  0.00  0.00    +0.000 C 
ATOM     62  H   UNL     1      -9.315   2.859  16.184  0.00  0.00    +0.000 HD
ATOM     63  H   UNL     1      -8.895   4.058  17.399  0.00  0.00    +0.000 HD
BRANCH  61  64
ATOM     64  C   UNL     1      -7.358   2.643  16.972  0.00  0.00    +0.000 C 
ATOM     65  O   UNL     1      -6.690   2.828  15.968  0.00  0.00    +0.000 OA
BRANCH  64  66
ATOM     66  O   UNL     1      -6.857   1.989  18.033  0.00  0.00    +0.000 OA
ATOM     67  H   UNL     1      -6.428   1.198  17.650  0.00  0.00    +0.000 HD
ENDBRANCH  64  66
ENDBRANCH  61  64
ENDBRANCH  58  61
ENDBRANCH  52  58
ENDBRANCH   2  51
BRANCH   1  68
ATOM     68  O   UNL     1     -11.297  -2.221  15.719  0.00  0.00    +0.000 OA
BRANCH  68  69
ATOM     69  C   UNL     1     -12.070  -1.778  14.620  0.00  0.00    +0.000 C 
ATOM     70  H   UNL     1     -11.667  -2.180  13.690  0.00  0.00    +0.000 HD
ATOM     71  H   UNL     1     -13.129  -2.027  14.705  0.00  0.00    +0.000 HD
ATOM     72  H   UNL     1     -11.989  -0.686  14.586  0.00  0.00    +0.000 HD
ENDBRANCH  68  69
ENDBRANCH   1  68
TORSDOF 9
ENDMDL
MODEL 4
REMARK VINA RESULT:    -6.696      4.635      8.551
REMARK INTER + INTRA:         -10.347
REMARK INTER:                  -9.278
REMARK INTRA:                  -1.070
REMARK UNBOUND:                -0.911
REMARK  Name = 
REMARK  9 active torsions:
REMARK  status: ('A' for Active; 'I' for Inactive)
REMARK    1  A    between atoms: C_1  and  O_2
REMARK    2  A    between atoms: O_2  and  C_3
REMARK    3  A    between atoms: C_4  and  N_5
REMARK    4  A    between atoms: N_5  and  C_6
REMARK    5  A    between atoms: C_7  and  C_9
REMARK    6  A    between atoms: C_9  and  C_10
REMARK    7  A    between atoms: C_10  and  C_11
REMARK    8  A    between atoms: C_11  and  O_13
REMARK    9  A    between atoms: C_17  and  C_18
REMARK                            x       y       z     vdW  Elec       q    Type
REMARK                         _______ _______ _______ _____ _____    ______ ____
ROOT
ATOM      1  C   UNL     1     -10.999  -1.306  19.433  0.00  0.00    +0.000 C 
ATOM      2  C   UNL     1     -11.010  -0.154  18.363  0.00  0.00    +0.000 C 
ATOM      3  C   UNL     1     -12.102   0.884  18.616  0.00  0.00    +0.000 C 
ATOM      4  C   UNL     1     -12.195   1.299  20.064  0.00  0.00    +0.000 C 
ATOM      5  O   UNL     1     -12.463   0.148  20.856  0.00  0.00    +0.000 OA
ATOM      6  C   UNL     1     -11.427  -0.868  20.890  0.00  0.00    +0.000 C 
ATOM      7  N   UNL     1     -10.386  -0.442  21.823  0.00  0.00    +0.000 N 
ATOM      8  C   UNL     1      -9.612  -1.197  22.752  0.00  0.00    +0.000 A 
ATOM      9  C   UNL     1      -9.006  -2.463  22.669  0.00  0.00    +0.000 A 
ATOM     10  C   UNL     1      -8.524  -3.053  23.849  0.00  0.00    +0.000 A 
ATOM     11  C   UNL     1      -8.709  -2.450  25.089  0.00  0.00    +0.000 A 
ATOM     12  C   UNL     1      -9.122  -1.127  25.157  0.00  0.00    +0.000 A 
ATOM     13  C   UNL     1      -9.420  -0.440  23.964  0.00  0.00    +0.000 A 
ATOM     14  C   UNL     1      -9.617   0.896  23.634  0.00  0.00    +0.000 A 
ATOM     15  C   UNL     1      -9.048   2.005  24.275  0.00  0.00    +0.000 A 
ATOM     16  C   UNL     1      -9.457   3.256  23.753  0.00  0.00    +0.000 A 
ATOM     17  C   UNL     1     -10.260   3.118  22.587  0.00  0.00    +0.000 A 
ATOM     18  C   UNL     1     -10.586   4.145  21.679  0.00  0.00    +0.000 A 
ATOM     19  C   UNL     1     -10.596   5.553  21.737  0.00  0.00    +0.000 A 
ATOM     20  C   UNL     1     -10.822   6.304  20.583  0.00  0.00    +0.000 A 
ATOM     21  C   UNL     1     -10.987   5.676  19.356  0.00  0.00    +0.000 A 
ATOM     22  C   UNL     1     -11.070   4.282  19.262  0.00  0.00    +0.000 A 
ATOM     23  C   UNL     1     -10.953   3.509  20.429  0.00  0.00    +0.000 A 
ATOM     24  N   UNL     1     -11.129   2.118  20.613  0.00  0.00    +0.000 N 
ATOM     25  C   UNL     1     -10.618   1.991  21.854  0.00  0.00    +0.000 A 
ATOM     26  C   UNL     1     -10.274   0.774  22.412  0.00  0.00    +0.000 A 
ATOM     27  C   UNL     1      -8.698   4.291  24.352  0.00  0.00    +0.000 C 
ATOM     28  O   UNL     1      -8.724   5.512  24.299  0.00  0.00    +0.000 OA
ATOM     29  N   UNL     1      -7.710   3.596  25.059  0.00  0.00    +0.000 N 
ATOM     30  C   UNL     1      -7.828   2.139  25.059  0.00  0.00    +0.000 C 
ATOM     31  H   UNL     1     -11.817  -1.962  19.090  0.00  0.00    +0.000 HD
ATOM     32  H   UNL     1     -11.328  -0.661  17.439  0.00  0.00    +0.000 HD
ATOM     33  H   UNL     1     -13.062   0.413  18.361  0.00  0.00    +0.000 HD
ATOM     34  H   UNL     1     -12.019   1.759  17.974  0.00  0.00    +0.000 HD
ATOM     35  H   UNL     1     -13.089   1.922  20.168  0.00  0.00    +0.000 HD
ATOM     36  H   UNL     1      -8.873  -2.959  21.712  0.00  0.00    +0.000 HD
ATOM     37  H   UNL     1      -8.021  -4.016  23.803  0.00  0.00    +0.000 HD
ATOM     38  H   UNL     1      -8.483  -2.986  26.006  0.00  0.00    +0.000 HD
ATOM     39  H   UNL     1      -9.238  -0.627  26.115  0.00  0.00    +0.000 HD
ATOM     40  H   UNL     1     -10.441   6.066  22.683  0.00  0.00    +0.000 HD
ATOM     41  H   UNL     1     -10.837   7.388  20.651  0.00  0.00    +0.000 HD
ATOM     42  H   UNL     1     -11.072   6.280  18.458  0.00  0.00    +0.000 HD
ATOM     43  H   UNL     1     -11.186   3.820  18.287  0.00  0.00    +0.000 HD
ATOM     44  H   UNL     1      -6.823   4.070  25.158  0.00  0.00    +0.000 HD
ATOM     45  H   UNL     1      -7.901   1.766  26.078  0.00  0.00    +0.000 HD
ATOM     46  H   UNL     1      -6.961   1.727  24.531  0.00  0.00    +0.000 HD
ENDROOT
BRANCH   6  47
ATOM     47  C   UNL     1     -12.192  -2.058  21.532  0.00  0.00    +0.000 C 
ATOM     48  H   UNL     1     -13.232  -1.783  21.753  0.00  0.00    +0.000 HD
ATOM     49  H   UNL     1     -12.254  -2.900  20.832  0.00  0.00    +0.000 HD
ATOM     50  H   UNL     1     -11.724  -2.416  22.453  0.00  0.00    +0.000 HD
ENDBRANCH   6  47
BRANCH   2  51
ATOM     51  N   UNL     1      -9.742   0.458  17.934  0.00  0.00    +0.000 N 
ATOM     52  C   UNL     1      -9.520   0.782  16.612  0.00  0.00    +0.000 C 
ATOM     53  O   UNL     1      -9.987   0.153  15.674  0.00  0.00    +0.000 OA
BRANCH  51  54
ATOM     54  C   UNL     1      -8.750   0.784  18.956  0.00  0.00    +0.000 C 
ATOM     55  H   UNL     1      -7.760   0.458  18.624  0.00  0.00    +0.000 HD
ATOM     56  H   UNL     1      -8.970   0.273  19.895  0.00  0.00    +0.000 HD
ATOM     57  H   UNL     1      -8.753   1.862  19.130  0.00  0.00    +0.000 HD
ENDBRANCH  51  54
BRANCH  52  58
ATOM     58  C   UNL     1      -8.734   2.034  16.343  0.00  0.00    +0.000 C 
ATOM     59  H   UNL     1      -9.444   2.792  15.985  0.00  0.00    +0.000 HD
ATOM     60  H   UNL     1      -8.291   2.461  17.247  0.00  0.00    +0.000 HD
BRANCH  58  61
ATOM     61  C   UNL     1      -7.697   1.720  15.292  0.00  0.00    +0.000 C 
ATOM     62  H   UNL     1      -8.058   0.964  14.587  0.00  0.00    +0.000 HD
ATOM     63  H   UNL     1      -7.454   2.611  14.701  0.00  0.00    +0.000 HD
BRANCH  61  64
ATOM     64  C   UNL     1      -6.477   1.211  15.979  0.00  0.00    +0.000 C 
ATOM     65  O   UNL     1      -5.867   1.787  16.865  0.00  0.00    +0.000 OA
BRANCH  64  66
ATOM     66  O   UNL     1      -6.029   0.058  15.459  0.00  0.00    +0.000 OA
ATOM     67  H   UNL     1      -5.742   0.294  14.554  0.00  0.00    +0.000 HD
ENDBRANCH  64  66
ENDBRANCH  61  64
ENDBRANCH  58  61
ENDBRANCH  52  58
ENDBRANCH   2  51
BRANCH   1  68
ATOM     68  O   UNL     1      -9.837  -2.148  19.457  0.00  0.00    +0.000 OA
BRANCH  68  69
ATOM     69  C   UNL     1      -9.906  -3.394  18.791  0.00  0.00    +0.000 C 
ATOM     70  H   UNL     1      -9.380  -3.339  17.836  0.00  0.00    +0.000 HD
ATOM     71  H   UNL     1      -9.518  -4.226  19.382  0.00  0.00    +0.000 HD
ATOM     72  H   UNL     1     -10.964  -3.596  18.589  0.00  0.00    +0.000 HD
ENDBRANCH  68  69
ENDBRANCH   1  68
TORSDOF 9
ENDMDL
MODEL 5
REMARK VINA RESULT:    -6.675      2.604      7.146
REMARK INTER + INTRA:         -10.318
REMARK INTER:                  -9.120
REMARK INTRA:                  -1.198
REMARK UNBOUND:                -0.911
REMARK  Name = 
REMARK  9 active torsions:
REMARK  status: ('A' for Active; 'I' for Inactive)
REMARK    1  A    between atoms: C_1  and  O_2
REMARK    2  A    between atoms: O_2  and  C_3
REMARK    3  A    between atoms: C_4  and  N_5
REMARK    4  A    between atoms: N_5  and  C_6
REMARK    5  A    between atoms: C_7  and  C_9
REMARK    6  A    between atoms: C_9  and  C_10
REMARK    7  A    between atoms: C_10  and  C_11
REMARK    8  A    between atoms: C_11  and  O_13
REMARK    9  A    between atoms: C_17  and  C_18
REMARK                            x       y       z     vdW  Elec       q    Type
REMARK                         _______ _______ _______ _____ _____    ______ ____
ROOT
ATOM      1  C   UNL     1     -11.502  -0.319  14.059  0.00  0.00    +0.000 C 
ATOM      2  C   UNL     1     -10.896  -1.628  14.687  0.00  0.00    +0.000 C 
ATOM      3  C   UNL     1      -9.592  -1.377  15.443  0.00  0.00    +0.000 C 
ATOM      4  C   UNL     1      -9.654  -0.160  16.335  0.00  0.00    +0.000 C 
ATOM      5  O   UNL     1      -9.948   0.980  15.535  0.00  0.00    +0.000 OA
ATOM      6  C   UNL     1     -11.249   1.000  14.892  0.00  0.00    +0.000 C 
ATOM      7  N   UNL     1     -12.250   1.404  15.877  0.00  0.00    +0.000 N 
ATOM      8  C   UNL     1     -13.400   2.236  15.738  0.00  0.00    +0.000 A 
ATOM      9  C   UNL     1     -14.365   2.354  14.722  0.00  0.00    +0.000 A 
ATOM     10  C   UNL     1     -15.240   3.453  14.754  0.00  0.00    +0.000 A 
ATOM     11  C   UNL     1     -15.113   4.453  15.712  0.00  0.00    +0.000 A 
ATOM     12  C   UNL     1     -14.303   4.246  16.821  0.00  0.00    +0.000 A 
ATOM     13  C   UNL     1     -13.563   3.052  16.916  0.00  0.00    +0.000 A 
ATOM     14  C   UNL     1     -12.870   2.416  17.939  0.00  0.00    +0.000 A 
ATOM     15  C   UNL     1     -13.150   2.496  19.310  0.00  0.00    +0.000 A 
ATOM     16  C   UNL     1     -12.252   1.775  20.134  0.00  0.00    +0.000 A 
ATOM     17  C   UNL     1     -11.328   1.002  19.378  0.00  0.00    +0.000 A 
ATOM     18  C   UNL     1     -10.504  -0.027  19.878  0.00  0.00    +0.000 A 
ATOM     19  C   UNL     1     -10.036  -0.389  21.157  0.00  0.00    +0.000 A 
ATOM     20  C   UNL     1      -9.350  -1.589  21.341  0.00  0.00    +0.000 A 
ATOM     21  C   UNL     1      -9.165  -2.464  20.279  0.00  0.00    +0.000 A 
ATOM     22  C   UNL     1      -9.536  -2.112  18.977  0.00  0.00    +0.000 A 
ATOM     23  C   UNL     1     -10.132  -0.860  18.751  0.00  0.00    +0.000 A 
ATOM     24  N   UNL     1     -10.471  -0.228  17.533  0.00  0.00    +0.000 N 
ATOM     25  C   UNL     1     -11.229   0.781  18.009  0.00  0.00    +0.000 A 
ATOM     26  C   UNL     1     -12.064   1.544  17.212  0.00  0.00    +0.000 A 
ATOM     27  C   UNL     1     -12.724   1.781  21.470  0.00  0.00    +0.000 C 
ATOM     28  O   UNL     1     -12.282   1.379  22.536  0.00  0.00    +0.000 OA
ATOM     29  N   UNL     1     -14.007   2.329  21.354  0.00  0.00    +0.000 N 
ATOM     30  C   UNL     1     -14.384   2.798  20.022  0.00  0.00    +0.000 C 
ATOM     31  H   UNL     1     -10.900  -0.188  13.145  0.00  0.00    +0.000 HD
ATOM     32  H   UNL     1     -10.590  -2.219  13.810  0.00  0.00    +0.000 HD
ATOM     33  H   UNL     1      -8.814  -1.178  14.692  0.00  0.00    +0.000 HD
ATOM     34  H   UNL     1      -9.249  -2.243  16.006  0.00  0.00    +0.000 HD
ATOM     35  H   UNL     1      -8.643   0.019  16.712  0.00  0.00    +0.000 HD
ATOM     36  H   UNL     1     -14.464   1.594  13.953  0.00  0.00    +0.000 HD
ATOM     37  H   UNL     1     -16.016   3.544  13.998  0.00  0.00    +0.000 HD
ATOM     38  H   UNL     1     -15.681   5.374  15.631  0.00  0.00    +0.000 HD
ATOM     39  H   UNL     1     -14.218   5.001  17.598  0.00  0.00    +0.000 HD
ATOM     40  H   UNL     1     -10.195   0.269  22.007  0.00  0.00    +0.000 HD
ATOM     41  H   UNL     1      -8.987  -1.845  22.333  0.00  0.00    +0.000 HD
ATOM     42  H   UNL     1      -8.707  -3.432  20.463  0.00  0.00    +0.000 HD
ATOM     43  H   UNL     1      -9.390  -2.822  18.170  0.00  0.00    +0.000 HD
ATOM     44  H   UNL     1     -14.685   2.011  22.032  0.00  0.00    +0.000 HD
ATOM     45  H   UNL     1     -14.644   3.854  20.052  0.00  0.00    +0.000 HD
ATOM     46  H   UNL     1     -15.217   2.180  19.667  0.00  0.00    +0.000 HD
ENDROOT
BRANCH   6  47
ATOM     47  C   UNL     1     -11.069   2.166  13.882  0.00  0.00    +0.000 C 
ATOM     48  H   UNL     1     -10.063   2.599  13.959  0.00  0.00    +0.000 HD
ATOM     49  H   UNL     1     -11.152   1.800  12.851  0.00  0.00    +0.000 HD
ATOM     50  H   UNL     1     -11.804   2.964  14.018  0.00  0.00    +0.000 HD
ENDBRANCH   6  47
BRANCH   2  51
ATOM     51  N   UNL     1     -11.774  -2.581  15.383  0.00  0.00    +0.000 N 
ATOM     52  C   UNL     1     -11.534  -3.937  15.334  0.00  0.00    +0.000 C 
ATOM     53  O   UNL     1     -11.031  -4.500  14.372  0.00  0.00    +0.000 OA
BRANCH  51  54
ATOM     54  C   UNL     1     -12.869  -2.048  16.192  0.00  0.00    +0.000 C 
ATOM     55  H   UNL     1     -12.688  -0.990  16.403  0.00  0.00    +0.000 HD
ATOM     56  H   UNL     1     -12.941  -2.569  17.149  0.00  0.00    +0.000 HD
ATOM     57  H   UNL     1     -13.808  -2.168  15.650  0.00  0.00    +0.000 HD
ENDBRANCH  51  54
BRANCH  52  58
ATOM     58  C   UNL     1     -11.831  -4.725  16.578  0.00  0.00    +0.000 C 
ATOM     59  H   UNL     1     -12.197  -4.014  17.331  0.00  0.00    +0.000 HD
ATOM     60  H   UNL     1     -12.644  -5.443  16.443  0.00  0.00    +0.000 HD
BRANCH  58  61
ATOM     61  C   UNL     1     -10.552  -5.387  17.031  0.00  0.00    +0.000 C 
ATOM     62  H   UNL     1      -9.717  -5.142  16.366  0.00  0.00    +0.000 HD
ATOM     63  H   UNL     1     -10.267  -5.047  18.033  0.00  0.00    +0.000 HD
BRANCH  61  64
ATOM     64  C   UNL     1     -10.767  -6.861  17.030  0.00  0.00    +0.000 C 
ATOM     65  O   UNL     1     -10.567  -7.610  17.972  0.00  0.00    +0.000 OA
BRANCH  64  66
ATOM     66  O   UNL     1     -11.126  -7.335  15.826  0.00  0.00    +0.000 OA
ATOM     67  H   UNL     1     -11.414  -6.542  15.329  0.00  0.00    +0.000 HD
ENDBRANCH  64  66
ENDBRANCH  61  64
ENDBRANCH  58  61
ENDBRANCH  52  58
ENDBRANCH   2  51
BRANCH   1  68
ATOM     68  O   UNL     1     -12.859  -0.398  13.598  0.00  0.00    +0.000 OA
BRANCH  68  69
ATOM     69  C   UNL     1     -13.102  -1.021  12.352  0.00  0.00    +0.000 C 
ATOM     70  H   UNL     1     -13.415  -2.055  12.504  0.00  0.00    +0.000 HD
ATOM     71  H   UNL     1     -13.837  -0.496  11.739  0.00  0.00    +0.000 HD
ATOM     72  H   UNL     1     -12.155  -1.027  11.802  0.00  0.00    +0.000 HD
ENDBRANCH  68  69
ENDBRANCH   1  68
TORSDOF 9
ENDMDL
MODEL 6
REMARK VINA RESULT:    -6.663      3.914      8.454
REMARK INTER + INTRA:         -10.301
REMARK INTER:                  -9.339
REMARK INTRA:                  -0.962
REMARK UNBOUND:                -0.911
REMARK  Name = 
REMARK  9 active torsions:
REMARK  status: ('A' for Active; 'I' for Inactive)
REMARK    1  A    between atoms: C_1  and  O_2
REMARK    2  A    between atoms: O_2  and  C_3
REMARK    3  A    between atoms: C_4  and  N_5
REMARK    4  A    between atoms: N_5  and  C_6
REMARK    5  A    between atoms: C_7  and  C_9
REMARK    6  A    between atoms: C_9  and  C_10
REMARK    7  A    between atoms: C_10  and  C_11
REMARK    8  A    between atoms: C_11  and  O_13
REMARK    9  A    between atoms: C_17  and  C_18
REMARK                            x       y       z     vdW  Elec       q    Type
REMARK                         _______ _______ _______ _____ _____    ______ ____
ROOT
ATOM      1  C   UNL     1     -12.185   3.669  19.478  0.00  0.00    +0.000 C 
ATOM      2  C   UNL     1     -11.441   4.356  20.681  0.00  0.00    +0.000 C 
ATOM      3  C   UNL     1     -11.971   3.910  22.043  0.00  0.00    +0.000 C 
ATOM      4  C   UNL     1     -12.176   2.416  22.132  0.00  0.00    +0.000 C 
ATOM      5  O   UNL     1     -13.100   2.019  21.127  0.00  0.00    +0.000 OA
ATOM      6  C   UNL     1     -12.672   2.191  19.751  0.00  0.00    +0.000 C 
ATOM      7  N   UNL     1     -11.780   1.088  19.399  0.00  0.00    +0.000 N 
ATOM      8  C   UNL     1     -11.653   0.354  18.183  0.00  0.00    +0.000 A 
ATOM      9  C   UNL     1     -11.683   0.748  16.833  0.00  0.00    +0.000 A 
ATOM     10  C   UNL     1     -11.788  -0.248  15.848  0.00  0.00    +0.000 A 
ATOM     11  C   UNL     1     -11.943  -1.589  16.186  0.00  0.00    +0.000 A 
ATOM     12  C   UNL     1     -11.716  -2.001  17.492  0.00  0.00    +0.000 A 
ATOM     13  C   UNL     1     -11.406  -1.038  18.471  0.00  0.00    +0.000 A 
ATOM     14  C   UNL     1     -10.900  -1.092  19.764  0.00  0.00    +0.000 A 
ATOM     15  C   UNL     1     -10.045  -2.074  20.283  0.00  0.00    +0.000 A 
ATOM     16  C   UNL     1      -9.719  -1.903  21.650  0.00  0.00    +0.000 A 
ATOM     17  C   UNL     1     -10.224  -0.682  22.177  0.00  0.00    +0.000 A 
ATOM     18  C   UNL     1      -9.845  -0.086  23.397  0.00  0.00    +0.000 A 
ATOM     19  C   UNL     1      -9.229  -0.548  24.577  0.00  0.00    +0.000 A 
ATOM     20  C   UNL     1      -8.835   0.353  25.565  0.00  0.00    +0.000 A 
ATOM     21  C   UNL     1      -8.998   1.719  25.377  0.00  0.00    +0.000 A 
ATOM     22  C   UNL     1      -9.679   2.220  24.262  0.00  0.00    +0.000 A 
ATOM     23  C   UNL     1     -10.180   1.321  23.306  0.00  0.00    +0.000 A 
ATOM     24  N   UNL     1     -11.002   1.564  22.181  0.00  0.00    +0.000 N 
ATOM     25  C   UNL     1     -10.886   0.373  21.559  0.00  0.00    +0.000 A 
ATOM     26  C   UNL     1     -11.260   0.164  20.244  0.00  0.00    +0.000 A 
ATOM     27  C   UNL     1      -8.723  -2.840  22.022  0.00  0.00    +0.000 C 
ATOM     28  O   UNL     1      -8.182  -3.141  23.076  0.00  0.00    +0.000 OA
ATOM     29  N   UNL     1      -8.336  -3.397  20.798  0.00  0.00    +0.000 N 
ATOM     30  C   UNL     1      -9.098  -2.966  19.628  0.00  0.00    +0.000 C 
ATOM     31  H   UNL     1     -13.115   4.257  19.402  0.00  0.00    +0.000 HD
ATOM     32  H   UNL     1     -11.746   5.412  20.606  0.00  0.00    +0.000 HD
ATOM     33  H   UNL     1     -12.960   4.372  22.174  0.00  0.00    +0.000 HD
ATOM     34  H   UNL     1     -11.365   4.260  22.876  0.00  0.00    +0.000 HD
ATOM     35  H   UNL     1     -12.690   2.215  23.078  0.00  0.00    +0.000 HD
ATOM     36  H   UNL     1     -11.586   1.792  16.552  0.00  0.00    +0.000 HD
ATOM     37  H   UNL     1     -11.779   0.031  14.798  0.00  0.00    +0.000 HD
ATOM     38  H   UNL     1     -12.189  -2.327  15.429  0.00  0.00    +0.000 HD
ATOM     39  H   UNL     1     -11.798  -3.049  17.769  0.00  0.00    +0.000 HD
ATOM     40  H   UNL     1      -9.067  -1.612  24.733  0.00  0.00    +0.000 HD
ATOM     41  H   UNL     1      -8.372  -0.024  26.472  0.00  0.00    +0.000 HD
ATOM     42  H   UNL     1      -8.603   2.408  26.118  0.00  0.00    +0.000 HD
ATOM     43  H   UNL     1      -9.779   3.293  24.136  0.00  0.00    +0.000 HD
ATOM     44  H   UNL     1      -7.376  -3.706  20.739  0.00  0.00    +0.000 HD
ATOM     45  H   UNL     1      -9.550  -3.823  19.133  0.00  0.00    +0.000 HD
ATOM     46  H   UNL     1      -8.420  -2.418  18.963  0.00  0.00    +0.000 HD
ENDROOT
BRANCH   6  47
ATOM     47  C   UNL     1     -14.011   1.989  18.990  0.00  0.00    +0.000 C 
ATOM     48  H   UNL     1     -14.816   2.576  19.451  0.00  0.00    +0.000 HD
ATOM     49  H   UNL     1     -13.929   2.361  17.961  0.00  0.00    +0.000 HD
ATOM     50  H   UNL     1     -14.322   0.942  18.948  0.00  0.00    +0.000 HD
ENDBRANCH   6  47
BRANCH   2  51
ATOM     51  N   UNL     1      -9.975   4.478  20.662  0.00  0.00    +0.000 N 
ATOM     52  C   UNL     1      -9.328   5.412  21.445  0.00  0.00    +0.000 C 
ATOM     53  O   UNL     1      -9.807   6.499  21.735  0.00  0.00    +0.000 OA
BRANCH  51  54
ATOM     54  C   UNL     1      -9.213   3.535  19.848  0.00  0.00    +0.000 C 
ATOM     55  H   UNL     1      -9.899   2.847  19.344  0.00  0.00    +0.000 HD
ATOM     56  H   UNL     1      -8.539   2.937  20.464  0.00  0.00    +0.000 HD
ATOM     57  H   UNL     1      -8.626   4.087  19.111  0.00  0.00    +0.000 HD
ENDBRANCH  51  54
BRANCH  52  58
ATOM     58  C   UNL     1      -8.006   5.007  22.031  0.00  0.00    +0.000 C 
ATOM     59  H   UNL     1      -8.149   4.911  23.116  0.00  0.00    +0.000 HD
ATOM     60  H   UNL     1      -7.677   4.018  21.698  0.00  0.00    +0.000 HD
BRANCH  58  61
ATOM     61  C   UNL     1      -6.999   6.083  21.707  0.00  0.00    +0.000 C 
ATOM     62  H   UNL     1      -7.401   6.804  20.987  0.00  0.00    +0.000 HD
ATOM     63  H   UNL     1      -6.730   6.653  22.604  0.00  0.00    +0.000 HD
BRANCH  61  64
ATOM     64  C   UNL     1      -5.790   5.431  21.131  0.00  0.00    +0.000 C 
ATOM     65  O   UNL     1      -4.645   5.582  21.523  0.00  0.00    +0.000 OA
BRANCH  64  66
ATOM     66  O   UNL     1      -6.063   4.702  20.037  0.00  0.00    +0.000 OA
ATOM     67  H   UNL     1      -6.353   3.836  20.388  0.00  0.00    +0.000 HD
ENDBRANCH  64  66
ENDBRANCH  61  64
ENDBRANCH  58  61
ENDBRANCH  52  58
ENDBRANCH   2  51
BRANCH   1  68
ATOM     68  O   UNL     1     -11.566   3.790  18.188  0.00  0.00    +0.000 OA
BRANCH  68  69
ATOM     69  C   UNL     1     -12.069   4.768  17.300  0.00  0.00    +0.000 C 
ATOM     70  H   UNL     1     -11.250   5.225  16.741  0.00  0.00    +0.000 HD
ATOM     71  H   UNL     1     -12.821   4.383  16.609  0.00  0.00    +0.000 HD
ATOM     72  H   UNL     1     -12.544   5.545  17.908  0.00  0.00    +0.000 HD
ENDBRANCH  68  69
ENDBRANCH   1  68
TORSDOF 9
ENDMDL
MODEL 7
REMARK VINA RESULT:    -6.652      3.795      7.564
REMARK INTER + INTRA:         -10.285
REMARK INTER:                  -9.292
REMARK INTRA:                  -0.993
REMARK UNBOUND:                -0.911
REMARK  Name = 
REMARK  9 active torsions:
REMARK  status: ('A' for Active; 'I' for Inactive)
REMARK    1  A    between atoms: C_1  and  O_2
REMARK    2  A    between atoms: O_2  and  C_3
REMARK    3  A    between atoms: C_4  and  N_5
REMARK    4  A    between atoms: N_5  and  C_6
REMARK    5  A    between atoms: C_7  and  C_9
REMARK    6  A    between atoms: C_9  and  C_10
REMARK    7  A    between atoms: C_10  and  C_11
REMARK    8  A    between atoms: C_11  and  O_13
REMARK    9  A    between atoms: C_17  and  C_18
REMARK                            x       y       z     vdW  Elec       q    Type
REMARK                         _______ _______ _______ _____ _____    ______ ____
ROOT
ATOM      1  C   UNL     1     -11.294  -3.134  15.062  0.00  0.00    +0.000 C 
ATOM      2  C   UNL     1     -11.375  -1.565  14.991  0.00  0.00    +0.000 C 
ATOM      3  C   UNL     1     -12.347  -0.972  16.010  0.00  0.00    +0.000 C 
ATOM      4  C   UNL     1     -12.206  -1.585  17.382  0.00  0.00    +0.000 C 
ATOM      5  O   UNL     1     -12.440  -2.985  17.286  0.00  0.00    +0.000 OA
ATOM      6  C   UNL     1     -11.483  -3.747  16.506  0.00  0.00    +0.000 C 
ATOM      7  N   UNL     1     -10.295  -3.979  17.325  0.00  0.00    +0.000 N 
ATOM      8  C   UNL     1      -9.452  -5.125  17.426  0.00  0.00    +0.000 A 
ATOM      9  C   UNL     1      -8.952  -6.020  16.464  0.00  0.00    +0.000 A 
ATOM     10  C   UNL     1      -8.352  -7.211  16.905  0.00  0.00    +0.000 A 
ATOM     11  C   UNL     1      -8.319  -7.550  18.254  0.00  0.00    +0.000 A 
ATOM     12  C   UNL     1      -8.626  -6.594  19.213  0.00  0.00    +0.000 A 
ATOM     13  C   UNL     1      -9.040  -5.314  18.796  0.00  0.00    +0.000 A 
ATOM     14  C   UNL     1      -9.189  -4.085  19.428  0.00  0.00    +0.000 A 
ATOM     15  C   UNL     1      -8.460  -3.625  20.533  0.00  0.00    +0.000 A 
ATOM     16  C   UNL     1      -8.850  -2.346  21.000  0.00  0.00    +0.000 A 
ATOM     17  C   UNL     1      -9.816  -1.734  20.153  0.00  0.00    +0.000 A 
ATOM     18  C   UNL     1     -10.195  -0.377  20.173  0.00  0.00    +0.000 A 
ATOM     19  C   UNL     1     -10.099   0.665  21.117  0.00  0.00    +0.000 A 
ATOM     20  C   UNL     1     -10.431   1.972  20.759  0.00  0.00    +0.000 A 
ATOM     21  C   UNL     1     -10.810   2.270  19.457  0.00  0.00    +0.000 A 
ATOM     22  C   UNL     1     -11.001   1.259  18.509  0.00  0.00    +0.000 A 
ATOM     23  C   UNL     1     -10.776  -0.077  18.880  0.00  0.00    +0.000 A 
ATOM     24  N   UNL     1     -11.021  -1.268  18.157  0.00  0.00    +0.000 N 
ATOM     25  C   UNL     1     -10.351  -2.142  18.936  0.00  0.00    +0.000 A 
ATOM     26  C   UNL     1     -10.017  -3.421  18.528  0.00  0.00    +0.000 A 
ATOM     27  C   UNL     1      -7.945  -1.908  21.997  0.00  0.00    +0.000 C 
ATOM     28  O   UNL     1      -7.894  -0.939  22.741  0.00  0.00    +0.000 OA
ATOM     29  N   UNL     1      -6.918  -2.857  21.937  0.00  0.00    +0.000 N 
ATOM     30  C   UNL     1      -7.136  -3.978  21.026  0.00  0.00    +0.000 C 
ATOM     31  H   UNL     1     -12.195  -3.447  14.509  0.00  0.00    +0.000 HD
ATOM     32  H   UNL     1     -11.853  -1.373  14.018  0.00  0.00    +0.000 HD
ATOM     33  H   UNL     1     -13.363  -1.205  15.662  0.00  0.00    +0.000 HD
ATOM     34  H   UNL     1     -12.294   0.114  16.072  0.00  0.00    +0.000 HD
ATOM     35  H   UNL     1     -13.032  -1.207  17.994  0.00  0.00    +0.000 HD
ATOM     36  H   UNL     1      -8.990  -5.783  15.405  0.00  0.00    +0.000 HD
ATOM     37  H   UNL     1      -7.928  -7.901  16.180  0.00  0.00    +0.000 HD
ATOM     38  H   UNL     1      -8.004  -8.540  18.570  0.00  0.00    +0.000 HD
ATOM     39  H   UNL     1      -8.572  -6.829  20.272  0.00  0.00    +0.000 HD
ATOM     40  H   UNL     1      -9.778   0.458  22.134  0.00  0.00    +0.000 HD
ATOM     41  H   UNL     1     -10.362   2.759  21.504  0.00  0.00    +0.000 HD
ATOM     42  H   UNL     1     -10.978   3.306  19.178  0.00  0.00    +0.000 HD
ATOM     43  H   UNL     1     -11.285   1.524  17.496  0.00  0.00    +0.000 HD
ATOM     44  H   UNL     1      -5.996  -2.524  22.180  0.00  0.00    +0.000 HD
ATOM     45  H   UNL     1      -7.091  -4.921  21.568  0.00  0.00    +0.000 HD
ATOM     46  H   UNL     1      -6.382  -3.925  20.233  0.00  0.00    +0.000 HD
ENDROOT
BRANCH   6  47
ATOM     47  C   UNL     1     -12.231  -5.100  16.348  0.00  0.00    +0.000 C 
ATOM     48  H   UNL     1     -12.169  -5.692  17.270  0.00  0.00    +0.000 HD
ATOM     49  H   UNL     1     -13.301  -4.931  16.179  0.00  0.00    +0.000 HD
ATOM     50  H   UNL     1     -11.847  -5.703  15.520  0.00  0.00    +0.000 HD
ENDBRANCH   6  47
BRANCH   2  51
ATOM     51  N   UNL     1     -10.141  -0.773  14.866  0.00  0.00    +0.000 N 
ATOM     52  C   UNL     1     -10.048   0.262  13.959  0.00  0.00    +0.000 C 
ATOM     53  O   UNL     1     -10.631   0.273  12.884  0.00  0.00    +0.000 OA
BRANCH  51  54
ATOM     54  C   UNL     1      -9.037  -1.063  15.778  0.00  0.00    +0.000 C 
ATOM     55  H   UNL     1      -8.206  -0.379  15.579  0.00  0.00    +0.000 HD
ATOM     56  H   UNL     1      -8.669  -2.081  15.641  0.00  0.00    +0.000 HD
ATOM     57  H   UNL     1      -9.382  -0.946  16.808  0.00  0.00    +0.000 HD
ENDBRANCH  51  54
BRANCH  52  58
ATOM     58  C   UNL     1      -9.256   1.465  14.382  0.00  0.00    +0.000 C 
ATOM     59  H   UNL     1      -9.963   2.300  14.484  0.00  0.00    +0.000 HD
ATOM     60  H   UNL     1      -8.804   1.351  15.372  0.00  0.00    +0.000 HD
BRANCH  58  61
ATOM     61  C   UNL     1      -8.228   1.750  13.314  0.00  0.00    +0.000 C 
ATOM     62  H   UNL     1      -8.619   1.531  12.314  0.00  0.00    +0.000 HD
ATOM     63  H   UNL     1      -7.943   2.809  13.315  0.00  0.00    +0.000 HD
BRANCH  61  64
ATOM     64  C   UNL     1      -7.036   0.896  13.575  0.00  0.00    +0.000 C 
ATOM     65  O   UNL     1      -6.334   0.940  14.571  0.00  0.00    +0.000 OA
BRANCH  64  66
ATOM     66  O   UNL     1      -6.728   0.101  12.538  0.00  0.00    +0.000 OA
ATOM     67  H   UNL     1      -7.019   0.604  11.751  0.00  0.00    +0.000 HD
ENDBRANCH  64  66
ENDBRANCH  61  64
ENDBRANCH  58  61
ENDBRANCH  52  58
ENDBRANCH   2  51
BRANCH   1  68
ATOM     68  O   UNL     1     -10.201  -3.752  14.366  0.00  0.00    +0.000 OA
BRANCH  68  69
ATOM     69  C   UNL     1     -10.389  -4.095  13.007  0.00  0.00    +0.000 C 
ATOM     70  H   UNL     1     -10.740  -3.228  12.446  0.00  0.00    +0.000 HD
ATOM     71  H   UNL     1      -9.494  -4.506  12.535  0.00  0.00    +0.000 HD
ATOM     72  H   UNL     1     -11.166  -4.866  12.971  0.00  0.00    +0.000 HD
ENDBRANCH  68  69
ENDBRANCH   1  68
TORSDOF 9
ENDMDL
MODEL 8
REMARK VINA RESULT:    -6.548      4.342      8.593
REMARK INTER + INTRA:         -10.139
REMARK INTER:                  -8.958
REMARK INTRA:                  -1.181
REMARK UNBOUND:                -0.911
REMARK  Name = 
REMARK  9 active torsions:
REMARK  status: ('A' for Active; 'I' for Inactive)
REMARK    1  A    between atoms: C_1  and  O_2
REMARK    2  A    between atoms: O_2  and  C_3
REMARK    3  A    between atoms: C_4  and  N_5
REMARK    4  A    between atoms: N_5  and  C_6
REMARK    5  A    between atoms: C_7  and  C_9
REMARK    6  A    between atoms: C_9  and  C_10
REMARK    7  A    between atoms: C_10  and  C_11
REMARK    8  A    between atoms: C_11  and  O_13
REMARK    9  A    between atoms: C_17  and  C_18
REMARK                            x       y       z     vdW  Elec       q    Type
REMARK                         _______ _______ _______ _____ _____    ______ ____
ROOT
ATOM      1  C   UNL     1     -11.585   0.080  19.260  0.00  0.00    +0.000 C 
ATOM      2  C   UNL     1     -12.133   1.473  18.778  0.00  0.00    +0.000 C 
ATOM      3  C   UNL     1     -13.346   1.945  19.579  0.00  0.00    +0.000 C 
ATOM      4  C   UNL     1     -13.176   1.758  21.067  0.00  0.00    +0.000 C 
ATOM      5  O   UNL     1     -12.959   0.378  21.334  0.00  0.00    +0.000 OA
ATOM      6  C   UNL     1     -11.735  -0.197  20.808  0.00  0.00    +0.000 C 
ATOM      7  N   UNL     1     -10.630   0.171  21.692  0.00  0.00    +0.000 N 
ATOM      8  C   UNL     1      -9.494  -0.581  22.113  0.00  0.00    +0.000 A 
ATOM      9  C   UNL     1      -8.642  -1.469  21.433  0.00  0.00    +0.000 A 
ATOM     10  C   UNL     1      -7.759  -2.259  22.187  0.00  0.00    +0.000 A 
ATOM     11  C   UNL     1      -7.772  -2.236  23.578  0.00  0.00    +0.000 A 
ATOM     12  C   UNL     1      -8.460  -1.231  24.244  0.00  0.00    +0.000 A 
ATOM     13  C   UNL     1      -9.198  -0.293  23.495  0.00  0.00    +0.000 A 
ATOM     14  C   UNL     1      -9.783   0.935  23.779  0.00  0.00    +0.000 A 
ATOM     15  C   UNL     1      -9.356   1.857  24.745  0.00  0.00    +0.000 A 
ATOM     16  C   UNL     1     -10.167   3.013  24.849  0.00  0.00    +0.000 A 
ATOM     17  C   UNL     1     -11.175   3.058  23.846  0.00  0.00    +0.000 A 
ATOM     18  C   UNL     1     -11.950   4.182  23.499  0.00  0.00    +0.000 A 
ATOM     19  C   UNL     1     -12.281   5.394  24.139  0.00  0.00    +0.000 A 
ATOM     20  C   UNL     1     -12.956   6.396  23.442  0.00  0.00    +0.000 A 
ATOM     21  C   UNL     1     -13.262   6.235  22.098  0.00  0.00    +0.000 A 
ATOM     22  C   UNL     1     -13.029   5.021  21.442  0.00  0.00    +0.000 A 
ATOM     23  C   UNL     1     -12.449   3.959  22.156  0.00  0.00    +0.000 A 
ATOM     24  N   UNL     1     -12.237   2.617  21.765  0.00  0.00    +0.000 N 
ATOM     25  C   UNL     1     -11.422   2.220  22.763  0.00  0.00    +0.000 A 
ATOM     26  C   UNL     1     -10.671   1.060  22.714  0.00  0.00    +0.000 A 
ATOM     27  C   UNL     1      -9.555   3.946  25.721  0.00  0.00    +0.000 C 
ATOM     28  O   UNL     1      -9.884   5.027  26.186  0.00  0.00    +0.000 OA
ATOM     29  N   UNL     1      -8.287   3.395  25.940  0.00  0.00    +0.000 N 
ATOM     30  C   UNL     1      -8.050   2.080  25.349  0.00  0.00    +0.000 C 
ATOM     31  H   UNL     1     -12.281  -0.631  18.784  0.00  0.00    +0.000 HD
ATOM     32  H   UNL     1     -12.537   1.261  17.776  0.00  0.00    +0.000 HD
ATOM     33  H   UNL     1     -14.198   1.320  19.277  0.00  0.00    +0.000 HD
ATOM     34  H   UNL     1     -13.635   2.971  19.356  0.00  0.00    +0.000 HD
ATOM     35  H   UNL     1     -14.140   1.983  21.535  0.00  0.00    +0.000 HD
ATOM     36  H   UNL     1      -8.634  -1.517  20.348  0.00  0.00    +0.000 HD
ATOM     37  H   UNL     1      -7.067  -2.927  21.679  0.00  0.00    +0.000 HD
ATOM     38  H   UNL     1      -7.207  -2.965  24.150  0.00  0.00    +0.000 HD
ATOM     39  H   UNL     1      -8.454  -1.175  25.329  0.00  0.00    +0.000 HD
ATOM     40  H   UNL     1     -12.026   5.551  25.183  0.00  0.00    +0.000 HD
ATOM     41  H   UNL     1     -13.212   7.318  23.957  0.00  0.00    +0.000 HD
ATOM     42  H   UNL     1     -13.707   7.062  21.552  0.00  0.00    +0.000 HD
ATOM     43  H   UNL     1     -13.268   4.929  20.388  0.00  0.00    +0.000 HD
ATOM     44  H   UNL     1      -7.543   4.057  26.113  0.00  0.00    +0.000 HD
ATOM     45  H   UNL     1      -7.779   1.361  26.120  0.00  0.00    +0.000 HD
ATOM     46  H   UNL     1      -7.266   2.183  24.590  0.00  0.00    +0.000 HD
ENDROOT
BRANCH   6  47
ATOM     47  C   UNL     1     -12.011  -1.715  20.990  0.00  0.00    +0.000 C 
ATOM     48  H   UNL     1     -13.063  -1.950  20.781  0.00  0.00    +0.000 HD
ATOM     49  H   UNL     1     -11.431  -2.302  20.267  0.00  0.00    +0.000 HD
ATOM     50  H   UNL     1     -11.767  -2.075  21.993  0.00  0.00    +0.000 HD
ENDBRANCH   6  47
BRANCH   2  51
ATOM     51  N   UNL     1     -11.194   2.567  18.484  0.00  0.00    +0.000 N 
ATOM     52  C   UNL     1     -11.476   3.505  17.513  0.00  0.00    +0.000 C 
ATOM     53  O   UNL     1     -12.120   3.260  16.503  0.00  0.00    +0.000 OA
BRANCH  51  54
ATOM     54  C   UNL     1      -9.986   2.679  19.297  0.00  0.00    +0.000 C 
ATOM     55  H   UNL     1     -10.010   3.615  19.863  0.00  0.00    +0.000 HD
ATOM     56  H   UNL     1      -9.090   2.691  18.674  0.00  0.00    +0.000 HD
ATOM     57  H   UNL     1      -9.932   1.829  19.980  0.00  0.00    +0.000 HD
ENDBRANCH  51  54
BRANCH  52  58
ATOM     58  C   UNL     1     -11.034   4.915  17.783  0.00  0.00    +0.000 C 
ATOM     59  H   UNL     1     -11.941   5.513  17.945  0.00  0.00    +0.000 HD
ATOM     60  H   UNL     1     -10.459   5.011  18.709  0.00  0.00    +0.000 HD
BRANCH  58  61
ATOM     61  C   UNL     1     -10.266   5.404  16.580  0.00  0.00    +0.000 C 
ATOM     62  H   UNL     1     -10.671   4.991  15.651  0.00  0.00    +0.000 HD
ATOM     63  H   UNL     1     -10.327   6.496  16.491  0.00  0.00    +0.000 HD
BRANCH  61  64
ATOM     64  C   UNL     1      -8.846   4.981  16.731  0.00  0.00    +0.000 C 
ATOM     65  O   UNL     1      -8.268   4.165  16.031  0.00  0.00    +0.000 OA
BRANCH  64  66
ATOM     66  O   UNL     1      -8.251   5.524  17.805  0.00  0.00    +0.000 OA
ATOM     67  H   UNL     1      -8.632   5.039  18.565  0.00  0.00    +0.000 HD
ENDBRANCH  64  66
ENDBRANCH  61  64
ENDBRANCH  58  61
ENDBRANCH  52  58
ENDBRANCH   2  51
BRANCH   1  68
ATOM     68  O   UNL     1     -10.286  -0.299  18.781  0.00  0.00    +0.000 OA
BRANCH  68  69
ATOM     69  C   UNL     1     -10.216  -1.218  17.708  0.00  0.00    +0.000 C 
ATOM     70  H   UNL     1      -9.175  -1.396  17.433  0.00  0.00    +0.000 HD
ATOM     71  H   UNL     1     -10.713  -2.168  17.916  0.00  0.00    +0.000 HD
ATOM     72  H   UNL     1     -10.724  -0.759  16.853  0.00  0.00    +0.000 HD
ENDBRANCH  68  69
ENDBRANCH   1  68
TORSDOF 9
ENDMDL
MODEL 9
REMARK VINA RESULT:    -6.526      0.988      1.151
REMARK INTER + INTRA:         -10.107
REMARK INTER:                  -9.204
REMARK INTRA:                  -0.903
REMARK UNBOUND:                -0.911
REMARK  Name = 
REMARK  9 active torsions:
REMARK  status: ('A' for Active; 'I' for Inactive)
REMARK    1  A    between atoms: C_1  and  O_2
REMARK    2  A    between atoms: O_2  and  C_3
REMARK    3  A    between atoms: C_4  and  N_5
REMARK    4  A    between atoms: N_5  and  C_6
REMARK    5  A    between atoms: C_7  and  C_9
REMARK    6  A    between atoms: C_9  and  C_10
REMARK    7  A    between atoms: C_10  and  C_11
REMARK    8  A    between atoms: C_11  and  O_13
REMARK    9  A    between atoms: C_17  and  C_18
REMARK                            x       y       z     vdW  Elec       q    Type
REMARK                         _______ _______ _______ _____ _____    ______ ____
ROOT
ATOM      1  C   UNL     1     -12.814   3.826  17.433  0.00  0.00    +0.000 C 
ATOM      2  C   UNL     1     -13.502   3.581  16.041  0.00  0.00    +0.000 C 
ATOM      3  C   UNL     1     -12.515   3.155  14.955  0.00  0.00    +0.000 C 
ATOM      4  C   UNL     1     -11.541   2.103  15.427  0.00  0.00    +0.000 C 
ATOM      5  O   UNL     1     -10.811   2.617  16.535  0.00  0.00    +0.000 OA
ATOM      6  C   UNL     1     -11.574   2.894  17.738  0.00  0.00    +0.000 C 
ATOM      7  N   UNL     1     -11.805   1.636  18.444  0.00  0.00    +0.000 N 
ATOM      8  C   UNL     1     -11.807   1.347  19.841  0.00  0.00    +0.000 A 
ATOM      9  C   UNL     1     -12.305   2.051  20.951  0.00  0.00    +0.000 A 
ATOM     10  C   UNL     1     -11.926   1.630  22.236  0.00  0.00    +0.000 A 
ATOM     11  C   UNL     1     -11.014   0.594  22.420  0.00  0.00    +0.000 A 
ATOM     12  C   UNL     1     -10.678  -0.225  21.351  0.00  0.00    +0.000 A 
ATOM     13  C   UNL     1     -11.209   0.056  20.078  0.00  0.00    +0.000 A 
ATOM     14  C   UNL     1     -11.291  -0.646  18.881  0.00  0.00    +0.000 A 
ATOM     15  C   UNL     1     -11.353  -2.038  18.735  0.00  0.00    +0.000 A 
ATOM     16  C   UNL     1     -11.389  -2.485  17.392  0.00  0.00    +0.000 A 
ATOM     17  C   UNL     1     -11.495  -1.408  16.468  0.00  0.00    +0.000 A 
ATOM     18  C   UNL     1     -11.833  -1.517  15.104  0.00  0.00    +0.000 A 
ATOM     19  C   UNL     1     -11.818  -2.563  14.159  0.00  0.00    +0.000 A 
ATOM     20  C   UNL     1     -12.383  -2.380  12.897  0.00  0.00    +0.000 A 
ATOM     21  C   UNL     1     -13.013  -1.185  12.575  0.00  0.00    +0.000 A 
ATOM     22  C   UNL     1     -12.980  -0.091  13.447  0.00  0.00    +0.000 A 
ATOM     23  C   UNL     1     -12.321  -0.220  14.681  0.00  0.00    +0.000 A 
ATOM     24  N   UNL     1     -12.040   0.761  15.661  0.00  0.00    +0.000 N 
ATOM     25  C   UNL     1     -11.654  -0.042  16.673  0.00  0.00    +0.000 A 
ATOM     26  C   UNL     1     -11.546   0.388  17.983  0.00  0.00    +0.000 A 
ATOM     27  C   UNL     1     -11.623  -3.881  17.362  0.00  0.00    +0.000 C 
ATOM     28  O   UNL     1     -11.660  -4.724  16.477  0.00  0.00    +0.000 OA
ATOM     29  N   UNL     1     -11.933  -4.183  18.693  0.00  0.00    +0.000 N 
ATOM     30  C   UNL     1     -11.811  -3.080  19.644  0.00  0.00    +0.000 C 
ATOM     31  H   UNL     1     -12.381   4.832  17.316  0.00  0.00    +0.000 HD
ATOM     32  H   UNL     1     -13.826   4.587  15.731  0.00  0.00    +0.000 HD
ATOM     33  H   UNL     1     -11.919   4.041  14.692  0.00  0.00    +0.000 HD
ATOM     34  H   UNL     1     -13.000   2.838  14.034  0.00  0.00    +0.000 HD
ATOM     35  H   UNL     1     -10.793   1.974  14.638  0.00  0.00    +0.000 HD
ATOM     36  H   UNL     1     -12.999   2.876  20.826  0.00  0.00    +0.000 HD
ATOM     37  H   UNL     1     -12.326   2.138  23.110  0.00  0.00    +0.000 HD
ATOM     38  H   UNL     1     -10.603   0.386  23.403  0.00  0.00    +0.000 HD
ATOM     39  H   UNL     1      -9.994  -1.060  21.482  0.00  0.00    +0.000 HD
ATOM     40  H   UNL     1     -11.354  -3.515  14.401  0.00  0.00    +0.000 HD
ATOM     41  H   UNL     1     -12.350  -3.194  12.179  0.00  0.00    +0.000 HD
ATOM     42  H   UNL     1     -13.524  -1.096  11.621  0.00  0.00    +0.000 HD
ATOM     43  H   UNL     1     -13.493   0.825  13.172  0.00  0.00    +0.000 HD
ATOM     44  H   UNL     1     -12.569  -4.955  18.833  0.00  0.00    +0.000 HD
ATOM     45  H   UNL     1     -11.106  -3.336  20.432  0.00  0.00    +0.000 HD
ATOM     46  H   UNL     1     -12.809  -2.860  20.041  0.00  0.00    +0.000 HD
ENDROOT
BRANCH   6  47
ATOM     47  C   UNL     1     -10.551   3.727  18.559  0.00  0.00    +0.000 C 
ATOM     48  H   UNL     1     -11.034   4.602  19.014  0.00  0.00    +0.000 HD
ATOM     49  H   UNL     1     -10.160   3.139  19.397  0.00  0.00    +0.000 HD
ATOM     50  H   UNL     1      -9.703   4.069  17.959  0.00  0.00    +0.000 HD
ENDBRANCH   6  47
BRANCH   2  51
ATOM     51  N   UNL     1     -14.769   2.837  15.971  0.00  0.00    +0.000 N 
ATOM     52  C   UNL     1     -15.751   3.187  15.068  0.00  0.00    +0.000 C 
ATOM     53  O   UNL     1     -15.952   4.335  14.698  0.00  0.00    +0.000 OA
BRANCH  51  54
ATOM     54  C   UNL     1     -14.933   1.668  16.832  0.00  0.00    +0.000 C 
ATOM     55  H   UNL     1     -15.397   0.856  16.264  0.00  0.00    +0.000 HD
ATOM     56  H   UNL     1     -15.582   1.892  17.681  0.00  0.00    +0.000 HD
ATOM     57  H   UNL     1     -13.956   1.356  17.204  0.00  0.00    +0.000 HD
ENDBRANCH  51  54
BRANCH  52  58
ATOM     58  C   UNL     1     -16.541   2.066  14.455  0.00  0.00    +0.000 C 
ATOM     59  H   UNL     1     -16.165   1.927  13.432  0.00  0.00    +0.000 HD
ATOM     60  H   UNL     1     -16.375   1.106  14.953  0.00  0.00    +0.000 HD
BRANCH  58  61
ATOM     61  C   UNL     1     -17.996   2.464  14.451  0.00  0.00    +0.000 C 
ATOM     62  H   UNL     1     -18.192   3.272  15.163  0.00  0.00    +0.000 HD
ATOM     63  H   UNL     1     -18.300   2.833  13.464  0.00  0.00    +0.000 HD
BRANCH  61  64
ATOM     64  C   UNL     1     -18.806   1.270  14.825  0.00  0.00    +0.000 C 
ATOM     65  O   UNL     1     -19.300   1.060  15.920  0.00  0.00    +0.000 OA
BRANCH  64  66
ATOM     66  O   UNL     1     -18.873   0.358  13.842  0.00  0.00    +0.000 OA
ATOM     67  H   UNL     1     -18.411  -0.424  14.203  0.00  0.00    +0.000 HD
ENDBRANCH  64  66
ENDBRANCH  61  64
ENDBRANCH  58  61
ENDBRANCH  52  58
ENDBRANCH   2  51
BRANCH   1  68
ATOM     68  O   UNL     1     -13.685   3.930  18.570  0.00  0.00    +0.000 OA
BRANCH  68  69
ATOM     69  C   UNL     1     -14.105   5.221  18.968  0.00  0.00    +0.000 C 
ATOM     70  H   UNL     1     -14.143   5.886  18.105  0.00  0.00    +0.000 HD
ATOM     71  H   UNL     1     -15.067   5.225  19.483  0.00  0.00    +0.000 HD
ATOM     72  H   UNL     1     -13.354   5.605  19.666  0.00  0.00    +0.000 HD
ENDBRANCH  68  69
ENDBRANCH   1  68
TORSDOF 9
ENDMDL
