MODEL 1
REMARK VINA RESULT:   -10.204      0.000      0.000
REMARK INTER + INTRA:         -15.596
REMARK INTER:                 -14.976
REMARK INTRA:                  -0.620
REMARK UNBOUND:                -0.620
REMARK  Name = 
REMARK  8 active torsions:
REMARK  status: ('A' for Active; 'I' for Inactive)
REMARK    1  A    between atoms: S_2  and  N_4
REMARK    2  A    between atoms: S_2  and  C_18
REMARK    3  A    between atoms: N_4  and  C_5
REMARK    4  A    between atoms: C_5  and  C_6
REMARK    5  A    between atoms: C_6  and  N_7
REMARK    6  A    between atoms: N_7  and  C_8
REMARK    7  A    between atoms: C_8  and  C_9
REMARK    8  A    between atoms: C_10  and  C_11
REMARK                            x       y       z     vdW  Elec       q    Type
REMARK                         _______ _______ _______ _____ _____    ______ ____
ROOT
ATOM      1  C   UNL     1     -10.575  -4.915  17.957  0.00  0.00    +0.000 C 
ATOM      2  H   UNL     1     -11.172  -4.101  18.372  0.00  0.00    +0.000 HD
ATOM      3  H   UNL     1     -10.894  -5.862  18.398  0.00  0.00    +0.000 HD
ENDROOT
BRANCH   1   4
ATOM      4  C   UNL     1     -10.794  -4.979  16.436  0.00  0.00    +0.000 C 
ATOM      5  H   UNL     1      -9.848  -4.748  15.929  0.00  0.00    +0.000 HD
ATOM      6  H   UNL     1     -11.503  -4.209  16.110  0.00  0.00    +0.000 HD
BRANCH   4   7
ATOM      7  N   UNL     1     -11.240  -6.303  15.973  0.00  0.00    +0.000 NA
ATOM      8  H   UNL     1     -10.571  -6.676  15.300  0.00  0.00    +0.000 HD
BRANCH   7   9
ATOM      9  C   UNL     1     -11.369  -7.246  17.083  0.00  0.00    +0.000 C 
ATOM     10  H   UNL     1     -12.406  -7.274  17.435  0.00  0.00    +0.000 HD
ATOM     11  H   UNL     1     -10.738  -6.960  17.929  0.00  0.00    +0.000 HD
BRANCH   9  12
ATOM     12  C   UNL     1     -10.971  -8.615  16.645  0.00  0.00    +0.000 C 
ATOM     13  C   UNL     1      -9.740  -9.119  16.842  0.00  0.00    +0.000 C 
ATOM     14  H   UNL     1     -11.759  -9.210  16.194  0.00  0.00    +0.000 HD
ATOM     15  H   UNL     1      -8.976  -8.518  17.328  0.00  0.00    +0.000 HD
BRANCH  13  16
ATOM     16  C   UNL     1      -9.344 -10.485  16.483  0.00  0.00    +0.000 A 
ATOM     17  C   UNL     1      -9.175 -10.885  15.151  0.00  0.00    +0.000 A 
ATOM     18  C   UNL     1      -8.812 -12.198  14.841  0.00  0.00    +0.000 A 
ATOM     19  C   UNL     1      -8.597 -13.113  15.868  0.00  0.00    +0.000 A 
ATOM     20 BR   UNL     1      -8.123 -14.893  15.448  0.00  0.00    +0.000 Br
ATOM     21  C   UNL     1      -8.729 -12.725  17.199  0.00  0.00    +0.000 A 
ATOM     22  C   UNL     1      -9.097 -11.412  17.505  0.00  0.00    +0.000 A 
ATOM     23  H   UNL     1      -9.322 -10.181  14.337  0.00  0.00    +0.000 HD
ATOM     24  H   UNL     1      -8.704 -12.489  13.801  0.00  0.00    +0.000 HD
ATOM     25  H   UNL     1      -8.555 -13.435  18.003  0.00  0.00    +0.000 HD
ATOM     26  H   UNL     1      -9.205 -11.127  18.549  0.00  0.00    +0.000 HD
ENDBRANCH  13  16
ENDBRANCH   9  12
ENDBRANCH   7   9
ENDBRANCH   4   7
ENDBRANCH   1   4
BRANCH   1  27
ATOM     27  N   UNL     1      -9.175  -4.646  18.303  0.00  0.00    +0.000 NA
ATOM     28  H   UNL     1      -8.678  -3.985  17.704  0.00  0.00    +0.000 HD
BRANCH  27  30
ATOM     29  O   UNL     1      -9.022  -6.807  19.573  0.00  0.00    +0.000 OA
ATOM     30  S   UNL     1      -8.223  -6.000  18.675  0.00  0.00    +0.000 S 
ATOM     31  O   UNL     1      -7.697  -6.552  17.447  0.00  0.00    +0.000 OA
BRANCH  30  32
ATOM     32  C   UNL     1      -6.902  -5.270  19.636  0.00  0.00    +0.000 A 
ATOM     33  C   UNL     1      -5.609  -5.707  19.292  0.00  0.00    +0.000 A 
ATOM     34  C   UNL     1      -4.496  -5.216  19.959  0.00  0.00    +0.000 A 
ATOM     35  C   UNL     1      -4.664  -4.284  20.976  0.00  0.00    +0.000 A 
ATOM     36  C   UNL     1      -5.944  -3.827  21.332  0.00  0.00    +0.000 A 
ATOM     37  C   UNL     1      -6.090  -2.889  22.358  0.00  0.00    +0.000 A 
ATOM     38  N   UNL     1      -7.268  -2.388  22.784  0.00  0.00    +0.000 NA
ATOM     39  C   UNL     1      -8.363  -2.833  22.150  0.00  0.00    +0.000 A 
ATOM     40  C   UNL     1      -8.336  -3.764  21.119  0.00  0.00    +0.000 A 
ATOM     41  C   UNL     1      -7.104  -4.301  20.669  0.00  0.00    +0.000 A 
ATOM     42  H   UNL     1      -5.458  -6.430  18.491  0.00  0.00    +0.000 HD
ATOM     43  H   UNL     1      -3.500  -5.554  19.683  0.00  0.00    +0.000 HD
ATOM     44  H   UNL     1      -3.781  -3.908  21.488  0.00  0.00    +0.000 HD
ATOM     45  H   UNL     1      -5.225  -2.497  22.889  0.00  0.00    +0.000 HD
ATOM     46  H   UNL     1      -9.303  -2.410  22.498  0.00  0.00    +0.000 HD
ATOM     47  H   UNL     1      -9.290  -4.046  20.688  0.00  0.00    +0.000 HD
ENDBRANCH  30  32
ENDBRANCH  27  30
ENDBRANCH   1  27
TORSDOF 8
ENDMDL
MODEL 2
REMARK VINA RESULT:   -10.108      4.288      9.373
REMARK INTER + INTRA:         -15.456
REMARK INTER:                 -14.625
REMARK INTRA:                  -0.831
REMARK UNBOUND:                -0.620
REMARK  Name = 
REMARK  8 active torsions:
REMARK  status: ('A' for Active; 'I' for Inactive)
REMARK    1  A    between atoms: S_2  and  N_4
REMARK    2  A    between atoms: S_2  and  C_18
REMARK    3  A    between atoms: N_4  and  C_5
REMARK    4  A    between atoms: C_5  and  C_6
REMARK    5  A    between atoms: C_6  and  N_7
REMARK    6  A    between atoms: N_7  and  C_8
REMARK    7  A    between atoms: C_8  and  C_9
REMARK    8  A    between atoms: C_10  and  C_11
REMARK                            x       y       z     vdW  Elec       q    Type
REMARK                         _______ _______ _______ _____ _____    ______ ____
ROOT
ATOM      1  C   UNL     1     -10.261  -5.273  18.416  0.00  0.00    +0.000 C 
ATOM      2  H   UNL     1     -11.105  -5.051  19.073  0.00  0.00    +0.000 HD
ATOM      3  H   UNL     1     -10.530  -5.034  17.385  0.00  0.00    +0.000 HD
ENDROOT
BRANCH   1   4
ATOM      4  C   UNL     1      -9.059  -4.406  18.828  0.00  0.00    +0.000 C 
ATOM      5  H   UNL     1      -9.233  -4.009  19.836  0.00  0.00    +0.000 HD
ATOM      6  H   UNL     1      -8.965  -3.532  18.174  0.00  0.00    +0.000 HD
BRANCH   4   7
ATOM      7  N   UNL     1      -7.791  -5.155  18.853  0.00  0.00    +0.000 NA
ATOM      8  H   UNL     1      -7.106  -4.692  18.255  0.00  0.00    +0.000 HD
BRANCH   7   9
ATOM      9  C   UNL     1      -7.250  -5.252  20.207  0.00  0.00    +0.000 C 
ATOM     10  H   UNL     1      -6.162  -5.374  20.170  0.00  0.00    +0.000 HD
ATOM     11  H   UNL     1      -7.663  -6.109  20.745  0.00  0.00    +0.000 HD
BRANCH   9  12
ATOM     12  C   UNL     1      -7.570  -4.016  20.979  0.00  0.00    +0.000 C 
ATOM     13  C   UNL     1      -7.917  -4.034  22.278  0.00  0.00    +0.000 C 
ATOM     14  H   UNL     1      -7.458  -3.082  20.437  0.00  0.00    +0.000 HD
ATOM     15  H   UNL     1      -7.990  -4.978  22.811  0.00  0.00    +0.000 HD
BRANCH  13  16
ATOM     16  C   UNL     1      -8.170  -2.829  23.077  0.00  0.00    +0.000 A 
ATOM     17  C   UNL     1      -8.894  -2.870  24.276  0.00  0.00    +0.000 A 
ATOM     18  C   UNL     1      -9.131  -1.703  25.006  0.00  0.00    +0.000 A 
ATOM     19  C   UNL     1      -8.625  -0.490  24.548  0.00  0.00    +0.000 A 
ATOM     20 BR   UNL     1      -8.962   1.090  25.527  0.00  0.00    +0.000 Br
ATOM     21  C   UNL     1      -7.877  -0.435  23.375  0.00  0.00    +0.000 A 
ATOM     22  C   UNL     1      -7.646  -1.604  22.645  0.00  0.00    +0.000 A 
ATOM     23  H   UNL     1      -9.283  -3.811  24.658  0.00  0.00    +0.000 HD
ATOM     24  H   UNL     1      -9.710  -1.757  25.923  0.00  0.00    +0.000 HD
ATOM     25  H   UNL     1      -7.474   0.509  23.018  0.00  0.00    +0.000 HD
ATOM     26  H   UNL     1      -7.066  -1.543  21.726  0.00  0.00    +0.000 HD
ENDBRANCH  13  16
ENDBRANCH   9  12
ENDBRANCH   7   9
ENDBRANCH   4   7
ENDBRANCH   1   4
BRANCH   1  27
ATOM     27  N   UNL     1      -9.979  -6.706  18.543  0.00  0.00    +0.000 NA
ATOM     28  H   UNL     1      -9.292  -6.974  19.251  0.00  0.00    +0.000 HD
BRANCH  27  30
ATOM     29  O   UNL     1     -11.076  -7.739  16.535  0.00  0.00    +0.000 OA
ATOM     30  S   UNL     1      -9.753  -7.555  17.092  0.00  0.00    +0.000 S 
ATOM     31  O   UNL     1      -8.708  -6.908  16.331  0.00  0.00    +0.000 OA
BRANCH  30  32
ATOM     32  C   UNL     1      -9.189  -9.149  17.680  0.00  0.00    +0.000 A 
ATOM     33  C   UNL     1      -8.904  -9.205  19.057  0.00  0.00    +0.000 A 
ATOM     34  C   UNL     1      -8.462 -10.383  19.640  0.00  0.00    +0.000 A 
ATOM     35  C   UNL     1      -8.300 -11.517  18.853  0.00  0.00    +0.000 A 
ATOM     36  C   UNL     1      -8.586 -11.488  17.478  0.00  0.00    +0.000 A 
ATOM     37  C   UNL     1      -8.416 -12.640  16.705  0.00  0.00    +0.000 A 
ATOM     38  N   UNL     1      -8.654 -12.723  15.380  0.00  0.00    +0.000 NA
ATOM     39  C   UNL     1      -9.096 -11.603  14.788  0.00  0.00    +0.000 A 
ATOM     40  C   UNL     1      -9.299 -10.402  15.457  0.00  0.00    +0.000 A 
ATOM     41  C   UNL     1      -9.045 -10.304  16.848  0.00  0.00    +0.000 A 
ATOM     42  H   UNL     1      -9.034  -8.328  19.691  0.00  0.00    +0.000 HD
ATOM     43  H   UNL     1      -8.250 -10.420  20.706  0.00  0.00    +0.000 HD
ATOM     44  H   UNL     1      -7.954 -12.434  19.326  0.00  0.00    +0.000 HD
ATOM     45  H   UNL     1      -8.069 -13.570  17.151  0.00  0.00    +0.000 HD
ATOM     46  H   UNL     1      -9.293 -11.690  13.722  0.00  0.00    +0.000 HD
ATOM     47  H   UNL     1      -9.657  -9.567  14.867  0.00  0.00    +0.000 HD
ENDBRANCH  30  32
ENDBRANCH  27  30
ENDBRANCH   1  27
TORSDOF 8
ENDMDL
MODEL 3
REMARK VINA RESULT:   -10.015      4.303      9.518
REMARK INTER + INTRA:         -15.318
REMARK INTER:                 -14.587
REMARK INTRA:                  -0.731
REMARK UNBOUND:                -0.620
REMARK  Name = 
REMARK  8 active torsions:
REMARK  status: ('A' for Active; 'I' for Inactive)
REMARK    1  A    between atoms: S_2  and  N_4
REMARK    2  A    between atoms: S_2  and  C_18
REMARK    3  A    between atoms: N_4  and  C_5
REMARK    4  A    between atoms: C_5  and  C_6
REMARK    5  A    between atoms: C_6  and  N_7
REMARK    6  A    between atoms: N_7  and  C_8
REMARK    7  A    between atoms: C_8  and  C_9
REMARK    8  A    between atoms: C_10  and  C_11
REMARK                            x       y       z     vdW  Elec       q    Type
REMARK                         _______ _______ _______ _____ _____    ______ ____
ROOT
ATOM      1  C   UNL     1      -9.788  -5.336  17.625  0.00  0.00    +0.000 C 
ATOM      2  H   UNL     1     -10.791  -5.633  17.937  0.00  0.00    +0.000 HD
ATOM      3  H   UNL     1      -9.859  -4.624  16.799  0.00  0.00    +0.000 HD
ENDROOT
BRANCH   1   4
ATOM      4  C   UNL     1      -9.073  -4.655  18.804  0.00  0.00    +0.000 C 
ATOM      5  H   UNL     1      -9.570  -4.945  19.739  0.00  0.00    +0.000 HD
ATOM      6  H   UNL     1      -9.168  -3.565  18.742  0.00  0.00    +0.000 HD
BRANCH   4   7
ATOM      7  N   UNL     1      -7.654  -5.032  18.912  0.00  0.00    +0.000 NA
ATOM      8  H   UNL     1      -7.072  -4.310  18.485  0.00  0.00    +0.000 HD
BRANCH   7   9
ATOM      9  C   UNL     1      -7.247  -5.204  20.306  0.00  0.00    +0.000 C 
ATOM     10  H   UNL     1      -6.181  -5.447  20.360  0.00  0.00    +0.000 HD
ATOM     11  H   UNL     1      -7.799  -6.016  20.788  0.00  0.00    +0.000 HD
BRANCH   9  12
ATOM     12  C   UNL     1      -7.496  -3.949  21.073  0.00  0.00    +0.000 C 
ATOM     13  C   UNL     1      -8.109  -3.931  22.270  0.00  0.00    +0.000 C 
ATOM     14  H   UNL     1      -7.103  -3.041  20.626  0.00  0.00    +0.000 HD
ATOM     15  H   UNL     1      -8.463  -4.857  22.715  0.00  0.00    +0.000 HD
BRANCH  13  16
ATOM     16  C   UNL     1      -8.304  -2.720  23.075  0.00  0.00    +0.000 A 
ATOM     17  C   UNL     1      -9.063  -2.724  24.253  0.00  0.00    +0.000 A 
ATOM     18  C   UNL     1      -9.243  -1.551  24.989  0.00  0.00    +0.000 A 
ATOM     19  C   UNL     1      -8.644  -0.370  24.560  0.00  0.00    +0.000 A 
ATOM     20 BR   UNL     1      -8.903   1.220  25.546  0.00  0.00    +0.000 Br
ATOM     21  C   UNL     1      -7.860  -0.354  23.409  0.00  0.00    +0.000 A 
ATOM     22  C   UNL     1      -7.687  -1.529  22.672  0.00  0.00    +0.000 A 
ATOM     23  H   UNL     1      -9.525  -3.640  24.613  0.00  0.00    +0.000 HD
ATOM     24  H   UNL     1      -9.851  -1.575  25.889  0.00  0.00    +0.000 HD
ATOM     25  H   UNL     1      -7.385   0.565  23.074  0.00  0.00    +0.000 HD
ATOM     26  H   UNL     1      -7.078  -1.497  21.771  0.00  0.00    +0.000 HD
ENDBRANCH  13  16
ENDBRANCH   9  12
ENDBRANCH   7   9
ENDBRANCH   4   7
ENDBRANCH   1   4
BRANCH   1  27
ATOM     27  N   UNL     1      -9.094  -6.550  17.184  0.00  0.00    +0.000 NA
ATOM     28  H   UNL     1      -9.021  -6.692  16.176  0.00  0.00    +0.000 HD
BRANCH  27  30
ATOM     29  O   UNL     1      -8.514  -8.140  19.040  0.00  0.00    +0.000 OA
ATOM     30  S   UNL     1      -9.504  -7.982  17.995  0.00  0.00    +0.000 S 
ATOM     31  O   UNL     1     -10.916  -7.954  18.306  0.00  0.00    +0.000 OA
BRANCH  30  32
ATOM     32  C   UNL     1      -9.175  -9.222  16.748  0.00  0.00    +0.000 A 
ATOM     33  C   UNL     1      -9.192  -8.747  15.422  0.00  0.00    +0.000 A 
ATOM     34  C   UNL     1      -8.949  -9.606  14.361  0.00  0.00    +0.000 A 
ATOM     35  C   UNL     1      -8.684 -10.946  14.612  0.00  0.00    +0.000 A 
ATOM     36  C   UNL     1      -8.653 -11.442  15.927  0.00  0.00    +0.000 A 
ATOM     37  C   UNL     1      -8.385 -12.794  16.156  0.00  0.00    +0.000 A 
ATOM     38  N   UNL     1      -8.337 -13.376  17.373  0.00  0.00    +0.000 NA
ATOM     39  C   UNL     1      -8.555 -12.569  18.423  0.00  0.00    +0.000 A 
ATOM     40  C   UNL     1      -8.832 -11.213  18.311  0.00  0.00    +0.000 A 
ATOM     41  C   UNL     1      -8.892 -10.594  17.037  0.00  0.00    +0.000 A 
ATOM     42  H   UNL     1      -9.388  -7.697  15.208  0.00  0.00    +0.000 HD
ATOM     43  H   UNL     1      -8.958  -9.230  13.340  0.00  0.00    +0.000 HD
ATOM     44  H   UNL     1      -8.493 -11.607  13.768  0.00  0.00    +0.000 HD
ATOM     45  H   UNL     1      -8.193 -13.478  15.332  0.00  0.00    +0.000 HD
ATOM     46  H   UNL     1      -8.501 -13.052  19.395  0.00  0.00    +0.000 HD
ATOM     47  H   UNL     1      -8.992 -10.667  19.234  0.00  0.00    +0.000 HD
ENDBRANCH  30  32
ENDBRANCH  27  30
ENDBRANCH   1  27
TORSDOF 8
ENDMDL
MODEL 4
REMARK VINA RESULT:    -9.963      3.975      9.291
REMARK INTER + INTRA:         -15.242
REMARK INTER:                 -15.152
REMARK INTRA:                  -0.090
REMARK UNBOUND:                -0.620
REMARK  Name = 
REMARK  8 active torsions:
REMARK  status: ('A' for Active; 'I' for Inactive)
REMARK    1  A    between atoms: S_2  and  N_4
REMARK    2  A    between atoms: S_2  and  C_18
REMARK    3  A    between atoms: N_4  and  C_5
REMARK    4  A    between atoms: C_5  and  C_6
REMARK    5  A    between atoms: C_6  and  N_7
REMARK    6  A    between atoms: N_7  and  C_8
REMARK    7  A    between atoms: C_8  and  C_9
REMARK    8  A    between atoms: C_10  and  C_11
REMARK                            x       y       z     vdW  Elec       q    Type
REMARK                         _______ _______ _______ _____ _____    ______ ____
ROOT
ATOM      1  C   UNL     1      -8.006  -5.963  18.523  0.00  0.00    +0.000 C 
ATOM      2  H   UNL     1      -8.887  -5.918  19.166  0.00  0.00    +0.000 HD
ATOM      3  H   UNL     1      -7.889  -5.012  17.999  0.00  0.00    +0.000 HD
ENDROOT
BRANCH   1   4
ATOM      4  C   UNL     1      -6.759  -6.208  19.389  0.00  0.00    +0.000 C 
ATOM      5  H   UNL     1      -6.565  -7.288  19.438  0.00  0.00    +0.000 HD
ATOM      6  H   UNL     1      -6.932  -5.888  20.423  0.00  0.00    +0.000 HD
BRANCH   4   7
ATOM      7  N   UNL     1      -5.551  -5.558  18.856  0.00  0.00    +0.000 NA
ATOM      8  H   UNL     1      -5.817  -4.815  18.208  0.00  0.00    +0.000 HD
BRANCH   7   9
ATOM      9  C   UNL     1      -4.733  -4.983  19.923  0.00  0.00    +0.000 C 
ATOM     10  H   UNL     1      -4.222  -4.084  19.563  0.00  0.00    +0.000 HD
ATOM     11  H   UNL     1      -3.969  -5.686  20.266  0.00  0.00    +0.000 HD
BRANCH   9  12
ATOM     12  C   UNL     1      -5.590  -4.617  21.088  0.00  0.00    +0.000 C 
ATOM     13  C   UNL     1      -5.884  -3.346  21.411  0.00  0.00    +0.000 C 
ATOM     14  H   UNL     1      -6.012  -5.452  21.640  0.00  0.00    +0.000 HD
ATOM     15  H   UNL     1      -5.480  -2.526  20.822  0.00  0.00    +0.000 HD
BRANCH  13  16
ATOM     16  C   UNL     1      -6.779  -2.962  22.508  0.00  0.00    +0.000 A 
ATOM     17  C   UNL     1      -7.255  -1.653  22.657  0.00  0.00    +0.000 A 
ATOM     18  C   UNL     1      -8.094  -1.316  23.722  0.00  0.00    +0.000 A 
ATOM     19  C   UNL     1      -8.477  -2.296  24.633  0.00  0.00    +0.000 A 
ATOM     20 BR   UNL     1      -9.597  -1.836  26.083  0.00  0.00    +0.000 Br
ATOM     21  C   UNL     1      -8.040  -3.609  24.482  0.00  0.00    +0.000 A 
ATOM     22  C   UNL     1      -7.197  -3.942  23.419  0.00  0.00    +0.000 A 
ATOM     23  H   UNL     1      -6.980  -0.877  21.947  0.00  0.00    +0.000 HD
ATOM     24  H   UNL     1      -8.435  -0.290  23.827  0.00  0.00    +0.000 HD
ATOM     25  H   UNL     1      -8.343  -4.379  25.188  0.00  0.00    +0.000 HD
ATOM     26  H   UNL     1      -6.857  -4.971  23.320  0.00  0.00    +0.000 HD
ENDBRANCH  13  16
ENDBRANCH   9  12
ENDBRANCH   7   9
ENDBRANCH   4   7
ENDBRANCH   1   4
BRANCH   1  27
ATOM     27  N   UNL     1      -8.230  -7.045  17.558  0.00  0.00    +0.000 NA
ATOM     28  H   UNL     1      -8.226  -6.782  16.571  0.00  0.00    +0.000 HD
BRANCH  27  30
ATOM     29  O   UNL     1      -9.178  -8.667  19.223  0.00  0.00    +0.000 OA
ATOM     30  S   UNL     1      -9.490  -8.120  17.919  0.00  0.00    +0.000 S 
ATOM     31  O   UNL     1     -10.752  -7.461  17.671  0.00  0.00    +0.000 OA
BRANCH  30  32
ATOM     32  C   UNL     1      -9.227  -9.417  16.714  0.00  0.00    +0.000 A 
ATOM     33  C   UNL     1      -9.324  -9.005  15.371  0.00  0.00    +0.000 A 
ATOM     34  C   UNL     1      -9.137  -9.913  14.339  0.00  0.00    +0.000 A 
ATOM     35  C   UNL     1      -8.852 -11.239  14.637  0.00  0.00    +0.000 A 
ATOM     36  C   UNL     1      -8.742 -11.672  15.969  0.00  0.00    +0.000 A 
ATOM     37  C   UNL     1      -8.454 -13.011  16.246  0.00  0.00    +0.000 A 
ATOM     38  N   UNL     1      -8.332 -13.535  17.484  0.00  0.00    +0.000 NA
ATOM     39  C   UNL     1      -8.494 -12.680  18.506  0.00  0.00    +0.000 A 
ATOM     40  C   UNL     1      -8.783 -11.331  18.347  0.00  0.00    +0.000 A 
ATOM     41  C   UNL     1      -8.920 -10.773  17.051  0.00  0.00    +0.000 A 
ATOM     42  H   UNL     1      -9.537  -7.967  15.119  0.00  0.00    +0.000 HD
ATOM     43  H   UNL     1      -9.208  -9.586  13.304  0.00  0.00    +0.000 HD
ATOM     44  H   UNL     1      -8.707 -11.938  13.816  0.00  0.00    +0.000 HD
ATOM     45  H   UNL     1      -8.306 -13.733  15.445  0.00  0.00    +0.000 HD
ATOM     46  H   UNL     1      -8.381 -13.116  19.495  0.00  0.00    +0.000 HD
ATOM     47  H   UNL     1      -8.893 -10.743  19.251  0.00  0.00    +0.000 HD
ENDBRANCH  30  32
ENDBRANCH  27  30
ENDBRANCH   1  27
TORSDOF 8
ENDMDL
MODEL 5
REMARK VINA RESULT:    -9.841      3.292      4.758
REMARK INTER + INTRA:         -15.064
REMARK INTER:                 -14.535
REMARK INTRA:                  -0.529
REMARK UNBOUND:                -0.620
REMARK  Name = 
REMARK  8 active torsions:
REMARK  status: ('A' for Active; 'I' for Inactive)
REMARK    1  A    between atoms: S_2  and  N_4
REMARK    2  A    between atoms: S_2  and  C_18
REMARK    3  A    between atoms: N_4  and  C_5
REMARK    4  A    between atoms: C_5  and  C_6
REMARK    5  A    between atoms: C_6  and  N_7
REMARK    6  A    between atoms: N_7  and  C_8
REMARK    7  A    between atoms: C_8  and  C_9
REMARK    8  A    between atoms: C_10  and  C_11
REMARK                            x       y       z     vdW  Elec       q    Type
REMARK                         _______ _______ _______ _____ _____    ______ ____
ROOT
ATOM      1  C   UNL     1      -7.250  -4.444  20.910  0.00  0.00    +0.000 C 
ATOM      2  H   UNL     1      -6.609  -5.082  21.522  0.00  0.00    +0.000 HD
ATOM      3  H   UNL     1      -6.667  -3.603  20.527  0.00  0.00    +0.000 HD
ENDROOT
BRANCH   1   4
ATOM      4  C   UNL     1      -7.784  -5.258  19.719  0.00  0.00    +0.000 C 
ATOM      5  H   UNL     1      -7.273  -4.930  18.804  0.00  0.00    +0.000 HD
ATOM      6  H   UNL     1      -8.849  -5.056  19.554  0.00  0.00    +0.000 HD
BRANCH   4   7
ATOM      7  N   UNL     1      -7.562  -6.706  19.864  0.00  0.00    +0.000 NA
ATOM      8  H   UNL     1      -7.051  -6.890  20.728  0.00  0.00    +0.000 HD
BRANCH   7   9
ATOM      9  C   UNL     1      -8.823  -7.444  19.893  0.00  0.00    +0.000 C 
ATOM     10  H   UNL     1      -9.610  -6.864  19.398  0.00  0.00    +0.000 HD
ATOM     11  H   UNL     1      -9.149  -7.642  20.917  0.00  0.00    +0.000 HD
BRANCH   9  12
ATOM     12  C   UNL     1      -8.671  -8.750  19.189  0.00  0.00    +0.000 C 
ATOM     13  C   UNL     1      -9.299  -9.038  18.035  0.00  0.00    +0.000 C 
ATOM     14  H   UNL     1      -7.974  -9.449  19.642  0.00  0.00    +0.000 HD
ATOM     15  H   UNL     1      -9.966  -8.311  17.580  0.00  0.00    +0.000 HD
BRANCH  13  16
ATOM     16  C   UNL     1      -9.113 -10.287  17.288  0.00  0.00    +0.000 A 
ATOM     17  C   UNL     1      -9.292 -10.358  15.900  0.00  0.00    +0.000 A 
ATOM     18  C   UNL     1      -9.123 -11.566  15.220  0.00  0.00    +0.000 A 
ATOM     19  C   UNL     1      -8.752 -12.707  15.925  0.00  0.00    +0.000 A 
ATOM     20 BR   UNL     1      -8.540 -14.344  15.007  0.00  0.00    +0.000 Br
ATOM     21  C   UNL     1      -8.538 -12.649  17.300  0.00  0.00    +0.000 A 
ATOM     22  C   UNL     1      -8.714 -11.440  17.978  0.00  0.00    +0.000 A 
ATOM     23  H   UNL     1      -9.566  -9.474  15.330  0.00  0.00    +0.000 HD
ATOM     24  H   UNL     1      -9.285 -11.600  14.147  0.00  0.00    +0.000 HD
ATOM     25  H   UNL     1      -8.242 -13.536  17.854  0.00  0.00    +0.000 HD
ATOM     26  H   UNL     1      -8.551 -11.413  19.054  0.00  0.00    +0.000 HD
ENDBRANCH  13  16
ENDBRANCH   9  12
ENDBRANCH   7   9
ENDBRANCH   4   7
ENDBRANCH   1   4
BRANCH   1  27
ATOM     27  N   UNL     1      -8.329  -3.957  21.775  0.00  0.00    +0.000 NA
ATOM     28  H   UNL     1      -9.226  -3.771  21.322  0.00  0.00    +0.000 HD
BRANCH  27  30
ATOM     29  O   UNL     1      -8.171  -3.285  24.189  0.00  0.00    +0.000 OA
ATOM     30  S   UNL     1      -7.912  -2.735  22.875  0.00  0.00    +0.000 S 
ATOM     31  O   UNL     1      -6.606  -2.221  22.528  0.00  0.00    +0.000 OA
BRANCH  30  32
ATOM     32  C   UNL     1      -9.166  -1.500  22.550  0.00  0.00    +0.000 A 
ATOM     33  C   UNL     1     -10.095  -1.849  21.552  0.00  0.00    +0.000 A 
ATOM     34  C   UNL     1     -11.120  -0.981  21.207  0.00  0.00    +0.000 A 
ATOM     35  C   UNL     1     -11.228   0.243  21.855  0.00  0.00    +0.000 A 
ATOM     36  C   UNL     1     -10.317   0.610  22.860  0.00  0.00    +0.000 A 
ATOM     37  C   UNL     1     -10.443   1.847  23.499  0.00  0.00    +0.000 A 
ATOM     38  N   UNL     1      -9.624   2.302  24.469  0.00  0.00    +0.000 NA
ATOM     39  C   UNL     1      -8.629   1.480  24.836  0.00  0.00    +0.000 A 
ATOM     40  C   UNL     1      -8.409   0.231  24.269  0.00  0.00    +0.000 A 
ATOM     41  C   UNL     1      -9.260  -0.253  23.244  0.00  0.00    +0.000 A 
ATOM     42  H   UNL     1     -10.032  -2.809  21.041  0.00  0.00    +0.000 HD
ATOM     43  H   UNL     1     -11.839  -1.260  20.439  0.00  0.00    +0.000 HD
ATOM     44  H   UNL     1     -12.038   0.912  21.574  0.00  0.00    +0.000 HD
ATOM     45  H   UNL     1     -11.243   2.537  23.237  0.00  0.00    +0.000 HD
ATOM     46  H   UNL     1      -7.985   1.857  25.627  0.00  0.00    +0.000 HD
ATOM     47  H   UNL     1      -7.569  -0.340  24.650  0.00  0.00    +0.000 HD
ENDBRANCH  30  32
ENDBRANCH  27  30
ENDBRANCH   1  27
TORSDOF 8
ENDMDL
MODEL 6
REMARK VINA RESULT:    -9.772      2.315      2.874
REMARK INTER + INTRA:         -14.963
REMARK INTER:                 -14.355
REMARK INTRA:                  -0.608
REMARK UNBOUND:                -0.620
REMARK  Name = 
REMARK  8 active torsions:
REMARK  status: ('A' for Active; 'I' for Inactive)
REMARK    1  A    between atoms: S_2  and  N_4
REMARK    2  A    between atoms: S_2  and  C_18
REMARK    3  A    between atoms: N_4  and  C_5
REMARK    4  A    between atoms: C_5  and  C_6
REMARK    5  A    between atoms: C_6  and  N_7
REMARK    6  A    between atoms: N_7  and  C_8
REMARK    7  A    between atoms: C_8  and  C_9
REMARK    8  A    between atoms: C_10  and  C_11
REMARK                            x       y       z     vdW  Elec       q    Type
REMARK                         _______ _______ _______ _____ _____    ______ ____
ROOT
ATOM      1  C   UNL     1     -10.391  -4.136  17.497  0.00  0.00    +0.000 C 
ATOM      2  H   UNL     1     -10.192  -3.769  16.487  0.00  0.00    +0.000 HD
ATOM      3  H   UNL     1     -11.371  -3.784  17.826  0.00  0.00    +0.000 HD
ENDROOT
BRANCH   1   4
ATOM      4  C   UNL     1     -10.396  -5.674  17.484  0.00  0.00    +0.000 C 
ATOM      5  H   UNL     1      -9.445  -6.031  17.067  0.00  0.00    +0.000 HD
ATOM      6  H   UNL     1     -11.177  -6.057  16.816  0.00  0.00    +0.000 HD
BRANCH   4   7
ATOM      7  N   UNL     1     -10.548  -6.260  18.826  0.00  0.00    +0.000 NA
ATOM      8  H   UNL     1     -11.393  -6.832  18.858  0.00  0.00    +0.000 HD
BRANCH   7   9
ATOM      9  C   UNL     1      -9.401  -7.093  19.182  0.00  0.00    +0.000 C 
ATOM     10  H   UNL     1      -9.513  -7.472  20.203  0.00  0.00    +0.000 HD
ATOM     11  H   UNL     1      -8.465  -6.529  19.137  0.00  0.00    +0.000 HD
BRANCH   9  12
ATOM     12  C   UNL     1      -9.294  -8.251  18.247  0.00  0.00    +0.000 C 
ATOM     13  C   UNL     1      -8.866  -9.466  18.631  0.00  0.00    +0.000 C 
ATOM     14  H   UNL     1      -9.635  -8.067  17.232  0.00  0.00    +0.000 HD
ATOM     15  H   UNL     1      -8.563  -9.637  19.661  0.00  0.00    +0.000 HD
BRANCH  13  16
ATOM     16  C   UNL     1      -8.818 -10.637  17.749  0.00  0.00    +0.000 A 
ATOM     17  C   UNL     1      -9.079 -10.545  16.375  0.00  0.00    +0.000 A 
ATOM     18  C   UNL     1      -9.040 -11.682  15.564  0.00  0.00    +0.000 A 
ATOM     19  C   UNL     1      -8.718 -12.915  16.123  0.00  0.00    +0.000 A 
ATOM     20 BR   UNL     1      -8.683 -14.455  15.029  0.00  0.00    +0.000 Br
ATOM     21  C   UNL     1      -8.424 -13.020  17.480  0.00  0.00    +0.000 A 
ATOM     22  C   UNL     1      -8.469 -11.882  18.289  0.00  0.00    +0.000 A 
ATOM     23  H   UNL     1      -9.316  -9.588  15.917  0.00  0.00    +0.000 HD
ATOM     24  H   UNL     1      -9.264 -11.589  14.506  0.00  0.00    +0.000 HD
ATOM     25  H   UNL     1      -8.165 -13.980  17.919  0.00  0.00    +0.000 HD
ATOM     26  H   UNL     1      -8.245 -11.982  19.349  0.00  0.00    +0.000 HD
ENDBRANCH  13  16
ENDBRANCH   9  12
ENDBRANCH   7   9
ENDBRANCH   4   7
ENDBRANCH   1   4
BRANCH   1  27
ATOM     27  N   UNL     1      -9.343  -3.594  18.369  0.00  0.00    +0.000 NA
ATOM     28  H   UNL     1      -8.695  -4.271  18.776  0.00  0.00    +0.000 HD
BRANCH  27  30
ATOM     29  O   UNL     1      -9.360  -1.164  19.000  0.00  0.00    +0.000 OA
ATOM     30  S   UNL     1      -9.839  -2.435  19.502  0.00  0.00    +0.000 S 
ATOM     31  O   UNL     1     -11.240  -2.639  19.796  0.00  0.00    +0.000 OA
BRANCH  30  32
ATOM     32  C   UNL     1      -8.845  -2.862  20.928  0.00  0.00    +0.000 A 
ATOM     33  C   UNL     1      -7.682  -3.602  20.638  0.00  0.00    +0.000 A 
ATOM     34  C   UNL     1      -6.823  -3.993  21.654  0.00  0.00    +0.000 A 
ATOM     35  C   UNL     1      -7.114  -3.649  22.968  0.00  0.00    +0.000 A 
ATOM     36  C   UNL     1      -8.264  -2.904  23.281  0.00  0.00    +0.000 A 
ATOM     37  C   UNL     1      -8.538  -2.569  24.609  0.00  0.00    +0.000 A 
ATOM     38  N   UNL     1      -9.612  -1.864  25.022  0.00  0.00    +0.000 NA
ATOM     39  C   UNL     1     -10.457  -1.459  24.062  0.00  0.00    +0.000 A 
ATOM     40  C   UNL     1     -10.284  -1.735  22.712  0.00  0.00    +0.000 A 
ATOM     41  C   UNL     1      -9.163  -2.481  22.269  0.00  0.00    +0.000 A 
ATOM     42  H   UNL     1      -7.433  -3.872  19.613  0.00  0.00    +0.000 HD
ATOM     43  H   UNL     1      -5.924  -4.559  21.421  0.00  0.00    +0.000 HD
ATOM     44  H   UNL     1      -6.429  -3.962  23.753  0.00  0.00    +0.000 HD
ATOM     45  H   UNL     1      -7.872  -2.870  25.415  0.00  0.00    +0.000 HD
ATOM     46  H   UNL     1     -11.311  -0.883  24.411  0.00  0.00    +0.000 HD
ATOM     47  H   UNL     1     -11.038  -1.354  22.033  0.00  0.00    +0.000 HD
ENDBRANCH  30  32
ENDBRANCH  27  30
ENDBRANCH   1  27
TORSDOF 8
ENDMDL
MODEL 7
REMARK VINA RESULT:    -9.715      4.459      9.399
REMARK INTER + INTRA:         -14.878
REMARK INTER:                 -14.366
REMARK INTRA:                  -0.512
REMARK UNBOUND:                -0.620
REMARK  Name = 
REMARK  8 active torsions:
REMARK  status: ('A' for Active; 'I' for Inactive)
REMARK    1  A    between atoms: S_2  and  N_4
REMARK    2  A    between atoms: S_2  and  C_18
REMARK    3  A    between atoms: N_4  and  C_5
REMARK    4  A    between atoms: C_5  and  C_6
REMARK    5  A    between atoms: C_6  and  N_7
REMARK    6  A    between atoms: N_7  and  C_8
REMARK    7  A    between atoms: C_8  and  C_9
REMARK    8  A    between atoms: C_10  and  C_11
REMARK                            x       y       z     vdW  Elec       q    Type
REMARK                         _______ _______ _______ _____ _____    ______ ____
ROOT
ATOM      1  C   UNL     1      -9.953  -5.432  17.371  0.00  0.00    +0.000 C 
ATOM      2  H   UNL     1     -10.993  -5.259  17.086  0.00  0.00    +0.000 HD
ATOM      3  H   UNL     1      -9.305  -5.253  16.510  0.00  0.00    +0.000 HD
ENDROOT
BRANCH   1   4
ATOM      4  C   UNL     1      -9.566  -4.455  18.493  0.00  0.00    +0.000 C 
ATOM      5  H   UNL     1      -8.542  -4.676  18.822  0.00  0.00    +0.000 HD
ATOM      6  H   UNL     1     -10.201  -4.601  19.375  0.00  0.00    +0.000 HD
BRANCH   4   7
ATOM      7  N   UNL     1      -9.608  -3.045  18.070  0.00  0.00    +0.000 NA
ATOM      8  H   UNL     1      -9.928  -2.986  17.103  0.00  0.00    +0.000 HD
BRANCH   7   9
ATOM      9  C   UNL     1     -10.503  -2.256  18.914  0.00  0.00    +0.000 C 
ATOM     10  H   UNL     1     -11.506  -2.697  18.915  0.00  0.00    +0.000 HD
ATOM     11  H   UNL     1     -10.592  -1.227  18.554  0.00  0.00    +0.000 HD
BRANCH   9  12
ATOM     12  C   UNL     1      -9.990  -2.219  20.314  0.00  0.00    +0.000 C 
ATOM     13  C   UNL     1     -10.670  -1.656  21.329  0.00  0.00    +0.000 C 
ATOM     14  H   UNL     1      -9.045  -2.725  20.481  0.00  0.00    +0.000 HD
ATOM     15  H   UNL     1     -11.633  -1.185  21.146  0.00  0.00    +0.000 HD
BRANCH  13  16
ATOM     16  C   UNL     1     -10.221  -1.667  22.725  0.00  0.00    +0.000 A 
ATOM     17  C   UNL     1      -9.145  -0.887  23.167  0.00  0.00    +0.000 A 
ATOM     18  C   UNL     1      -8.731  -0.931  24.501  0.00  0.00    +0.000 A 
ATOM     19  C   UNL     1      -9.409  -1.744  25.404  0.00  0.00    +0.000 A 
ATOM     20 BR   UNL     1      -8.838  -1.818  27.204  0.00  0.00    +0.000 Br
ATOM     21  C   UNL     1     -10.501  -2.503  24.990  0.00  0.00    +0.000 A 
ATOM     22  C   UNL     1     -10.908  -2.460  23.654  0.00  0.00    +0.000 A 
ATOM     23  H   UNL     1      -8.613  -0.233  22.480  0.00  0.00    +0.000 HD
ATOM     24  H   UNL     1      -7.883  -0.331  24.815  0.00  0.00    +0.000 HD
ATOM     25  H   UNL     1     -11.037  -3.134  25.695  0.00  0.00    +0.000 HD
ATOM     26  H   UNL     1     -11.758  -3.064  23.345  0.00  0.00    +0.000 HD
ENDBRANCH  13  16
ENDBRANCH   9  12
ENDBRANCH   7   9
ENDBRANCH   4   7
ENDBRANCH   1   4
BRANCH   1  27
ATOM     27  N   UNL     1      -9.848  -6.832  17.796  0.00  0.00    +0.000 NA
ATOM     28  H   UNL     1      -9.172  -7.033  18.534  0.00  0.00    +0.000 HD
BRANCH  27  30
ATOM     29  O   UNL     1     -11.171  -8.240  16.192  0.00  0.00    +0.000 OA
ATOM     30  S   UNL     1      -9.793  -7.988  16.556  0.00  0.00    +0.000 S 
ATOM     31  O   UNL     1      -8.826  -7.566  15.567  0.00  0.00    +0.000 OA
BRANCH  30  32
ATOM     32  C   UNL     1      -9.192  -9.433  17.425  0.00  0.00    +0.000 A 
ATOM     33  C   UNL     1      -8.947  -9.239  18.797  0.00  0.00    +0.000 A 
ATOM     34  C   UNL     1      -8.482 -10.282  19.586  0.00  0.00    +0.000 A 
ATOM     35  C   UNL     1      -8.259 -11.527  19.012  0.00  0.00    +0.000 A 
ATOM     36  C   UNL     1      -8.504 -11.747  17.646  0.00  0.00    +0.000 A 
ATOM     37  C   UNL     1      -8.273 -13.008  17.089  0.00  0.00    +0.000 A 
ATOM     38  N   UNL     1      -8.468 -13.327  15.793  0.00  0.00    +0.000 NA
ATOM     39  C   UNL     1      -8.930 -12.344  15.006  0.00  0.00    +0.000 A 
ATOM     40  C   UNL     1      -9.194 -11.055  15.451  0.00  0.00    +0.000 A 
ATOM     41  C   UNL     1      -8.985 -10.708  16.810  0.00  0.00    +0.000 A 
ATOM     42  H   UNL     1      -9.126  -8.272  19.265  0.00  0.00    +0.000 HD
ATOM     43  H   UNL     1      -8.300 -10.125  20.647  0.00  0.00    +0.000 HD
ATOM     44  H   UNL     1      -7.896 -12.334  19.645  0.00  0.00    +0.000 HD
ATOM     45  H   UNL     1      -7.908 -13.833  17.698  0.00  0.00    +0.000 HD
ATOM     46  H   UNL     1      -9.093 -12.622  13.967  0.00  0.00    +0.000 HD
ATOM     47  H   UNL     1      -9.563 -10.348  14.717  0.00  0.00    +0.000 HD
ENDBRANCH  30  32
ENDBRANCH  27  30
ENDBRANCH   1  27
TORSDOF 8
ENDMDL
MODEL 8
REMARK VINA RESULT:    -9.626      4.625      9.310
REMARK INTER + INTRA:         -14.748
REMARK INTER:                 -14.193
REMARK INTRA:                  -0.555
REMARK UNBOUND:                -0.620
REMARK  Name = 
REMARK  8 active torsions:
REMARK  status: ('A' for Active; 'I' for Inactive)
REMARK    1  A    between atoms: S_2  and  N_4
REMARK    2  A    between atoms: S_2  and  C_18
REMARK    3  A    between atoms: N_4  and  C_5
REMARK    4  A    between atoms: C_5  and  C_6
REMARK    5  A    between atoms: C_6  and  N_7
REMARK    6  A    between atoms: N_7  and  C_8
REMARK    7  A    between atoms: C_8  and  C_9
REMARK    8  A    between atoms: C_10  and  C_11
REMARK                            x       y       z     vdW  Elec       q    Type
REMARK                         _______ _______ _______ _____ _____    ______ ____
ROOT
ATOM      1  C   UNL     1     -10.753  -5.396  16.840  0.00  0.00    +0.000 C 
ATOM      2  H   UNL     1     -11.613  -6.002  17.131  0.00  0.00    +0.000 HD
ATOM      3  H   UNL     1     -10.987  -4.846  15.926  0.00  0.00    +0.000 HD
ENDROOT
BRANCH   1   4
ATOM      4  C   UNL     1     -10.444  -4.386  17.959  0.00  0.00    +0.000 C 
ATOM      5  H   UNL     1      -9.845  -3.565  17.543  0.00  0.00    +0.000 HD
ATOM      6  H   UNL     1      -9.824  -4.844  18.738  0.00  0.00    +0.000 HD
BRANCH   4   7
ATOM      7  N   UNL     1     -11.655  -3.801  18.557  0.00  0.00    +0.000 NA
ATOM      8  H   UNL     1     -11.955  -4.368  19.350  0.00  0.00    +0.000 HD
BRANCH   7   9
ATOM      9  C   UNL     1     -11.422  -2.433  19.015  0.00  0.00    +0.000 C 
ATOM     10  H   UNL     1     -12.369  -1.884  19.061  0.00  0.00    +0.000 HD
ATOM     11  H   UNL     1     -10.755  -1.890  18.339  0.00  0.00    +0.000 HD
BRANCH   9  12
ATOM     12  C   UNL     1     -10.804  -2.443  20.373  0.00  0.00    +0.000 C 
ATOM     13  C   UNL     1     -11.098  -1.534  21.319  0.00  0.00    +0.000 C 
ATOM     14  H   UNL     1     -10.129  -3.269  20.575  0.00  0.00    +0.000 HD
ATOM     15  H   UNL     1     -11.804  -0.735  21.107  0.00  0.00    +0.000 HD
BRANCH  13  16
ATOM     16  C   UNL     1     -10.557  -1.562  22.683  0.00  0.00    +0.000 A 
ATOM     17  C   UNL     1      -9.547  -0.686  23.100  0.00  0.00    +0.000 A 
ATOM     18  C   UNL     1      -9.042  -0.749  24.401  0.00  0.00    +0.000 A 
ATOM     19  C   UNL     1      -9.563  -1.677  25.298  0.00  0.00    +0.000 A 
ATOM     20 BR   UNL     1      -8.867  -1.773  27.052  0.00  0.00    +0.000 Br
ATOM     21  C   UNL     1     -10.589  -2.534  24.910  0.00  0.00    +0.000 A 
ATOM     22  C   UNL     1     -11.088  -2.473  23.606  0.00  0.00    +0.000 A 
ATOM     23  H   UNL     1      -9.139   0.057  22.420  0.00  0.00    +0.000 HD
ATOM     24  H   UNL     1      -8.246  -0.072  24.697  0.00  0.00    +0.000 HD
ATOM     25  H   UNL     1     -11.004  -3.256  25.609  0.00  0.00    +0.000 HD
ATOM     26  H   UNL     1     -11.885  -3.155  23.316  0.00  0.00    +0.000 HD
ENDBRANCH  13  16
ENDBRANCH   9  12
ENDBRANCH   7   9
ENDBRANCH   4   7
ENDBRANCH   1   4
BRANCH   1  27
ATOM     27  N   UNL     1      -9.635  -6.316  16.602  0.00  0.00    +0.000 NA
ATOM     28  H   UNL     1      -9.502  -6.629  15.639  0.00  0.00    +0.000 HD
BRANCH  27  30
ATOM     29  O   UNL     1      -8.217  -7.345  18.400  0.00  0.00    +0.000 OA
ATOM     30  S   UNL     1      -9.466  -7.589  17.709  0.00  0.00    +0.000 S 
ATOM     31  O   UNL     1     -10.704  -7.739  18.441  0.00  0.00    +0.000 OA
BRANCH  30  32
ATOM     32  C   UNL     1      -9.219  -8.991  16.626  0.00  0.00    +0.000 A 
ATOM     33  C   UNL     1      -9.331  -8.705  15.252  0.00  0.00    +0.000 A 
ATOM     34  C   UNL     1      -9.158  -9.704  14.306  0.00  0.00    +0.000 A 
ATOM     35  C   UNL     1      -8.871 -10.998  14.721  0.00  0.00    +0.000 A 
ATOM     36  C   UNL     1      -8.747 -11.307  16.086  0.00  0.00    +0.000 A 
ATOM     37  C   UNL     1      -8.458 -12.616  16.482  0.00  0.00    +0.000 A 
ATOM     38  N   UNL     1      -8.323 -13.023  17.761  0.00  0.00    +0.000 NA
ATOM     39  C   UNL     1      -8.471 -12.078  18.702  0.00  0.00    +0.000 A 
ATOM     40  C   UNL     1      -8.760 -10.748  18.422  0.00  0.00    +0.000 A 
ATOM     41  C   UNL     1      -8.911 -10.312  17.082  0.00  0.00    +0.000 A 
ATOM     42  H   UNL     1      -9.545  -7.694  14.908  0.00  0.00    +0.000 HD
ATOM     43  H   UNL     1      -9.240  -9.473  13.246  0.00  0.00    +0.000 HD
ATOM     44  H   UNL     1      -8.737 -11.770  13.966  0.00  0.00    +0.000 HD
ATOM     45  H   UNL     1      -8.321 -13.408  15.749  0.00  0.00    +0.000 HD
ATOM     46  H   UNL     1      -8.348 -12.421  19.726  0.00  0.00    +0.000 HD
ATOM     47  H   UNL     1      -8.858 -10.079  19.270  0.00  0.00    +0.000 HD
ENDBRANCH  30  32
ENDBRANCH  27  30
ENDBRANCH   1  27
TORSDOF 8
ENDMDL
MODEL 9
REMARK VINA RESULT:    -9.553      5.077     10.493
REMARK INTER + INTRA:         -14.641
REMARK INTER:                 -14.179
REMARK INTRA:                  -0.462
REMARK UNBOUND:                -0.620
REMARK  Name = 
REMARK  8 active torsions:
REMARK  status: ('A' for Active; 'I' for Inactive)
REMARK    1  A    between atoms: S_2  and  N_4
REMARK    2  A    between atoms: S_2  and  C_18
REMARK    3  A    between atoms: N_4  and  C_5
REMARK    4  A    between atoms: C_5  and  C_6
REMARK    5  A    between atoms: C_6  and  N_7
REMARK    6  A    between atoms: N_7  and  C_8
REMARK    7  A    between atoms: C_8  and  C_9
REMARK    8  A    between atoms: C_10  and  C_11
REMARK                            x       y       z     vdW  Elec       q    Type
REMARK                         _______ _______ _______ _____ _____    ______ ____
ROOT
ATOM      1  C   UNL     1      -8.447  -5.024  19.419  0.00  0.00    +0.000 C 
ATOM      2  H   UNL     1      -9.180  -4.223  19.303  0.00  0.00    +0.000 HD
ATOM      3  H   UNL     1      -7.775  -5.030  18.557  0.00  0.00    +0.000 HD
ENDROOT
BRANCH   1   4
ATOM      4  C   UNL     1      -7.619  -4.772  20.691  0.00  0.00    +0.000 C 
ATOM      5  H   UNL     1      -6.600  -4.485  20.402  0.00  0.00    +0.000 HD
ATOM      6  H   UNL     1      -7.515  -5.692  21.277  0.00  0.00    +0.000 HD
BRANCH   4   7
ATOM      7  N   UNL     1      -8.169  -3.697  21.532  0.00  0.00    +0.000 NA
ATOM      8  H   UNL     1      -8.949  -4.056  22.083  0.00  0.00    +0.000 HD
BRANCH   7   9
ATOM      9  C   UNL     1      -7.160  -3.153  22.438  0.00  0.00    +0.000 C 
ATOM     10  H   UNL     1      -6.185  -3.118  21.940  0.00  0.00    +0.000 HD
ATOM     11  H   UNL     1      -7.053  -3.768  23.336  0.00  0.00    +0.000 HD
BRANCH   9  12
ATOM     12  C   UNL     1      -7.536  -1.772  22.859  0.00  0.00    +0.000 C 
ATOM     13  C   UNL     1      -8.749  -1.460  23.347  0.00  0.00    +0.000 C 
ATOM     14  H   UNL     1      -6.745  -1.030  22.794  0.00  0.00    +0.000 HD
ATOM     15  H   UNL     1      -9.515  -2.225  23.437  0.00  0.00    +0.000 HD
BRANCH  13  16
ATOM     16  C   UNL     1      -9.121  -0.126  23.832  0.00  0.00    +0.000 A 
ATOM     17  C   UNL     1     -10.004   0.702  23.127  0.00  0.00    +0.000 A 
ATOM     18  C   UNL     1     -10.327   1.974  23.607  0.00  0.00    +0.000 A 
ATOM     19  C   UNL     1      -9.781   2.414  24.809  0.00  0.00    +0.000 A 
ATOM     20 BR   UNL     1     -10.204   4.141  25.449  0.00  0.00    +0.000 Br
ATOM     21  C   UNL     1      -8.927   1.593  25.539  0.00  0.00    +0.000 A 
ATOM     22  C   UNL     1      -8.602   0.323  25.054  0.00  0.00    +0.000 A 
ATOM     23  H   UNL     1     -10.454   0.370  22.194  0.00  0.00    +0.000 HD
ATOM     24  H   UNL     1     -11.000   2.605  23.033  0.00  0.00    +0.000 HD
ATOM     25  H   UNL     1      -8.504   1.930  26.482  0.00  0.00    +0.000 HD
ATOM     26  H   UNL     1      -7.927  -0.303  25.632  0.00  0.00    +0.000 HD
ENDBRANCH  13  16
ENDBRANCH   9  12
ENDBRANCH   7   9
ENDBRANCH   4   7
ENDBRANCH   1   4
BRANCH   1  27
ATOM     27  N   UNL     1      -9.191  -6.287  19.484  0.00  0.00    +0.000 NA
ATOM     28  H   UNL     1      -8.817  -7.002  20.109  0.00  0.00    +0.000 HD
BRANCH  27  30
ATOM     29  O   UNL     1     -11.134  -6.912  18.022  0.00  0.00    +0.000 OA
ATOM     30  S   UNL     1      -9.687  -6.940  18.000  0.00  0.00    +0.000 S 
ATOM     31  O   UNL     1      -8.946  -6.299  16.937  0.00  0.00    +0.000 OA
BRANCH  30  32
ATOM     32  C   UNL     1      -9.178  -8.648  18.159  0.00  0.00    +0.000 A 
ATOM     33  C   UNL     1      -8.742  -9.018  19.446  0.00  0.00    +0.000 A 
ATOM     34  C   UNL     1      -8.324 -10.316  19.704  0.00  0.00    +0.000 A 
ATOM     35  C   UNL     1      -8.337 -11.255  18.681  0.00  0.00    +0.000 A 
ATOM     36  C   UNL     1      -8.776 -10.912  17.391  0.00  0.00    +0.000 A 
ATOM     37  C   UNL     1      -8.781 -11.873  16.377  0.00  0.00    +0.000 A 
ATOM     38  N   UNL     1      -9.174 -11.653  15.106  0.00  0.00    +0.000 NA
ATOM     39  C   UNL     1      -9.598 -10.411  14.826  0.00  0.00    +0.000 A 
ATOM     40  C   UNL     1      -9.634  -9.378  15.754  0.00  0.00    +0.000 A 
ATOM     41  C   UNL     1      -9.216  -9.599  17.091  0.00  0.00    +0.000 A 
ATOM     42  H   UNL     1      -8.734  -8.297  20.262  0.00  0.00    +0.000 HD
ATOM     43  H   UNL     1      -7.994 -10.595  20.703  0.00  0.00    +0.000 HD
ATOM     44  H   UNL     1      -8.007 -12.269  18.901  0.00  0.00    +0.000 HD
ATOM     45  H   UNL     1      -8.455 -12.894  16.567  0.00  0.00    +0.000 HD
ATOM     46  H   UNL     1      -9.921 -10.253  13.800  0.00  0.00    +0.000 HD
ATOM     47  H   UNL     1      -9.995  -8.417  15.405  0.00  0.00    +0.000 HD
ENDBRANCH  30  32
ENDBRANCH  27  30
ENDBRANCH   1  27
TORSDOF 8
ENDMDL
