MODEL 1
REMARK VINA RESULT:    -9.525      0.000      0.000
REMARK INTER + INTRA:         -17.879
REMARK INTER:                 -15.928
REMARK INTRA:                  -1.950
REMARK UNBOUND:                -1.950
REMARK  Name = 
REMARK  14 active torsions:
REMARK  status: ('A' for Active; 'I' for Inactive)
REMARK    1  A    between atoms: C_1  and  C_2
REMARK    2  A    between atoms: C_2  and  C_3
REMARK    3  A    between atoms: C_3  and  C_4
REMARK    4  A    between atoms: C_3  and  O_5
REMARK    5  A    between atoms: O_5  and  C_6
REMARK    6  A    between atoms: C_6  and  C_8
REMARK    7  A    between atoms: C_12  and  N_13
REMARK    8  A    between atoms: C_14  and  C_16
REMARK    9  A    between atoms: C_16  and  C_17
REMARK   10  A    between atoms: C_17  and  N_18
REMARK   11  A    between atoms: N_18  and  C_19
REMARK   12  A    between atoms: N_18  and  C_20
REMARK   13  A    between atoms: N_23  and  C_24
REMARK   14  A    between atoms: C_31  and  C_32
REMARK                            x       y       z     vdW  Elec       q    Type
REMARK                         _______ _______ _______ _____ _____    ______ ____
ROOT
ATOM      1  C   UNL     1      -9.900  -5.852  16.422  0.00  0.00    +0.000 C 
ATOM      2  C   UNL     1     -11.023  -6.954  16.540  0.00  0.00    +0.000 C 
ATOM      3  C   UNL     1     -10.751  -8.109  17.525  0.00  0.00    +0.000 C 
ATOM      4  N   UNL     1      -9.347  -8.488  17.383  0.00  0.00    +0.000 N 
ATOM      5  C   UNL     1      -8.490  -7.434  17.912  0.00  0.00    +0.000 C 
ATOM      6  C   UNL     1      -8.487  -6.323  16.861  0.00  0.00    +0.000 C 
ATOM      7  H   UNL     1     -11.237  -7.408  15.576  0.00  0.00    +0.000 HD
ATOM      8  H   UNL     1     -11.982  -6.491  16.811  0.00  0.00    +0.000 HD
ATOM      9  H   UNL     1     -11.434  -8.934  17.289  0.00  0.00    +0.000 HD
ATOM     10  H   UNL     1     -10.974  -7.797  18.555  0.00  0.00    +0.000 HD
ATOM     11  H   UNL     1      -7.471  -7.771  18.126  0.00  0.00    +0.000 HD
ATOM     12  H   UNL     1      -8.871  -7.061  18.873  0.00  0.00    +0.000 HD
ATOM     13  H   UNL     1      -7.968  -6.693  15.976  0.00  0.00    +0.000 HD
ATOM     14  H   UNL     1      -7.886  -5.486  17.235  0.00  0.00    +0.000 HD
ENDROOT
BRANCH   4  15
ATOM     15  C   UNL     1      -8.970  -9.793  17.697  0.00  0.00    +0.000 A 
ATOM     16  N   UNL     1      -8.704 -10.130  18.991  0.00  0.00    +0.000 NA
ATOM     17  C   UNL     1      -8.353 -11.398  19.290  0.00  0.00    +0.000 A 
ATOM     18  N   UNL     1      -8.228 -12.444  18.462  0.00  0.00    +0.000 NA
ATOM     19  C   UNL     1      -8.524 -12.097  17.203  0.00  0.00    +0.000 A 
ATOM     20  N   UNL     1      -8.492 -12.974  16.155  0.00  0.00    +0.000 N 
ATOM     21  C   UNL     1      -8.866 -12.337  15.007  0.00  0.00    +0.000 A 
ATOM     22  C   UNL     1      -9.156 -11.021  15.318  0.00  0.00    +0.000 A 
ATOM     23  C   UNL     1      -8.903 -10.844  16.732  0.00  0.00    +0.000 A 
ATOM     24  H   UNL     1      -8.140 -11.600  20.336  0.00  0.00    +0.000 HD
ATOM     25  H   UNL     1      -8.235 -13.945  16.243  0.00  0.00    +0.000 HD
ATOM     26  H   UNL     1      -8.910 -12.866  14.064  0.00  0.00    +0.000 HD
BRANCH  22  27
ATOM     27  C   UNL     1      -9.637 -10.028  14.329  0.00  0.00    +0.000 C 
ATOM     28  H   UNL     1      -8.807  -9.574  13.778  0.00  0.00    +0.000 HD
ATOM     29  H   UNL     1     -10.138  -9.200  14.829  0.00  0.00    +0.000 HD
ATOM     30  H   UNL     1     -10.308 -10.497  13.602  0.00  0.00    +0.000 HD
ENDBRANCH  22  27
ENDBRANCH   4  15
BRANCH   1  32
ATOM     31  N   UNL     1      -9.323  -3.890  17.911  0.00  0.00    +0.000 N 
ATOM     32  C   UNL     1     -10.311  -4.751  17.447  0.00  0.00    +0.000 C 
ATOM     33  O   UNL     1     -11.477  -4.717  17.846  0.00  0.00    +0.000 OA
ATOM     34  H   UNL     1      -8.426  -3.871  17.448  0.00  0.00    +0.000 HD
BRANCH  31  39
ATOM     35  C   UNL     1      -9.031  -1.846  20.992  0.00  0.00    +0.000 A 
ATOM     36  C   UNL     1      -9.691  -0.673  20.616  0.00  0.00    +0.000 A 
ATOM     37  C   UNL     1     -10.279  -0.581  19.357  0.00  0.00    +0.000 A 
ATOM     38  C   UNL     1     -10.193  -1.647  18.465  0.00  0.00    +0.000 A 
ATOM     39  C   UNL     1      -9.514  -2.816  18.810  0.00  0.00    +0.000 A 
ATOM     40  C   UNL     1      -8.967  -2.929  20.099  0.00  0.00    +0.000 A 
ATOM     41  H   UNL     1      -9.752   0.183  21.286  0.00  0.00    +0.000 HD
ATOM     42  H   UNL     1     -10.796   0.327  19.057  0.00  0.00    +0.000 HD
ATOM     43  H   UNL     1     -10.676  -1.532  17.498  0.00  0.00    +0.000 HD
ATOM     44  H   UNL     1      -8.444  -3.831  20.399  0.00  0.00    +0.000 HD
BRANCH  35  45
ATOM     45  C   UNL     1      -8.349  -1.964  22.307  0.00  0.00    +0.000 C 
ATOM     46  O   UNL     1      -7.338  -1.333  22.590  0.00  0.00    +0.000 OA
BRANCH  45  47
ATOM     47  O   UNL     1      -9.021  -2.804  23.127  0.00  0.00    +0.000 OA
BRANCH  47  48
ATOM     48  C   UNL     1      -8.788  -2.650  24.544  0.00  0.00    +0.000 C 
ATOM     49  H   UNL     1      -8.104  -1.812  24.723  0.00  0.00    +0.000 HD
BRANCH  48  50
ATOM     50  C   UNL     1      -8.115  -3.934  25.020  0.00  0.00    +0.000 C 
ATOM     51  H   UNL     1      -7.766  -3.835  26.054  0.00  0.00    +0.000 HD
ATOM     52  H   UNL     1      -7.265  -4.207  24.388  0.00  0.00    +0.000 HD
ATOM     53  H   UNL     1      -8.827  -4.766  25.008  0.00  0.00    +0.000 HD
ENDBRANCH  48  50
BRANCH  48  54
ATOM     54  C   UNL     1     -10.138  -2.410  25.239  0.00  0.00    +0.000 C 
ATOM     55  H   UNL     1     -10.178  -2.989  26.168  0.00  0.00    +0.000 HD
ATOM     56  H   UNL     1     -10.214  -1.359  25.547  0.00  0.00    +0.000 HD
BRANCH  54  57
ATOM     57  C   UNL     1     -11.338  -2.782  24.384  0.00  0.00    +0.000 C 
ATOM     58  H   UNL     1     -11.784  -1.881  23.952  0.00  0.00    +0.000 HD
ATOM     59  H   UNL     1     -12.104  -3.286  24.983  0.00  0.00    +0.000 HD
ATOM     60  H   UNL     1     -11.056  -3.439  23.557  0.00  0.00    +0.000 HD
ENDBRANCH  54  57
ENDBRANCH  48  54
ENDBRANCH  47  48
ENDBRANCH  45  47
ENDBRANCH  35  45
ENDBRANCH  31  39
ENDBRANCH   1  32
BRANCH   1  61
ATOM     61  C   UNL     1      -9.804  -5.254  14.965  0.00  0.00    +0.000 C 
ATOM     62  H   UNL     1     -10.447  -5.892  14.346  0.00  0.00    +0.000 HD
ATOM     63  H   UNL     1      -8.778  -5.381  14.597  0.00  0.00    +0.000 HD
BRANCH  61  64
ATOM     64  N   UNL     1     -10.310  -3.907  14.611  0.00  0.00    +0.000 NA
BRANCH  64  65
ATOM     65  C   UNL     1      -9.485  -3.170  13.664  0.00  0.00    +0.000 C 
ATOM     66  H   UNL     1      -9.408  -2.119  13.949  0.00  0.00    +0.000 HD
ATOM     67  H   UNL     1      -9.951  -3.153  12.671  0.00  0.00    +0.000 HD
ATOM     68  H   UNL     1      -8.487  -3.611  13.559  0.00  0.00    +0.000 HD
ENDBRANCH  64  65
BRANCH  64  69
ATOM     69  C   UNL     1     -11.673  -4.015  14.062  0.00  0.00    +0.000 C 
ATOM     70  H   UNL     1     -11.942  -5.062  13.878  0.00  0.00    +0.000 HD
ATOM     71  H   UNL     1     -11.780  -3.461  13.121  0.00  0.00    +0.000 HD
ATOM     72  H   UNL     1     -12.411  -3.628  14.773  0.00  0.00    +0.000 HD
ENDBRANCH  64  69
ENDBRANCH  61  64
ENDBRANCH   1  61
TORSDOF 14
ENDMDL
MODEL 2
REMARK VINA RESULT:    -9.010      1.612      2.164
REMARK INTER + INTRA:         -17.017
REMARK INTER:                 -16.304
REMARK INTRA:                  -0.713
REMARK UNBOUND:                -1.950
REMARK  Name = 
REMARK  14 active torsions:
REMARK  status: ('A' for Active; 'I' for Inactive)
REMARK    1  A    between atoms: C_1  and  C_2
REMARK    2  A    between atoms: C_2  and  C_3
REMARK    3  A    between atoms: C_3  and  C_4
REMARK    4  A    between atoms: C_3  and  O_5
REMARK    5  A    between atoms: O_5  and  C_6
REMARK    6  A    between atoms: C_6  and  C_8
REMARK    7  A    between atoms: C_12  and  N_13
REMARK    8  A    between atoms: C_14  and  C_16
REMARK    9  A    between atoms: C_16  and  C_17
REMARK   10  A    between atoms: C_17  and  N_18
REMARK   11  A    between atoms: N_18  and  C_19
REMARK   12  A    between atoms: N_18  and  C_20
REMARK   13  A    between atoms: N_23  and  C_24
REMARK   14  A    between atoms: C_31  and  C_32
REMARK                            x       y       z     vdW  Elec       q    Type
REMARK                         _______ _______ _______ _____ _____    ______ ____
ROOT
ATOM      1  C   UNL     1      -9.945  -5.994  17.775  0.00  0.00    +0.000 C 
ATOM      2  C   UNL     1     -10.654  -6.980  18.781  0.00  0.00    +0.000 C 
ATOM      3  C   UNL     1      -9.863  -8.245  19.174  0.00  0.00    +0.000 C 
ATOM      4  N   UNL     1      -9.214  -8.752  17.967  0.00  0.00    +0.000 N 
ATOM      5  C   UNL     1      -8.148  -7.846  17.557  0.00  0.00    +0.000 C 
ATOM      6  C   UNL     1      -8.837  -6.647  16.905  0.00  0.00    +0.000 C 
ATOM      7  H   UNL     1     -11.613  -7.317  18.400  0.00  0.00    +0.000 HD
ATOM      8  H   UNL     1     -10.929  -6.449  19.704  0.00  0.00    +0.000 HD
ATOM      9  H   UNL     1     -10.562  -8.970  19.609  0.00  0.00    +0.000 HD
ATOM     10  H   UNL     1      -9.123  -8.012  19.952  0.00  0.00    +0.000 HD
ATOM     11  H   UNL     1      -7.431  -8.305  16.869  0.00  0.00    +0.000 HD
ATOM     12  H   UNL     1      -7.547  -7.529  18.420  0.00  0.00    +0.000 HD
ATOM     13  H   UNL     1      -9.297  -6.983  15.975  0.00  0.00    +0.000 HD
ATOM     14  H   UNL     1      -8.074  -5.915  16.617  0.00  0.00    +0.000 HD
ENDROOT
BRANCH   4  15
ATOM     15  C   UNL     1      -8.922 -10.113  17.882  0.00  0.00    +0.000 A 
ATOM     16  N   UNL     1      -8.688 -10.828  19.019  0.00  0.00    +0.000 NA
ATOM     17  C   UNL     1      -8.420 -12.147  18.932  0.00  0.00    +0.000 A 
ATOM     18  N   UNL     1      -8.355 -12.912  17.833  0.00  0.00    +0.000 NA
ATOM     19  C   UNL     1      -8.619 -12.196  16.734  0.00  0.00    +0.000 A 
ATOM     20  N   UNL     1      -8.634 -12.729  15.476  0.00  0.00    +0.000 N 
ATOM     21  C   UNL     1      -8.958 -11.764  14.567  0.00  0.00    +0.000 A 
ATOM     22  C   UNL     1      -9.166 -10.580  15.251  0.00  0.00    +0.000 A 
ATOM     23  C   UNL     1      -8.914 -10.839  16.653  0.00  0.00    +0.000 A 
ATOM     24  H   UNL     1      -8.229 -12.658  19.871  0.00  0.00    +0.000 HD
ATOM     25  H   UNL     1      -8.439 -13.698  15.273  0.00  0.00    +0.000 HD
ATOM     26  H   UNL     1      -9.027 -11.991  13.511  0.00  0.00    +0.000 HD
BRANCH  22  27
ATOM     27  C   UNL     1      -9.576  -9.313  14.600  0.00  0.00    +0.000 C 
ATOM     28  H   UNL     1      -8.783  -8.561  14.649  0.00  0.00    +0.000 HD
ATOM     29  H   UNL     1     -10.425  -8.872  15.119  0.00  0.00    +0.000 HD
ATOM     30  H   UNL     1      -9.818  -9.479  13.545  0.00  0.00    +0.000 HD
ENDBRANCH  22  27
ENDBRANCH   4  15
BRANCH   1  32
ATOM     31  N   UNL     1      -8.161  -5.412  19.472  0.00  0.00    +0.000 N 
ATOM     32  C   UNL     1      -9.211  -4.958  18.680  0.00  0.00    +0.000 C 
ATOM     33  O   UNL     1      -9.619  -3.795  18.701  0.00  0.00    +0.000 OA
ATOM     34  H   UNL     1      -7.782  -6.333  19.310  0.00  0.00    +0.000 HD
BRANCH  31  39
ATOM     35  C   UNL     1      -7.274  -2.940  22.091  0.00  0.00    +0.000 A 
ATOM     36  C   UNL     1      -5.887  -3.104  22.175  0.00  0.00    +0.000 A 
ATOM     37  C   UNL     1      -5.242  -3.996  21.323  0.00  0.00    +0.000 A 
ATOM     38  C   UNL     1      -5.976  -4.742  20.404  0.00  0.00    +0.000 A 
ATOM     39  C   UNL     1      -7.362  -4.616  20.324  0.00  0.00    +0.000 A 
ATOM     40  C   UNL     1      -8.008  -3.676  21.146  0.00  0.00    +0.000 A 
ATOM     41  H   UNL     1      -5.294  -2.549  22.901  0.00  0.00    +0.000 HD
ATOM     42  H   UNL     1      -4.165  -4.128  21.381  0.00  0.00    +0.000 HD
ATOM     43  H   UNL     1      -5.426  -5.418  19.754  0.00  0.00    +0.000 HD
ATOM     44  H   UNL     1      -9.084  -3.547  21.097  0.00  0.00    +0.000 HD
BRANCH  35  45
ATOM     45  C   UNL     1      -8.004  -2.035  23.015  0.00  0.00    +0.000 C 
ATOM     46  O   UNL     1      -8.116  -0.831  22.817  0.00  0.00    +0.000 OA
BRANCH  45  47
ATOM     47  O   UNL     1      -8.548  -2.728  24.041  0.00  0.00    +0.000 OA
BRANCH  47  48
ATOM     48  C   UNL     1      -9.474  -2.013  24.889  0.00  0.00    +0.000 C 
ATOM     49  H   UNL     1      -9.498  -0.953  24.606  0.00  0.00    +0.000 HD
BRANCH  48  50
ATOM     50  C   UNL     1      -8.938  -2.121  26.314  0.00  0.00    +0.000 C 
ATOM     51  H   UNL     1      -8.144  -2.873  26.378  0.00  0.00    +0.000 HD
ATOM     52  H   UNL     1      -9.726  -2.381  27.027  0.00  0.00    +0.000 HD
ATOM     53  H   UNL     1      -8.495  -1.171  26.629  0.00  0.00    +0.000 HD
ENDBRANCH  48  50
BRANCH  48  54
ATOM     54  C   UNL     1     -10.865  -2.648  24.741  0.00  0.00    +0.000 C 
ATOM     55  H   UNL     1     -10.780  -3.737  24.835  0.00  0.00    +0.000 HD
ATOM     56  H   UNL     1     -11.507  -2.333  25.573  0.00  0.00    +0.000 HD
BRANCH  54  57
ATOM     57  C   UNL     1     -11.544  -2.328  23.420  0.00  0.00    +0.000 C 
ATOM     58  H   UNL     1     -11.487  -3.192  22.750  0.00  0.00    +0.000 HD
ATOM     59  H   UNL     1     -11.057  -1.483  22.924  0.00  0.00    +0.000 HD
ATOM     60  H   UNL     1     -12.602  -2.088  23.558  0.00  0.00    +0.000 HD
ENDBRANCH  54  57
ENDBRANCH  48  54
ENDBRANCH  47  48
ENDBRANCH  45  47
ENDBRANCH  35  45
ENDBRANCH  31  39
ENDBRANCH   1  32
BRANCH   1  61
ATOM     61  C   UNL     1     -10.978  -5.273  16.823  0.00  0.00    +0.000 C 
ATOM     62  H   UNL     1     -11.672  -4.750  17.491  0.00  0.00    +0.000 HD
ATOM     63  H   UNL     1     -11.561  -6.036  16.291  0.00  0.00    +0.000 HD
BRANCH  61  64
ATOM     64  N   UNL     1     -10.595  -4.184  15.895  0.00  0.00    +0.000 NA
BRANCH  64  65
ATOM     65  C   UNL     1     -10.451  -4.585  14.502  0.00  0.00    +0.000 C 
ATOM     66  H   UNL     1     -10.568  -5.664  14.393  0.00  0.00    +0.000 HD
ATOM     67  H   UNL     1      -9.437  -4.379  14.139  0.00  0.00    +0.000 HD
ATOM     68  H   UNL     1     -11.155  -4.056  13.849  0.00  0.00    +0.000 HD
ENDBRANCH  64  65
BRANCH  64  69
ATOM     69  C   UNL     1     -11.585  -3.095  15.971  0.00  0.00    +0.000 C 
ATOM     70  H   UNL     1     -11.620  -2.529  15.033  0.00  0.00    +0.000 HD
ATOM     71  H   UNL     1     -11.362  -2.396  16.786  0.00  0.00    +0.000 HD
ATOM     72  H   UNL     1     -12.592  -3.494  16.128  0.00  0.00    +0.000 HD
ENDBRANCH  64  69
ENDBRANCH  61  64
ENDBRANCH   1  61
TORSDOF 14
ENDMDL
MODEL 3
REMARK VINA RESULT:    -8.996      2.092      3.654
REMARK INTER + INTRA:         -16.995
REMARK INTER:                 -15.554
REMARK INTRA:                  -1.441
REMARK UNBOUND:                -1.950
REMARK  Name = 
REMARK  14 active torsions:
REMARK  status: ('A' for Active; 'I' for Inactive)
REMARK    1  A    between atoms: C_1  and  C_2
REMARK    2  A    between atoms: C_2  and  C_3
REMARK    3  A    between atoms: C_3  and  C_4
REMARK    4  A    between atoms: C_3  and  O_5
REMARK    5  A    between atoms: O_5  and  C_6
REMARK    6  A    between atoms: C_6  and  C_8
REMARK    7  A    between atoms: C_12  and  N_13
REMARK    8  A    between atoms: C_14  and  C_16
REMARK    9  A    between atoms: C_16  and  C_17
REMARK   10  A    between atoms: C_17  and  N_18
REMARK   11  A    between atoms: N_18  and  C_19
REMARK   12  A    between atoms: N_18  and  C_20
REMARK   13  A    between atoms: N_23  and  C_24
REMARK   14  A    between atoms: C_31  and  C_32
REMARK                            x       y       z     vdW  Elec       q    Type
REMARK                         _______ _______ _______ _____ _____    ______ ____
ROOT
ATOM      1  C   UNL     1      -8.435  -5.999  19.085  0.00  0.00    +0.000 C 
ATOM      2  C   UNL     1      -7.739  -6.106  17.674  0.00  0.00    +0.000 C 
ATOM      3  C   UNL     1      -8.414  -7.034  16.644  0.00  0.00    +0.000 C 
ATOM      4  N   UNL     1      -8.851  -8.235  17.353  0.00  0.00    +0.000 N 
ATOM      5  C   UNL     1      -9.961  -7.915  18.241  0.00  0.00    +0.000 C 
ATOM      6  C   UNL     1      -9.346  -7.203  19.448  0.00  0.00    +0.000 C 
ATOM      7  H   UNL     1      -6.707  -6.435  17.763  0.00  0.00    +0.000 HD
ATOM      8  H   UNL     1      -7.640  -5.108  17.222  0.00  0.00    +0.000 HD
ATOM      9  H   UNL     1      -7.691  -7.256  15.850  0.00  0.00    +0.000 HD
ATOM     10  H   UNL     1      -9.265  -6.527  16.167  0.00  0.00    +0.000 HD
ATOM     11  H   UNL     1     -10.531  -8.794  18.557  0.00  0.00    +0.000 HD
ATOM     12  H   UNL     1     -10.694  -7.268  17.740  0.00  0.00    +0.000 HD
ATOM     13  H   UNL     1      -8.742  -7.926  19.998  0.00  0.00    +0.000 HD
ATOM     14  H   UNL     1     -10.151  -6.903  20.128  0.00  0.00    +0.000 HD
ENDROOT
BRANCH   4  15
ATOM     15  C   UNL     1      -8.967  -9.429  16.641  0.00  0.00    +0.000 A 
ATOM     16  N   UNL     1      -9.232  -9.399  15.305  0.00  0.00    +0.000 NA
ATOM     17  C   UNL     1      -9.329 -10.557  14.619  0.00  0.00    +0.000 A 
ATOM     18  N   UNL     1      -9.186 -11.809  15.076  0.00  0.00    +0.000 NA
ATOM     19  C   UNL     1      -8.895 -11.812  16.383  0.00  0.00    +0.000 A 
ATOM     20  N   UNL     1      -8.684 -12.955  17.102  0.00  0.00    +0.000 N 
ATOM     21  C   UNL     1      -8.384 -12.639  18.396  0.00  0.00    +0.000 A 
ATOM     22  C   UNL     1      -8.393 -11.261  18.517  0.00  0.00    +0.000 A 
ATOM     23  C   UNL     1      -8.758 -10.715  17.227  0.00  0.00    +0.000 A 
ATOM     24  H   UNL     1      -9.555 -10.468  13.561  0.00  0.00    +0.000 HD
ATOM     25  H   UNL     1      -8.738 -13.883  16.712  0.00  0.00    +0.000 HD
ATOM     26  H   UNL     1      -8.177 -13.410  19.126  0.00  0.00    +0.000 HD
BRANCH  22  27
ATOM     27  C   UNL     1      -8.071 -10.542  19.773  0.00  0.00    +0.000 C 
ATOM     28  H   UNL     1      -7.825 -11.237  20.581  0.00  0.00    +0.000 HD
ATOM     29  H   UNL     1      -8.936  -9.983  20.127  0.00  0.00    +0.000 HD
ATOM     30  H   UNL     1      -7.217  -9.874  19.630  0.00  0.00    +0.000 HD
ENDBRANCH  22  27
ENDBRANCH   4  15
BRANCH   1  32
ATOM     31  N   UNL     1      -9.041  -3.608  19.646  0.00  0.00    +0.000 N 
ATOM     32  C   UNL     1      -9.390  -4.771  18.969  0.00  0.00    +0.000 C 
ATOM     33  O   UNL     1     -10.437  -4.893  18.331  0.00  0.00    +0.000 OA
ATOM     34  H   UNL     1      -8.112  -3.519  20.031  0.00  0.00    +0.000 HD
BRANCH  31  39
ATOM     35  C   UNL     1     -10.552  -0.449  20.870  0.00  0.00    +0.000 A 
ATOM     36  C   UNL     1     -11.031   0.113  19.682  0.00  0.00    +0.000 A 
ATOM     37  C   UNL     1     -10.899  -0.583  18.483  0.00  0.00    +0.000 A 
ATOM     38  C   UNL     1     -10.272  -1.826  18.461  0.00  0.00    +0.000 A 
ATOM     39  C   UNL     1      -9.762  -2.392  19.629  0.00  0.00    +0.000 A 
ATOM     40  C   UNL     1      -9.942  -1.715  20.847  0.00  0.00    +0.000 A 
ATOM     41  H   UNL     1     -11.503   1.094  19.670  0.00  0.00    +0.000 HD
ATOM     42  H   UNL     1     -11.270  -0.154  17.556  0.00  0.00    +0.000 HD
ATOM     43  H   UNL     1     -10.202  -2.335  17.503  0.00  0.00    +0.000 HD
ATOM     44  H   UNL     1      -9.567  -2.137  21.774  0.00  0.00    +0.000 HD
BRANCH  35  45
ATOM     45  C   UNL     1     -10.629   0.283  22.160  0.00  0.00    +0.000 C 
ATOM     46  O   UNL     1     -11.633   0.885  22.524  0.00  0.00    +0.000 OA
BRANCH  45  47
ATOM     47  O   UNL     1      -9.483   0.144  22.864  0.00  0.00    +0.000 OA
BRANCH  47  48
ATOM     48  C   UNL     1      -9.617  -0.067  24.287  0.00  0.00    +0.000 C 
ATOM     49  H   UNL     1     -10.647   0.145  24.602  0.00  0.00    +0.000 HD
BRANCH  48  50
ATOM     50  C   UNL     1      -8.688   0.934  24.968  0.00  0.00    +0.000 C 
ATOM     51  H   UNL     1      -7.952   0.420  25.597  0.00  0.00    +0.000 HD
ATOM     52  H   UNL     1      -9.239   1.648  25.586  0.00  0.00    +0.000 HD
ATOM     53  H   UNL     1      -8.121   1.499  24.221  0.00  0.00    +0.000 HD
ENDBRANCH  48  50
BRANCH  48  54
ATOM     54  C   UNL     1      -9.239  -1.521  24.604  0.00  0.00    +0.000 C 
ATOM     55  H   UNL     1      -8.607  -1.917  23.801  0.00  0.00    +0.000 HD
ATOM     56  H   UNL     1      -8.615  -1.554  25.507  0.00  0.00    +0.000 HD
BRANCH  54  57
ATOM     57  C   UNL     1     -10.437  -2.440  24.776  0.00  0.00    +0.000 C 
ATOM     58  H   UNL     1     -10.131  -3.483  24.646  0.00  0.00    +0.000 HD
ATOM     59  H   UNL     1     -11.210  -2.219  24.032  0.00  0.00    +0.000 HD
ATOM     60  H   UNL     1     -10.877  -2.348  25.773  0.00  0.00    +0.000 HD
ENDBRANCH  54  57
ENDBRANCH  48  54
ENDBRANCH  47  48
ENDBRANCH  45  47
ENDBRANCH  35  45
ENDBRANCH  31  39
ENDBRANCH   1  32
BRANCH   1  61
ATOM     61  C   UNL     1      -7.390  -5.787  20.249  0.00  0.00    +0.000 C 
ATOM     62  H   UNL     1      -6.827  -6.726  20.308  0.00  0.00    +0.000 HD
ATOM     63  H   UNL     1      -7.933  -5.680  21.197  0.00  0.00    +0.000 HD
BRANCH  61  64
ATOM     64  N   UNL     1      -6.291  -4.797  20.175  0.00  0.00    +0.000 NA
BRANCH  64  65
ATOM     65  C   UNL     1      -6.127  -3.969  21.363  0.00  0.00    +0.000 C 
ATOM     66  H   UNL     1      -6.865  -4.229  22.124  0.00  0.00    +0.000 HD
ATOM     67  H   UNL     1      -6.325  -2.915  21.135  0.00  0.00    +0.000 HD
ATOM     68  H   UNL     1      -5.113  -4.040  21.774  0.00  0.00    +0.000 HD
ENDBRANCH  64  65
BRANCH  64  69
ATOM     69  C   UNL     1      -5.016  -5.486  19.904  0.00  0.00    +0.000 C 
ATOM     70  H   UNL     1      -5.021  -6.500  20.319  0.00  0.00    +0.000 HD
ATOM     71  H   UNL     1      -4.161  -4.944  20.326  0.00  0.00    +0.000 HD
ATOM     72  H   UNL     1      -4.854  -5.595  18.826  0.00  0.00    +0.000 HD
ENDBRANCH  64  69
ENDBRANCH  61  64
ENDBRANCH   1  61
TORSDOF 14
ENDMDL
MODEL 4
REMARK VINA RESULT:    -8.973      2.109      3.859
REMARK INTER + INTRA:         -16.956
REMARK INTER:                 -14.913
REMARK INTRA:                  -2.043
REMARK UNBOUND:                -1.950
REMARK  Name = 
REMARK  14 active torsions:
REMARK  status: ('A' for Active; 'I' for Inactive)
REMARK    1  A    between atoms: C_1  and  C_2
REMARK    2  A    between atoms: C_2  and  C_3
REMARK    3  A    between atoms: C_3  and  C_4
REMARK    4  A    between atoms: C_3  and  O_5
REMARK    5  A    between atoms: O_5  and  C_6
REMARK    6  A    between atoms: C_6  and  C_8
REMARK    7  A    between atoms: C_12  and  N_13
REMARK    8  A    between atoms: C_14  and  C_16
REMARK    9  A    between atoms: C_16  and  C_17
REMARK   10  A    between atoms: C_17  and  N_18
REMARK   11  A    between atoms: N_18  and  C_19
REMARK   12  A    between atoms: N_18  and  C_20
REMARK   13  A    between atoms: N_23  and  C_24
REMARK   14  A    between atoms: C_31  and  C_32
REMARK                            x       y       z     vdW  Elec       q    Type
REMARK                         _______ _______ _______ _____ _____    ______ ____
ROOT
ATOM      1  C   UNL     1      -8.943  -6.114  18.796  0.00  0.00    +0.000 C 
ATOM      2  C   UNL     1      -8.029  -6.275  17.521  0.00  0.00    +0.000 C 
ATOM      3  C   UNL     1      -8.515  -7.272  16.450  0.00  0.00    +0.000 C 
ATOM      4  N   UNL     1      -9.038  -8.446  17.144  0.00  0.00    +0.000 N 
ATOM      5  C   UNL     1     -10.281  -8.108  17.827  0.00  0.00    +0.000 C 
ATOM      6  C   UNL     1      -9.880  -7.320  19.075  0.00  0.00    +0.000 C 
ATOM      7  H   UNL     1      -7.019  -6.573  17.790  0.00  0.00    +0.000 HD
ATOM      8  H   UNL     1      -7.876  -5.299  17.037  0.00  0.00    +0.000 HD
ATOM      9  H   UNL     1      -7.670  -7.515  15.793  0.00  0.00    +0.000 HD
ATOM     10  H   UNL     1      -9.286  -6.812  15.816  0.00  0.00    +0.000 HD
ATOM     11  H   UNL     1     -10.879  -8.984  18.095  0.00  0.00    +0.000 HD
ATOM     12  H   UNL     1     -10.935  -7.508  17.181  0.00  0.00    +0.000 HD
ATOM     13  H   UNL     1      -9.359  -7.998  19.752  0.00  0.00    +0.000 HD
ATOM     14  H   UNL     1     -10.788  -7.007  19.601  0.00  0.00    +0.000 HD
ENDROOT
BRANCH   4  15
ATOM     15  C   UNL     1      -9.018  -9.677  16.490  0.00  0.00    +0.000 A 
ATOM     16  N   UNL     1      -9.202  -9.730  15.141  0.00  0.00    +0.000 NA
ATOM     17  C   UNL     1      -9.168 -10.923  14.511  0.00  0.00    +0.000 A 
ATOM     18  N   UNL     1      -8.958 -12.137  15.040  0.00  0.00    +0.000 NA
ATOM     19  C   UNL     1      -8.749 -12.056  16.360  0.00  0.00    +0.000 A 
ATOM     20  N   UNL     1      -8.495 -13.143  17.148  0.00  0.00    +0.000 N 
ATOM     21  C   UNL     1      -8.300 -12.744  18.438  0.00  0.00    +0.000 A 
ATOM     22  C   UNL     1      -8.422 -11.367  18.487  0.00  0.00    +0.000 A 
ATOM     23  C   UNL     1      -8.748 -10.913  17.152  0.00  0.00    +0.000 A 
ATOM     24  H   UNL     1      -9.336 -10.902  13.438  0.00  0.00    +0.000 HD
ATOM     25  H   UNL     1      -8.454 -14.090  16.803  0.00  0.00    +0.000 HD
ATOM     26  H   UNL     1      -8.080 -13.461  19.218  0.00  0.00    +0.000 HD
BRANCH  22  27
ATOM     27  C   UNL     1      -8.234 -10.567  19.721  0.00  0.00    +0.000 C 
ATOM     28  H   UNL     1      -8.503 -11.138  20.615  0.00  0.00    +0.000 HD
ATOM     29  H   UNL     1      -8.895  -9.702  19.721  0.00  0.00    +0.000 HD
ATOM     30  H   UNL     1      -7.191 -10.251  19.824  0.00  0.00    +0.000 HD
ENDBRANCH  22  27
ENDBRANCH   4  15
BRANCH   1  32
ATOM     31  N   UNL     1      -9.319  -3.658  18.319  0.00  0.00    +0.000 N 
ATOM     32  C   UNL     1      -9.888  -4.918  18.463  0.00  0.00    +0.000 C 
ATOM     33  O   UNL     1     -11.101  -5.123  18.393  0.00  0.00    +0.000 OA
ATOM     34  H   UNL     1      -8.316  -3.574  18.246  0.00  0.00    +0.000 HD
BRANCH  31  39
ATOM     35  C   UNL     1     -11.014  -0.387  18.754  0.00  0.00    +0.000 A 
ATOM     36  C   UNL     1     -11.238  -0.008  17.427  0.00  0.00    +0.000 A 
ATOM     37  C   UNL     1     -10.874  -0.862  16.390  0.00  0.00    +0.000 A 
ATOM     38  C   UNL     1     -10.268  -2.084  16.671  0.00  0.00    +0.000 A 
ATOM     39  C   UNL     1     -10.009  -2.470  17.985  0.00  0.00    +0.000 A 
ATOM     40  C   UNL     1     -10.424  -1.632  19.034  0.00  0.00    +0.000 A 
ATOM     41  H   UNL     1     -11.688   0.953  17.181  0.00  0.00    +0.000 HD
ATOM     42  H   UNL     1     -11.046  -0.575  15.356  0.00  0.00    +0.000 HD
ATOM     43  H   UNL     1     -10.011  -2.722  15.828  0.00  0.00    +0.000 HD
ATOM     44  H   UNL     1     -10.248  -1.912  20.067  0.00  0.00    +0.000 HD
BRANCH  35  45
ATOM     45  C   UNL     1     -11.343   0.518  19.885  0.00  0.00    +0.000 C 
ATOM     46  O   UNL     1     -12.260   1.328  19.843  0.00  0.00    +0.000 OA
BRANCH  45  47
ATOM     47  O   UNL     1     -10.536   0.280  20.944  0.00  0.00    +0.000 OA
BRANCH  47  48
ATOM     48  C   UNL     1     -11.151   0.322  22.251  0.00  0.00    +0.000 C 
ATOM     49  H   UNL     1     -11.845   1.170  22.311  0.00  0.00    +0.000 HD
BRANCH  48  50
ATOM     50  C   UNL     1     -10.027   0.545  23.259  0.00  0.00    +0.000 C 
ATOM     51  H   UNL     1      -9.069   0.191  22.862  0.00  0.00    +0.000 HD
ATOM     52  H   UNL     1     -10.222   0.037  24.207  0.00  0.00    +0.000 HD
ATOM     53  H   UNL     1      -9.905   1.614  23.465  0.00  0.00    +0.000 HD
ENDBRANCH  48  50
BRANCH  48  54
ATOM     54  C   UNL     1     -11.890  -1.004  22.488  0.00  0.00    +0.000 C 
ATOM     55  H   UNL     1     -12.847  -0.804  22.984  0.00  0.00    +0.000 HD
ATOM     56  H   UNL     1     -12.151  -1.460  21.525  0.00  0.00    +0.000 HD
BRANCH  54  57
ATOM     57  C   UNL     1     -11.106  -1.997  23.329  0.00  0.00    +0.000 C 
ATOM     58  H   UNL     1     -10.357  -2.503  22.712  0.00  0.00    +0.000 HD
ATOM     59  H   UNL     1     -11.767  -2.759  23.753  0.00  0.00    +0.000 HD
ATOM     60  H   UNL     1     -10.576  -1.502  24.148  0.00  0.00    +0.000 HD
ENDBRANCH  54  57
ENDBRANCH  48  54
ENDBRANCH  47  48
ENDBRANCH  45  47
ENDBRANCH  35  45
ENDBRANCH  31  39
ENDBRANCH   1  32
BRANCH   1  61
ATOM     61  C   UNL     1      -8.101  -5.815  20.097  0.00  0.00    +0.000 C 
ATOM     62  H   UNL     1      -7.387  -6.643  20.177  0.00  0.00    +0.000 HD
ATOM     63  H   UNL     1      -8.764  -5.880  20.970  0.00  0.00    +0.000 HD
BRANCH  61  64
ATOM     64  N   UNL     1      -7.201  -4.646  20.226  0.00  0.00    +0.000 NA
BRANCH  64  65
ATOM     65  C   UNL     1      -7.391  -3.852  21.433  0.00  0.00    +0.000 C 
ATOM     66  H   UNL     1      -8.207  -3.138  21.305  0.00  0.00    +0.000 HD
ATOM     67  H   UNL     1      -6.510  -3.232  21.635  0.00  0.00    +0.000 HD
ATOM     68  H   UNL     1      -7.569  -4.481  22.312  0.00  0.00    +0.000 HD
ENDBRANCH  64  65
BRANCH  64  69
ATOM     69  C   UNL     1      -5.797  -5.089  20.172  0.00  0.00    +0.000 C 
ATOM     70  H   UNL     1      -5.111  -4.238  20.259  0.00  0.00    +0.000 HD
ATOM     71  H   UNL     1      -5.571  -5.619  19.238  0.00  0.00    +0.000 HD
ATOM     72  H   UNL     1      -5.567  -5.758  21.008  0.00  0.00    +0.000 HD
ENDBRANCH  64  69
ENDBRANCH  61  64
ENDBRANCH   1  61
TORSDOF 14
ENDMDL
MODEL 5
REMARK VINA RESULT:    -8.898      1.741      2.835
REMARK INTER + INTRA:         -16.830
REMARK INTER:                 -17.353
REMARK INTRA:                   0.523
REMARK UNBOUND:                -1.950
REMARK  Name = 
REMARK  14 active torsions:
REMARK  status: ('A' for Active; 'I' for Inactive)
REMARK    1  A    between atoms: C_1  and  C_2
REMARK    2  A    between atoms: C_2  and  C_3
REMARK    3  A    between atoms: C_3  and  C_4
REMARK    4  A    between atoms: C_3  and  O_5
REMARK    5  A    between atoms: O_5  and  C_6
REMARK    6  A    between atoms: C_6  and  C_8
REMARK    7  A    between atoms: C_12  and  N_13
REMARK    8  A    between atoms: C_14  and  C_16
REMARK    9  A    between atoms: C_16  and  C_17
REMARK   10  A    between atoms: C_17  and  N_18
REMARK   11  A    between atoms: N_18  and  C_19
REMARK   12  A    between atoms: N_18  and  C_20
REMARK   13  A    between atoms: N_23  and  C_24
REMARK   14  A    between atoms: C_31  and  C_32
REMARK                            x       y       z     vdW  Elec       q    Type
REMARK                         _______ _______ _______ _____ _____    ______ ____
ROOT
ATOM      1  C   UNL     1     -10.246  -5.578  17.420  0.00  0.00    +0.000 C 
ATOM      2  C   UNL     1     -10.843  -6.775  18.255  0.00  0.00    +0.000 C 
ATOM      3  C   UNL     1     -10.053  -8.099  18.219  0.00  0.00    +0.000 C 
ATOM      4  N   UNL     1      -9.598  -8.303  16.846  0.00  0.00    +0.000 N 
ATOM      5  C   UNL     1      -8.566  -7.328  16.513  0.00  0.00    +0.000 C 
ATOM      6  C   UNL     1      -9.295  -6.006  16.270  0.00  0.00    +0.000 C 
ATOM      7  H   UNL     1     -11.859  -7.008  17.947  0.00  0.00    +0.000 HD
ATOM      8  H   UNL     1     -10.968  -6.480  19.307  0.00  0.00    +0.000 HD
ATOM      9  H   UNL     1     -10.711  -8.905  18.566  0.00  0.00    +0.000 HD
ATOM     10  H   UNL     1      -9.203  -8.061  18.915  0.00  0.00    +0.000 HD
ATOM     11  H   UNL     1      -7.969  -7.610  15.640  0.00  0.00    +0.000 HD
ATOM     12  H   UNL     1      -7.839  -7.228  17.331  0.00  0.00    +0.000 HD
ATOM     13  H   UNL     1      -9.891  -6.108  15.363  0.00  0.00    +0.000 HD
ATOM     14  H   UNL     1      -8.552  -5.228  16.057  0.00  0.00    +0.000 HD
ENDROOT
BRANCH   4  15
ATOM     15  C   UNL     1      -9.370  -9.605  16.400  0.00  0.00    +0.000 A 
ATOM     16  N   UNL     1      -9.530  -9.906  15.080  0.00  0.00    +0.000 NA
ATOM     17  C   UNL     1      -9.295 -11.164  14.652  0.00  0.00    +0.000 A 
ATOM     18  N   UNL     1      -8.895 -12.225  15.367  0.00  0.00    +0.000 NA
ATOM     19  C   UNL     1      -8.714 -11.897  16.652  0.00  0.00    +0.000 A 
ATOM     20  N   UNL     1      -8.294 -12.785  17.602  0.00  0.00    +0.000 N 
ATOM     21  C   UNL     1      -8.179 -12.155  18.807  0.00  0.00    +0.000 A 
ATOM     22  C   UNL     1      -8.525 -10.827  18.634  0.00  0.00    +0.000 A 
ATOM     23  C   UNL     1      -8.908 -10.656  17.249  0.00  0.00    +0.000 A 
ATOM     24  H   UNL     1      -9.454 -11.345  13.593  0.00  0.00    +0.000 HD
ATOM     25  H   UNL     1      -8.095 -13.756  17.415  0.00  0.00    +0.000 HD
ATOM     26  H   UNL     1      -7.852 -12.690  19.689  0.00  0.00    +0.000 HD
BRANCH  22  27
ATOM     27  C   UNL     1      -8.482  -9.816  19.718  0.00  0.00    +0.000 C 
ATOM     28  H   UNL     1      -9.218  -9.023  19.556  0.00  0.00    +0.000 HD
ATOM     29  H   UNL     1      -7.516  -9.315  19.737  0.00  0.00    +0.000 HD
ATOM     30  H   UNL     1      -8.692 -10.278  20.688  0.00  0.00    +0.000 HD
ENDBRANCH  22  27
ENDBRANCH   4  15
BRANCH   1  32
ATOM     31  N   UNL     1      -8.202  -5.409  18.902  0.00  0.00    +0.000 N 
ATOM     32  C   UNL     1      -9.355  -4.791  18.430  0.00  0.00    +0.000 C 
ATOM     33  O   UNL     1      -9.730  -3.680  18.811  0.00  0.00    +0.000 OA
ATOM     34  H   UNL     1      -7.873  -6.251  18.453  0.00  0.00    +0.000 HD
BRANCH  31  39
ATOM     35  C   UNL     1      -6.848  -3.358  21.680  0.00  0.00    +0.000 A 
ATOM     36  C   UNL     1      -5.512  -3.770  21.709  0.00  0.00    +0.000 A 
ATOM     37  C   UNL     1      -5.049  -4.689  20.771  0.00  0.00    +0.000 A 
ATOM     38  C   UNL     1      -5.919  -5.216  19.819  0.00  0.00    +0.000 A 
ATOM     39  C   UNL     1      -7.261  -4.840  19.790  0.00  0.00    +0.000 A 
ATOM     40  C   UNL     1      -7.716  -3.872  20.702  0.00  0.00    +0.000 A 
ATOM     41  H   UNL     1      -4.819  -3.391  22.458  0.00  0.00    +0.000 HD
ATOM     42  H   UNL     1      -4.012  -5.014  20.786  0.00  0.00    +0.000 HD
ATOM     43  H   UNL     1      -5.509  -5.922  19.102  0.00  0.00    +0.000 HD
ATOM     44  H   UNL     1      -8.753  -3.552  20.695  0.00  0.00    +0.000 HD
BRANCH  35  45
ATOM     45  C   UNL     1      -7.391  -2.417  22.693  0.00  0.00    +0.000 C 
ATOM     46  O   UNL     1      -6.920  -1.302  22.885  0.00  0.00    +0.000 OA
BRANCH  45  47
ATOM     47  O   UNL     1      -8.474  -2.943  23.309  0.00  0.00    +0.000 OA
BRANCH  47  48
ATOM     48  C   UNL     1      -9.328  -2.019  24.019  0.00  0.00    +0.000 C 
ATOM     49  H   UNL     1      -8.990  -0.989  23.850  0.00  0.00    +0.000 HD
BRANCH  48  50
ATOM     50  C   UNL     1      -9.181  -2.338  25.504  0.00  0.00    +0.000 C 
ATOM     51  H   UNL     1      -9.356  -1.446  26.117  0.00  0.00    +0.000 HD
ATOM     52  H   UNL     1      -8.190  -2.736  25.740  0.00  0.00    +0.000 HD
ATOM     53  H   UNL     1      -9.926  -3.080  25.811  0.00  0.00    +0.000 HD
ENDBRANCH  48  50
BRANCH  48  54
ATOM     54  C   UNL     1     -10.771  -2.206  23.524  0.00  0.00    +0.000 C 
ATOM     55  H   UNL     1     -11.228  -1.225  23.352  0.00  0.00    +0.000 HD
ATOM     56  H   UNL     1     -10.765  -2.700  22.544  0.00  0.00    +0.000 HD
BRANCH  54  57
ATOM     57  C   UNL     1     -11.649  -2.987  24.487  0.00  0.00    +0.000 C 
ATOM     58  H   UNL     1     -11.480  -2.642  25.513  0.00  0.00    +0.000 HD
ATOM     59  H   UNL     1     -11.420  -4.056  24.447  0.00  0.00    +0.000 HD
ATOM     60  H   UNL     1     -12.711  -2.850  24.266  0.00  0.00    +0.000 HD
ENDBRANCH  54  57
ENDBRANCH  48  54
ENDBRANCH  47  48
ENDBRANCH  45  47
ENDBRANCH  35  45
ENDBRANCH  31  39
ENDBRANCH   1  32
BRANCH   1  61
ATOM     61  C   UNL     1     -11.373  -4.647  16.826  0.00  0.00    +0.000 C 
ATOM     62  H   UNL     1     -11.643  -3.962  17.638  0.00  0.00    +0.000 HD
ATOM     63  H   UNL     1     -12.261  -5.257  16.615  0.00  0.00    +0.000 HD
BRANCH  61  64
ATOM     64  N   UNL     1     -11.132  -3.697  15.715  0.00  0.00    +0.000 NA
BRANCH  64  65
ATOM     65  C   UNL     1     -11.648  -4.120  14.420  0.00  0.00    +0.000 C 
ATOM     66  H   UNL     1     -12.483  -4.812  14.540  0.00  0.00    +0.000 HD
ATOM     67  H   UNL     1     -10.893  -4.691  13.867  0.00  0.00    +0.000 HD
ATOM     68  H   UNL     1     -11.945  -3.267  13.799  0.00  0.00    +0.000 HD
ENDBRANCH  64  65
BRANCH  64  69
ATOM     69  C   UNL     1     -11.716  -2.385  16.047  0.00  0.00    +0.000 C 
ATOM     70  H   UNL     1     -12.729  -2.290  15.640  0.00  0.00    +0.000 HD
ATOM     71  H   UNL     1     -11.110  -1.557  15.658  0.00  0.00    +0.000 HD
ATOM     72  H   UNL     1     -11.807  -2.262  17.132  0.00  0.00    +0.000 HD
ENDBRANCH  64  69
ENDBRANCH  61  64
ENDBRANCH   1  61
TORSDOF 14
ENDMDL
MODEL 6
REMARK VINA RESULT:    -8.784      2.451      5.834
REMARK INTER + INTRA:         -16.640
REMARK INTER:                 -14.554
REMARK INTRA:                  -2.085
REMARK UNBOUND:                -1.950
REMARK  Name = 
REMARK  14 active torsions:
REMARK  status: ('A' for Active; 'I' for Inactive)
REMARK    1  A    between atoms: C_1  and  C_2
REMARK    2  A    between atoms: C_2  and  C_3
REMARK    3  A    between atoms: C_3  and  C_4
REMARK    4  A    between atoms: C_3  and  O_5
REMARK    5  A    between atoms: O_5  and  C_6
REMARK    6  A    between atoms: C_6  and  C_8
REMARK    7  A    between atoms: C_12  and  N_13
REMARK    8  A    between atoms: C_14  and  C_16
REMARK    9  A    between atoms: C_16  and  C_17
REMARK   10  A    between atoms: C_17  and  N_18
REMARK   11  A    between atoms: N_18  and  C_19
REMARK   12  A    between atoms: N_18  and  C_20
REMARK   13  A    between atoms: N_23  and  C_24
REMARK   14  A    between atoms: C_31  and  C_32
REMARK                            x       y       z     vdW  Elec       q    Type
REMARK                         _______ _______ _______ _____ _____    ______ ____
ROOT
ATOM      1  C   UNL     1      -8.949  -6.015  18.800  0.00  0.00    +0.000 C 
ATOM      2  C   UNL     1      -8.029  -6.185  17.530  0.00  0.00    +0.000 C 
ATOM      3  C   UNL     1      -8.524  -7.170  16.451  0.00  0.00    +0.000 C 
ATOM      4  N   UNL     1      -9.070  -8.338  17.137  0.00  0.00    +0.000 N 
ATOM      5  C   UNL     1     -10.312  -7.984  17.813  0.00  0.00    +0.000 C 
ATOM      6  C   UNL     1      -9.907  -7.208  19.067  0.00  0.00    +0.000 C 
ATOM      7  H   UNL     1      -7.026  -6.500  17.804  0.00  0.00    +0.000 HD
ATOM      8  H   UNL     1      -7.858  -5.210  17.051  0.00  0.00    +0.000 HD
ATOM      9  H   UNL     1      -7.679  -7.423  15.799  0.00  0.00    +0.000 HD
ATOM     10  H   UNL     1      -9.284  -6.695  15.814  0.00  0.00    +0.000 HD
ATOM     11  H   UNL     1     -10.926  -8.851  18.074  0.00  0.00    +0.000 HD
ATOM     12  H   UNL     1     -10.953  -7.370  17.165  0.00  0.00    +0.000 HD
ATOM     13  H   UNL     1      -9.402  -7.897  19.745  0.00  0.00    +0.000 HD
ATOM     14  H   UNL     1     -10.814  -6.882  19.588  0.00  0.00    +0.000 HD
ENDROOT
BRANCH   4  15
ATOM     15  C   UNL     1      -9.066  -9.567  16.478  0.00  0.00    +0.000 A 
ATOM     16  N   UNL     1      -9.262  -9.613  15.130  0.00  0.00    +0.000 NA
ATOM     17  C   UNL     1      -9.243 -10.804  14.495  0.00  0.00    +0.000 A 
ATOM     18  N   UNL     1      -9.037 -12.021  15.017  0.00  0.00    +0.000 NA
ATOM     19  C   UNL     1      -8.816 -11.947  16.335  0.00  0.00    +0.000 A 
ATOM     20  N   UNL     1      -8.564 -13.040  17.116  0.00  0.00    +0.000 N 
ATOM     21  C   UNL     1      -8.355 -12.647  18.407  0.00  0.00    +0.000 A 
ATOM     22  C   UNL     1      -8.465 -11.270  18.462  0.00  0.00    +0.000 A 
ATOM     23  C   UNL     1      -8.799 -10.808  17.132  0.00  0.00    +0.000 A 
ATOM     24  H   UNL     1      -9.419 -10.776  13.424  0.00  0.00    +0.000 HD
ATOM     25  H   UNL     1      -8.533 -13.986  16.768  0.00  0.00    +0.000 HD
ATOM     26  H   UNL     1      -8.133 -13.370  19.181  0.00  0.00    +0.000 HD
BRANCH  22  27
ATOM     27  C   UNL     1      -8.260 -10.476  19.698  0.00  0.00    +0.000 C 
ATOM     28  H   UNL     1      -8.649 -10.997  20.578  0.00  0.00    +0.000 HD
ATOM     29  H   UNL     1      -8.813  -9.540  19.648  0.00  0.00    +0.000 HD
ATOM     30  H   UNL     1      -7.196 -10.283  19.863  0.00  0.00    +0.000 HD
ENDBRANCH  22  27
ENDBRANCH   4  15
BRANCH   1  32
ATOM     31  N   UNL     1      -9.279  -3.556  18.304  0.00  0.00    +0.000 N 
ATOM     32  C   UNL     1      -9.873  -4.803  18.465  0.00  0.00    +0.000 C 
ATOM     33  O   UNL     1     -11.091  -4.984  18.410  0.00  0.00    +0.000 OA
ATOM     34  H   UNL     1      -8.275  -3.493  18.219  0.00  0.00    +0.000 HD
BRANCH  31  39
ATOM     35  C   UNL     1     -11.065  -1.035  16.251  0.00  0.00    +0.000 A 
ATOM     36  C   UNL     1     -11.428  -0.092  17.217  0.00  0.00    +0.000 A 
ATOM     37  C   UNL     1     -11.034  -0.267  18.540  0.00  0.00    +0.000 A 
ATOM     38  C   UNL     1     -10.297  -1.390  18.908  0.00  0.00    +0.000 A 
ATOM     39  C   UNL     1      -9.948  -2.358  17.966  0.00  0.00    +0.000 A 
ATOM     40  C   UNL     1     -10.300  -2.155  16.621  0.00  0.00    +0.000 A 
ATOM     41  H   UNL     1     -12.024   0.782  16.958  0.00  0.00    +0.000 HD
ATOM     42  H   UNL     1     -11.312   0.462  19.297  0.00  0.00    +0.000 HD
ATOM     43  H   UNL     1     -10.004  -1.478  19.951  0.00  0.00    +0.000 HD
ATOM     44  H   UNL     1     -10.031  -2.885  15.864  0.00  0.00    +0.000 HD
BRANCH  35  45
ATOM     45  C   UNL     1     -11.508  -0.909  14.839  0.00  0.00    +0.000 C 
ATOM     46  O   UNL     1     -11.357   0.114  14.183  0.00  0.00    +0.000 OA
BRANCH  45  47
ATOM     47  O   UNL     1     -12.038  -2.071  14.393  0.00  0.00    +0.000 OA
BRANCH  47  48
ATOM     48  C   UNL     1     -11.507  -2.592  13.154  0.00  0.00    +0.000 C 
ATOM     49  H   UNL     1     -10.672  -1.969  12.812  0.00  0.00    +0.000 HD
BRANCH  48  50
ATOM     50  C   UNL     1     -12.630  -2.503  12.124  0.00  0.00    +0.000 C 
ATOM     51  H   UNL     1     -13.336  -1.706  12.382  0.00  0.00    +0.000 HD
ATOM     52  H   UNL     1     -13.180  -3.445  12.037  0.00  0.00    +0.000 HD
ATOM     53  H   UNL     1     -12.224  -2.256  11.137  0.00  0.00    +0.000 HD
ENDBRANCH  48  50
BRANCH  48  54
ATOM     54  C   UNL     1     -11.047  -4.039  13.388  0.00  0.00    +0.000 C 
ATOM     55  H   UNL     1     -11.396  -4.671  12.563  0.00  0.00    +0.000 HD
ATOM     56  H   UNL     1      -9.951  -4.091  13.349  0.00  0.00    +0.000 HD
BRANCH  54  57
ATOM     57  C   UNL     1     -11.542  -4.633  14.696  0.00  0.00    +0.000 C 
ATOM     58  H   UNL     1     -11.502  -5.726  14.651  0.00  0.00    +0.000 HD
ATOM     59  H   UNL     1     -12.578  -4.339  14.892  0.00  0.00    +0.000 HD
ATOM     60  H   UNL     1     -10.926  -4.316  15.542  0.00  0.00    +0.000 HD
ENDBRANCH  54  57
ENDBRANCH  48  54
ENDBRANCH  47  48
ENDBRANCH  45  47
ENDBRANCH  35  45
ENDBRANCH  31  39
ENDBRANCH   1  32
BRANCH   1  61
ATOM     61  C   UNL     1      -8.111  -5.735  20.108  0.00  0.00    +0.000 C 
ATOM     62  H   UNL     1      -7.320  -6.494  20.113  0.00  0.00    +0.000 HD
ATOM     63  H   UNL     1      -8.745  -5.930  20.982  0.00  0.00    +0.000 HD
BRANCH  61  64
ATOM     64  N   UNL     1      -7.324  -4.497  20.313  0.00  0.00    +0.000 NA
BRANCH  64  65
ATOM     65  C   UNL     1      -7.648  -3.756  21.524  0.00  0.00    +0.000 C 
ATOM     66  H   UNL     1      -6.995  -4.051  22.348  0.00  0.00    +0.000 HD
ATOM     67  H   UNL     1      -8.659  -3.999  21.873  0.00  0.00    +0.000 HD
ATOM     68  H   UNL     1      -7.599  -2.673  21.367  0.00  0.00    +0.000 HD
ENDBRANCH  64  65
BRANCH  64  69
ATOM     69  C   UNL     1      -5.886  -4.818  20.329  0.00  0.00    +0.000 C 
ATOM     70  H   UNL     1      -5.509  -4.889  21.355  0.00  0.00    +0.000 HD
ATOM     71  H   UNL     1      -5.293  -4.064  19.796  0.00  0.00    +0.000 HD
ATOM     72  H   UNL     1      -5.699  -5.791  19.863  0.00  0.00    +0.000 HD
ENDBRANCH  64  69
ENDBRANCH  61  64
ENDBRANCH   1  61
TORSDOF 14
ENDMDL
MODEL 7
REMARK VINA RESULT:    -8.618      3.136      6.533
REMARK INTER + INTRA:         -16.362
REMARK INTER:                 -14.402
REMARK INTRA:                  -1.960
REMARK UNBOUND:                -1.950
REMARK  Name = 
REMARK  14 active torsions:
REMARK  status: ('A' for Active; 'I' for Inactive)
REMARK    1  A    between atoms: C_1  and  C_2
REMARK    2  A    between atoms: C_2  and  C_3
REMARK    3  A    between atoms: C_3  and  C_4
REMARK    4  A    between atoms: C_3  and  O_5
REMARK    5  A    between atoms: O_5  and  C_6
REMARK    6  A    between atoms: C_6  and  C_8
REMARK    7  A    between atoms: C_12  and  N_13
REMARK    8  A    between atoms: C_14  and  C_16
REMARK    9  A    between atoms: C_16  and  C_17
REMARK   10  A    between atoms: C_17  and  N_18
REMARK   11  A    between atoms: N_18  and  C_19
REMARK   12  A    between atoms: N_18  and  C_20
REMARK   13  A    between atoms: N_23  and  C_24
REMARK   14  A    between atoms: C_31  and  C_32
REMARK                            x       y       z     vdW  Elec       q    Type
REMARK                         _______ _______ _______ _____ _____    ______ ____
ROOT
ATOM      1  C   UNL     1      -9.804  -6.292  17.564  0.00  0.00    +0.000 C 
ATOM      2  C   UNL     1      -8.539  -6.629  16.685  0.00  0.00    +0.000 C 
ATOM      3  C   UNL     1      -8.659  -7.849  15.749  0.00  0.00    +0.000 C 
ATOM      4  N   UNL     1      -9.358  -8.901  16.484  0.00  0.00    +0.000 N 
ATOM      5  C   UNL     1     -10.755  -8.531  16.676  0.00  0.00    +0.000 C 
ATOM      6  C   UNL     1     -10.767  -7.488  17.794  0.00  0.00    +0.000 C 
ATOM      7  H   UNL     1      -7.659  -6.792  17.300  0.00  0.00    +0.000 HD
ATOM      8  H   UNL     1      -8.255  -5.758  16.077  0.00  0.00    +0.000 HD
ATOM      9  H   UNL     1      -7.651  -8.152  15.442  0.00  0.00    +0.000 HD
ATOM     10  H   UNL     1      -9.203  -7.581  14.832  0.00  0.00    +0.000 HD
ATOM     11  H   UNL     1     -11.397  -9.380  16.929  0.00  0.00    +0.000 HD
ATOM     12  H   UNL     1     -11.185  -8.119  15.753  0.00  0.00    +0.000 HD
ATOM     13  H   UNL     1     -10.474  -7.980  18.722  0.00  0.00    +0.000 HD
ATOM     14  H   UNL     1     -11.798  -7.146  17.946  0.00  0.00    +0.000 HD
ENDROOT
BRANCH   4  15
ATOM     15  C   UNL     1      -9.124 -10.232  16.137  0.00  0.00    +0.000 A 
ATOM     16  N   UNL     1      -9.179 -10.611  14.829  0.00  0.00    +0.000 NA
ATOM     17  C   UNL     1      -8.937 -11.896  14.498  0.00  0.00    +0.000 A 
ATOM     18  N   UNL     1      -8.622 -12.918  15.307  0.00  0.00    +0.000 NA
ATOM     19  C   UNL     1      -8.543 -12.515  16.581  0.00  0.00    +0.000 A 
ATOM     20  N   UNL     1      -8.223 -13.350  17.614  0.00  0.00    +0.000 N 
ATOM     21  C   UNL     1      -8.197 -12.649  18.785  0.00  0.00    +0.000 A 
ATOM     22  C   UNL     1      -8.497 -11.329  18.504  0.00  0.00    +0.000 A 
ATOM     23  C   UNL     1      -8.758 -11.236  17.084  0.00  0.00    +0.000 A 
ATOM     24  H   UNL     1      -9.010 -12.139  13.443  0.00  0.00    +0.000 HD
ATOM     25  H   UNL     1      -8.032 -14.335  17.504  0.00  0.00    +0.000 HD
ATOM     26  H   UNL     1      -7.957 -13.135  19.722  0.00  0.00    +0.000 HD
BRANCH  22  27
ATOM     27  C   UNL     1      -8.523 -10.255  19.526  0.00  0.00    +0.000 C 
ATOM     28  H   UNL     1      -9.447 -10.280  20.111  0.00  0.00    +0.000 HD
ATOM     29  H   UNL     1      -8.507  -9.275  19.052  0.00  0.00    +0.000 HD
ATOM     30  H   UNL     1      -7.682 -10.357  20.219  0.00  0.00    +0.000 HD
ENDBRANCH  22  27
ENDBRANCH   4  15
BRANCH   1  32
ATOM     31  N   UNL     1     -10.367  -3.907  16.936  0.00  0.00    +0.000 N 
ATOM     32  C   UNL     1     -10.613  -5.258  16.721  0.00  0.00    +0.000 C 
ATOM     33  O   UNL     1     -11.473  -5.673  15.941  0.00  0.00    +0.000 OA
ATOM     34  H   UNL     1      -9.561  -3.631  17.477  0.00  0.00    +0.000 HD
BRANCH  31  39
ATOM     35  C   UNL     1     -10.932  -1.329  14.329  0.00  0.00    +0.000 A 
ATOM     36  C   UNL     1     -12.179  -0.818  14.703  0.00  0.00    +0.000 A 
ATOM     37  C   UNL     1     -12.806  -1.293  15.852  0.00  0.00    +0.000 A 
ATOM     38  C   UNL     1     -12.206  -2.290  16.616  0.00  0.00    +0.000 A 
ATOM     39  C   UNL     1     -10.976  -2.834  16.245  0.00  0.00    +0.000 A 
ATOM     40  C   UNL     1     -10.318  -2.318  15.116  0.00  0.00    +0.000 A 
ATOM     41  H   UNL     1     -12.680  -0.055  14.109  0.00  0.00    +0.000 HD
ATOM     42  H   UNL     1     -13.775  -0.900  16.150  0.00  0.00    +0.000 HD
ATOM     43  H   UNL     1     -12.729  -2.621  17.510  0.00  0.00    +0.000 HD
ATOM     44  H   UNL     1      -9.354  -2.713  14.811  0.00  0.00    +0.000 HD
BRANCH  35  45
ATOM     45  C   UNL     1     -10.254  -0.884  13.084  0.00  0.00    +0.000 C 
ATOM     46  O   UNL     1      -9.131  -0.395  13.077  0.00  0.00    +0.000 OA
BRANCH  45  47
ATOM     47  O   UNL     1     -11.020  -1.140  11.999  0.00  0.00    +0.000 OA
BRANCH  47  48
ATOM     48  C   UNL     1     -10.800  -2.404  11.334  0.00  0.00    +0.000 C 
ATOM     49  H   UNL     1     -10.035  -2.980  11.868  0.00  0.00    +0.000 HD
BRANCH  48  50
ATOM     50  C   UNL     1     -10.274  -2.079   9.938  0.00  0.00    +0.000 C 
ATOM     51  H   UNL     1      -9.927  -2.985   9.429  0.00  0.00    +0.000 HD
ATOM     52  H   UNL     1      -9.453  -1.358   9.970  0.00  0.00    +0.000 HD
ATOM     53  H   UNL     1     -11.072  -1.657   9.318  0.00  0.00    +0.000 HD
ENDBRANCH  48  50
BRANCH  48  54
ATOM     54  C   UNL     1     -12.130  -3.172  11.290  0.00  0.00    +0.000 C 
ATOM     55  H   UNL     1     -12.275  -3.592  10.288  0.00  0.00    +0.000 HD
ATOM     56  H   UNL     1     -12.081  -4.037  11.964  0.00  0.00    +0.000 HD
BRANCH  54  57
ATOM     57  C   UNL     1     -13.339  -2.319  11.637  0.00  0.00    +0.000 C 
ATOM     58  H   UNL     1     -13.583  -1.656  10.801  0.00  0.00    +0.000 HD
ATOM     59  H   UNL     1     -13.140  -1.697  12.515  0.00  0.00    +0.000 HD
ATOM     60  H   UNL     1     -14.221  -2.933  11.838  0.00  0.00    +0.000 HD
ENDBRANCH  54  57
ENDBRANCH  48  54
ENDBRANCH  47  48
ENDBRANCH  45  47
ENDBRANCH  35  45
ENDBRANCH  31  39
ENDBRANCH   1  32
BRANCH   1  61
ATOM     61  C   UNL     1      -9.409  -5.683  18.966  0.00  0.00    +0.000 C 
ATOM     62  H   UNL     1      -9.144  -6.544  19.592  0.00  0.00    +0.000 HD
ATOM     63  H   UNL     1     -10.298  -5.223  19.415  0.00  0.00    +0.000 HD
BRANCH  61  64
ATOM     64  N   UNL     1      -8.228  -4.811  19.163  0.00  0.00    +0.000 NA
BRANCH  64  65
ATOM     65  C   UNL     1      -8.474  -3.611  19.951  0.00  0.00    +0.000 C 
ATOM     66  H   UNL     1      -9.339  -3.743  20.603  0.00  0.00    +0.000 HD
ATOM     67  H   UNL     1      -8.742  -2.767  19.304  0.00  0.00    +0.000 HD
ATOM     68  H   UNL     1      -7.595  -3.319  20.537  0.00  0.00    +0.000 HD
ENDBRANCH  64  65
BRANCH  64  69
ATOM     69  C   UNL     1      -7.143  -5.577  19.800  0.00  0.00    +0.000 C 
ATOM     70  H   UNL     1      -7.386  -5.812  20.843  0.00  0.00    +0.000 HD
ATOM     71  H   UNL     1      -6.191  -5.031  19.783  0.00  0.00    +0.000 HD
ATOM     72  H   UNL     1      -6.995  -6.538  19.295  0.00  0.00    +0.000 HD
ENDBRANCH  64  69
ENDBRANCH  61  64
ENDBRANCH   1  61
TORSDOF 14
ENDMDL
MODEL 8
REMARK VINA RESULT:    -8.289      3.254      9.901
REMARK INTER + INTRA:         -15.811
REMARK INTER:                 -14.608
REMARK INTRA:                  -1.204
REMARK UNBOUND:                -1.950
REMARK  Name = 
REMARK  14 active torsions:
REMARK  status: ('A' for Active; 'I' for Inactive)
REMARK    1  A    between atoms: C_1  and  C_2
REMARK    2  A    between atoms: C_2  and  C_3
REMARK    3  A    between atoms: C_3  and  C_4
REMARK    4  A    between atoms: C_3  and  O_5
REMARK    5  A    between atoms: O_5  and  C_6
REMARK    6  A    between atoms: C_6  and  C_8
REMARK    7  A    between atoms: C_12  and  N_13
REMARK    8  A    between atoms: C_14  and  C_16
REMARK    9  A    between atoms: C_16  and  C_17
REMARK   10  A    between atoms: C_17  and  N_18
REMARK   11  A    between atoms: N_18  and  C_19
REMARK   12  A    between atoms: N_18  and  C_20
REMARK   13  A    between atoms: N_23  and  C_24
REMARK   14  A    between atoms: C_31  and  C_32
REMARK                            x       y       z     vdW  Elec       q    Type
REMARK                         _______ _______ _______ _____ _____    ______ ____
ROOT
ATOM      1  C   UNL     1     -10.520  -2.963  18.366  0.00  0.00    +0.000 C 
ATOM      2  C   UNL     1      -9.451  -1.804  18.404  0.00  0.00    +0.000 C 
ATOM      3  C   UNL     1      -9.259  -1.091  19.758  0.00  0.00    +0.000 C 
ATOM      4  N   UNL     1     -10.581  -0.904  20.350  0.00  0.00    +0.000 N 
ATOM      5  C   UNL     1     -11.129  -2.190  20.762  0.00  0.00    +0.000 C 
ATOM      6  C   UNL     1     -11.598  -2.882  19.481  0.00  0.00    +0.000 C 
ATOM      7  H   UNL     1      -9.675  -1.032  17.673  0.00  0.00    +0.000 HD
ATOM      8  H   UNL     1      -8.472  -2.179  18.072  0.00  0.00    +0.000 HD
ATOM      9  H   UNL     1      -8.741  -0.141  19.579  0.00  0.00    +0.000 HD
ATOM     10  H   UNL     1      -8.612  -1.685  20.418  0.00  0.00    +0.000 HD
ATOM     11  H   UNL     1     -11.951  -2.101  21.479  0.00  0.00    +0.000 HD
ATOM     12  H   UNL     1     -10.371  -2.795  21.277  0.00  0.00    +0.000 HD
ATOM     13  H   UNL     1     -12.448  -2.326  19.085  0.00  0.00    +0.000 HD
ATOM     14  H   UNL     1     -11.981  -3.876  19.738  0.00  0.00    +0.000 HD
ENDROOT
BRANCH   4  15
ATOM     15  C   UNL     1     -10.776   0.153  21.238  0.00  0.00    +0.000 A 
ATOM     16  N   UNL     1     -11.753   1.072  20.995  0.00  0.00    +0.000 NA
ATOM     17  C   UNL     1     -11.946   2.084  21.866  0.00  0.00    +0.000 A 
ATOM     18  N   UNL     1     -11.291   2.335  23.008  0.00  0.00    +0.000 NA
ATOM     19  C   UNL     1     -10.359   1.403  23.242  0.00  0.00    +0.000 A 
ATOM     20  N   UNL     1      -9.553   1.407  24.345  0.00  0.00    +0.000 N 
ATOM     21  C   UNL     1      -8.725   0.322  24.318  0.00  0.00    +0.000 A 
ATOM     22  C   UNL     1      -9.006  -0.406  23.176  0.00  0.00    +0.000 A 
ATOM     23  C   UNL     1     -10.039   0.303  22.452  0.00  0.00    +0.000 A 
ATOM     24  H   UNL     1     -12.729   2.791  21.610  0.00  0.00    +0.000 HD
ATOM     25  H   UNL     1      -9.588   2.113  25.065  0.00  0.00    +0.000 HD
ATOM     26  H   UNL     1      -8.012   0.143  25.112  0.00  0.00    +0.000 HD
BRANCH  22  27
ATOM     27  C   UNL     1      -8.333  -1.680  22.825  0.00  0.00    +0.000 C 
ATOM     28  H   UNL     1      -7.694  -1.566  21.943  0.00  0.00    +0.000 HD
ATOM     29  H   UNL     1      -9.065  -2.439  22.554  0.00  0.00    +0.000 HD
ATOM     30  H   UNL     1      -7.707  -2.029  23.652  0.00  0.00    +0.000 HD
ENDBRANCH  22  27
ENDBRANCH   4  15
BRANCH   1  32
ATOM     31  N   UNL     1     -10.386  -5.478  18.601  0.00  0.00    +0.000 N 
ATOM     32  C   UNL     1      -9.711  -4.264  18.659  0.00  0.00    +0.000 C 
ATOM     33  O   UNL     1      -8.525  -4.164  18.981  0.00  0.00    +0.000 OA
ATOM     34  H   UNL     1     -11.310  -5.511  18.198  0.00  0.00    +0.000 HD
BRANCH  31  39
ATOM     35  C   UNL     1      -9.357  -8.972  17.900  0.00  0.00    +0.000 A 
ATOM     36  C   UNL     1      -8.576  -9.266  19.021  0.00  0.00    +0.000 A 
ATOM     37  C   UNL     1      -8.435  -8.322  20.035  0.00  0.00    +0.000 A 
ATOM     38  C   UNL     1      -9.052  -7.079  19.925  0.00  0.00    +0.000 A 
ATOM     39  C   UNL     1      -9.812  -6.754  18.802  0.00  0.00    +0.000 A 
ATOM     40  C   UNL     1      -9.999  -7.725  17.803  0.00  0.00    +0.000 A 
ATOM     41  H   UNL     1      -8.064 -10.222  19.120  0.00  0.00    +0.000 HD
ATOM     42  H   UNL     1      -7.830  -8.544  20.910  0.00  0.00    +0.000 HD
ATOM     43  H   UNL     1      -8.921  -6.379  20.746  0.00  0.00    +0.000 HD
ATOM     44  H   UNL     1     -10.596  -7.505  16.924  0.00  0.00    +0.000 HD
BRANCH  35  45
ATOM     45  C   UNL     1      -9.492  -9.933  16.775  0.00  0.00    +0.000 C 
ATOM     46  O   UNL     1     -10.371  -9.846  15.927  0.00  0.00    +0.000 OA
BRANCH  45  47
ATOM     47  O   UNL     1      -8.500 -10.853  16.804  0.00  0.00    +0.000 OA
BRANCH  47  48
ATOM     48  C   UNL     1      -8.896 -12.238  16.691  0.00  0.00    +0.000 C 
ATOM     49  H   UNL     1      -9.988 -12.310  16.619  0.00  0.00    +0.000 HD
BRANCH  48  50
ATOM     50  C   UNL     1      -8.450 -12.928  17.977  0.00  0.00    +0.000 C 
ATOM     51  H   UNL     1      -8.471 -14.018  17.865  0.00  0.00    +0.000 HD
ATOM     52  H   UNL     1      -9.079 -12.651  18.828  0.00  0.00    +0.000 HD
ATOM     53  H   UNL     1      -7.417 -12.657  18.217  0.00  0.00    +0.000 HD
ENDBRANCH  48  50
BRANCH  48  54
ATOM     54  C   UNL     1      -8.226 -12.839  15.446  0.00  0.00    +0.000 C 
ATOM     55  H   UNL     1      -8.368 -12.164  14.594  0.00  0.00    +0.000 HD
ATOM     56  H   UNL     1      -7.140 -12.890  15.598  0.00  0.00    +0.000 HD
BRANCH  54  57
ATOM     57  C   UNL     1      -8.757 -14.211  15.070  0.00  0.00    +0.000 C 
ATOM     58  H   UNL     1      -9.691 -14.412  15.606  0.00  0.00    +0.000 HD
ATOM     59  H   UNL     1      -8.040 -14.995  15.335  0.00  0.00    +0.000 HD
ATOM     60  H   UNL     1      -8.971 -14.282  14.000  0.00  0.00    +0.000 HD
ENDBRANCH  54  57
ENDBRANCH  48  54
ENDBRANCH  47  48
ENDBRANCH  45  47
ENDBRANCH  35  45
ENDBRANCH  31  39
ENDBRANCH   1  32
BRANCH   1  61
ATOM     61  C   UNL     1     -11.245  -3.057  16.967  0.00  0.00    +0.000 C 
ATOM     62  H   UNL     1     -11.206  -2.044  16.551  0.00  0.00    +0.000 HD
ATOM     63  H   UNL     1     -12.304  -3.294  17.133  0.00  0.00    +0.000 HD
BRANCH  61  64
ATOM     64  N   UNL     1     -10.715  -3.854  15.836  0.00  0.00    +0.000 NA
BRANCH  64  65
ATOM     65  C   UNL     1     -11.595  -4.915  15.365  0.00  0.00    +0.000 C 
ATOM     66  H   UNL     1     -11.250  -5.311  14.408  0.00  0.00    +0.000 HD
ATOM     67  H   UNL     1     -12.599  -4.526  15.157  0.00  0.00    +0.000 HD
ATOM     68  H   UNL     1     -11.692  -5.722  16.100  0.00  0.00    +0.000 HD
ENDBRANCH  64  65
BRANCH  64  69
ATOM     69  C   UNL     1     -10.404  -2.964  14.703  0.00  0.00    +0.000 C 
ATOM     70  H   UNL     1      -9.688  -3.434  14.018  0.00  0.00    +0.000 HD
ATOM     71  H   UNL     1      -9.983  -2.008  15.038  0.00  0.00    +0.000 HD
ATOM     72  H   UNL     1     -11.303  -2.754  14.114  0.00  0.00    +0.000 HD
ENDBRANCH  64  69
ENDBRANCH  61  64
ENDBRANCH   1  61
TORSDOF 14
ENDMDL
MODEL 9
REMARK VINA RESULT:    -8.228      3.119      9.508
REMARK INTER + INTRA:         -15.710
REMARK INTER:                 -14.050
REMARK INTRA:                  -1.660
REMARK UNBOUND:                -1.950
REMARK  Name = 
REMARK  14 active torsions:
REMARK  status: ('A' for Active; 'I' for Inactive)
REMARK    1  A    between atoms: C_1  and  C_2
REMARK    2  A    between atoms: C_2  and  C_3
REMARK    3  A    between atoms: C_3  and  C_4
REMARK    4  A    between atoms: C_3  and  O_5
REMARK    5  A    between atoms: O_5  and  C_6
REMARK    6  A    between atoms: C_6  and  C_8
REMARK    7  A    between atoms: C_12  and  N_13
REMARK    8  A    between atoms: C_14  and  C_16
REMARK    9  A    between atoms: C_16  and  C_17
REMARK   10  A    between atoms: C_17  and  N_18
REMARK   11  A    between atoms: N_18  and  C_19
REMARK   12  A    between atoms: N_18  and  C_20
REMARK   13  A    between atoms: N_23  and  C_24
REMARK   14  A    between atoms: C_31  and  C_32
REMARK                            x       y       z     vdW  Elec       q    Type
REMARK                         _______ _______ _______ _____ _____    ______ ____
ROOT
ATOM      1  C   UNL     1     -10.473  -4.576  17.264  0.00  0.00    +0.000 C 
ATOM      2  C   UNL     1      -9.254  -3.936  18.033  0.00  0.00    +0.000 C 
ATOM      3  C   UNL     1      -9.560  -3.326  19.416  0.00  0.00    +0.000 C 
ATOM      4  N   UNL     1     -10.832  -2.614  19.313  0.00  0.00    +0.000 N 
ATOM      5  C   UNL     1     -11.924  -3.567  19.157  0.00  0.00    +0.000 C 
ATOM      6  C   UNL     1     -11.864  -4.048  17.706  0.00  0.00    +0.000 C 
ATOM      7  H   UNL     1      -8.777  -3.157  17.446  0.00  0.00    +0.000 HD
ATOM      8  H   UNL     1      -8.451  -4.677  18.157  0.00  0.00    +0.000 HD
ATOM      9  H   UNL     1      -8.730  -2.663  19.694  0.00  0.00    +0.000 HD
ATOM     10  H   UNL     1      -9.608  -4.112  20.183  0.00  0.00    +0.000 HD
ATOM     11  H   UNL     1     -12.906  -3.141  19.385  0.00  0.00    +0.000 HD
ATOM     12  H   UNL     1     -11.814  -4.411  19.852  0.00  0.00    +0.000 HD
ATOM     13  H   UNL     1     -12.125  -3.209  17.059  0.00  0.00    +0.000 HD
ATOM     14  H   UNL     1     -12.645  -4.801  17.552  0.00  0.00    +0.000 HD
ENDROOT
BRANCH   4  15
ATOM     15  C   UNL     1     -11.075  -1.545  20.174  0.00  0.00    +0.000 A 
ATOM     16  N   UNL     1     -10.924  -1.711  21.519  0.00  0.00    +0.000 NA
ATOM     17  C   UNL     1     -11.147  -0.669  22.347  0.00  0.00    +0.000 A 
ATOM     18  N   UNL     1     -11.507   0.583  22.030  0.00  0.00    +0.000 NA
ATOM     19  C   UNL     1     -11.618   0.729  20.704  0.00  0.00    +0.000 A 
ATOM     20  N   UNL     1     -11.960   1.909  20.105  0.00  0.00    +0.000 N 
ATOM     21  C   UNL     1     -11.967   1.754  18.749  0.00  0.00    +0.000 A 
ATOM     22  C   UNL     1     -11.615   0.448  18.462  0.00  0.00    +0.000 A 
ATOM     23  C   UNL     1     -11.421  -0.236  19.722  0.00  0.00    +0.000 A 
ATOM     24  H   UNL     1     -11.024  -0.867  23.407  0.00  0.00    +0.000 HD
ATOM     25  H   UNL     1     -12.163   2.758  20.610  0.00  0.00    +0.000 HD
ATOM     26  H   UNL     1     -12.209   2.581  18.094  0.00  0.00    +0.000 HD
BRANCH  22  27
ATOM     27  C   UNL     1     -11.477  -0.084  17.085  0.00  0.00    +0.000 C 
ATOM     28  H   UNL     1     -11.049  -1.091  17.085  0.00  0.00    +0.000 HD
ATOM     29  H   UNL     1     -10.783   0.525  16.507  0.00  0.00    +0.000 HD
ATOM     30  H   UNL     1     -12.450  -0.131  16.586  0.00  0.00    +0.000 HD
ENDBRANCH  22  27
ENDBRANCH   4  15
BRANCH   1  32
ATOM     31  N   UNL     1      -9.231  -6.647  18.022  0.00  0.00    +0.000 N 
ATOM     32  C   UNL     1     -10.451  -6.084  17.663  0.00  0.00    +0.000 C 
ATOM     33  O   UNL     1     -11.499  -6.731  17.596  0.00  0.00    +0.000 OA
ATOM     34  H   UNL     1      -8.441  -6.043  18.196  0.00  0.00    +0.000 HD
BRANCH  31  39
ATOM     35  C   UNL     1      -8.848 -10.331  17.826  0.00  0.00    +0.000 A 
ATOM     36  C   UNL     1      -8.473 -10.645  19.136  0.00  0.00    +0.000 A 
ATOM     37  C   UNL     1      -8.400  -9.639  20.097  0.00  0.00    +0.000 A 
ATOM     38  C   UNL     1      -8.678  -8.319  19.751  0.00  0.00    +0.000 A 
ATOM     39  C   UNL     1      -9.026  -7.980  18.444  0.00  0.00    +0.000 A 
ATOM     40  C   UNL     1      -9.152  -9.001  17.487  0.00  0.00    +0.000 A 
ATOM     41  H   UNL     1      -8.228 -11.666  19.426  0.00  0.00    +0.000 HD
ATOM     42  H   UNL     1      -8.110  -9.876  21.117  0.00  0.00    +0.000 HD
ATOM     43  H   UNL     1      -8.617  -7.571  20.537  0.00  0.00    +0.000 HD
ATOM     44  H   UNL     1      -9.434  -8.768  16.465  0.00  0.00    +0.000 HD
BRANCH  35  45
ATOM     45  C   UNL     1      -8.890 -11.367  16.763  0.00  0.00    +0.000 C 
ATOM     46  O   UNL     1      -9.426 -11.184  15.677  0.00  0.00    +0.000 OA
BRANCH  45  47
ATOM     47  O   UNL     1      -8.226 -12.481  17.147  0.00  0.00    +0.000 OA
BRANCH  47  48
ATOM     48  C   UNL     1      -9.007 -13.688  17.281  0.00  0.00    +0.000 C 
ATOM     49  H   UNL     1     -10.064 -13.475  17.080  0.00  0.00    +0.000 HD
BRANCH  48  50
ATOM     50  C   UNL     1      -8.873 -14.139  18.733  0.00  0.00    +0.000 C 
ATOM     51  H   UNL     1      -9.814 -14.562  19.101  0.00  0.00    +0.000 HD
ATOM     52  H   UNL     1      -8.577 -13.317  19.390  0.00  0.00    +0.000 HD
ATOM     53  H   UNL     1      -8.120 -14.930  18.819  0.00  0.00    +0.000 HD
ENDBRANCH  48  50
BRANCH  48  54
ATOM     54  C   UNL     1      -8.465 -14.734  16.294  0.00  0.00    +0.000 C 
ATOM     55  H   UNL     1      -7.370 -14.746  16.341  0.00  0.00    +0.000 HD
ATOM     56  H   UNL     1      -8.781 -15.738  16.608  0.00  0.00    +0.000 HD
BRANCH  54  57
ATOM     57  C   UNL     1      -8.886 -14.491  14.855  0.00  0.00    +0.000 C 
ATOM     58  H   UNL     1      -9.123 -15.442  14.367  0.00  0.00    +0.000 HD
ATOM     59  H   UNL     1      -8.082 -14.011  14.288  0.00  0.00    +0.000 HD
ATOM     60  H   UNL     1      -9.777 -13.860  14.796  0.00  0.00    +0.000 HD
ENDBRANCH  54  57
ENDBRANCH  48  54
ENDBRANCH  47  48
ENDBRANCH  45  47
ENDBRANCH  35  45
ENDBRANCH  31  39
ENDBRANCH   1  32
BRANCH   1  61
ATOM     61  C   UNL     1     -10.342  -4.410  15.700  0.00  0.00    +0.000 C 
ATOM     62  H   UNL     1     -10.783  -5.319  15.273  0.00  0.00    +0.000 HD
ATOM     63  H   UNL     1      -9.277  -4.416  15.432  0.00  0.00    +0.000 HD
BRANCH  61  64
ATOM     64  N   UNL     1     -11.054  -3.359  14.937  0.00  0.00    +0.000 NA
BRANCH  64  65
ATOM     65  C   UNL     1     -10.207  -2.297  14.413  0.00  0.00    +0.000 C 
ATOM     66  H   UNL     1     -10.807  -1.449  14.078  0.00  0.00    +0.000 HD
ATOM     67  H   UNL     1      -9.674  -2.631  13.513  0.00  0.00    +0.000 HD
ATOM     68  H   UNL     1      -9.459  -1.971  15.144  0.00  0.00    +0.000 HD
ENDBRANCH  64  65
BRANCH  64  69
ATOM     69  C   UNL     1     -11.791  -3.970  13.816  0.00  0.00    +0.000 C 
ATOM     70  H   UNL     1     -11.912  -3.259  12.991  0.00  0.00    +0.000 HD
ATOM     71  H   UNL     1     -12.786  -4.317  14.121  0.00  0.00    +0.000 HD
ATOM     72  H   UNL     1     -11.240  -4.824  13.408  0.00  0.00    +0.000 HD
ENDBRANCH  64  69
ENDBRANCH  61  64
ENDBRANCH   1  61
TORSDOF 14
ENDMDL
