REMARK  Name = 
REMARK  2 active torsions:
REMARK  status: ('A' for Active; 'I' for Inactive)
REMARK    1  A    between atoms: C_6  and  C_7
REMARK    2  A    between atoms: C_15  and  O_16
REMARK                            x       y       z     vdW  Elec       q    Type
REMARK                         _______ _______ _______ _____ _____    ______ ____
ROOT
ATOM      1  C   UNL     1      -0.094   0.348   0.606  0.00  0.00    +0.000 A 
ATOM      2  C   UNL     1      -0.217   1.354   1.550  0.00  0.00    +0.000 A 
ATOM      3  N   UNL     1       0.601   2.388   1.193  0.00  0.00    +0.000 N 
ATOM      4  C   UNL     1       1.259   2.094   0.020  0.00  0.00    +0.000 A 
ATOM      5  C   UNL     1       2.189   2.848  -0.709  0.00  0.00    +0.000 A 
ATOM      6 BR   UNL     1       2.755   4.551  -0.118  0.00  0.00    +0.000 Br
ATOM      7  C   UNL     1       2.703   2.317  -1.893  0.00  0.00    +0.000 A 
ATOM      8  C   UNL     1       2.279   1.074  -2.352  0.00  0.00    +0.000 A 
ATOM      9  C   UNL     1       1.340   0.335  -1.623  0.00  0.00    +0.000 A 
ATOM     10  C   UNL     1       0.825   0.827  -0.396  0.00  0.00    +0.000 A 
ATOM     11  H   UNL     1      -0.816   1.410   2.450  0.00  0.00    +0.000 HD
ATOM     12  H   UNL     1       0.714   3.250   1.709  0.00  0.00    +0.000 HD
ATOM     13  H   UNL     1       3.431   2.877  -2.474  0.00  0.00    +0.000 HD
ATOM     14  H   UNL     1       2.688   0.691  -3.282  0.00  0.00    +0.000 HD
ENDROOT
BRANCH   1  20
ATOM     15  N   UNL     1      -3.937  -2.005   2.013  0.00  0.00    +0.000 N 
ATOM     16  C   UNL     1      -2.698  -2.022   1.403  0.00  0.00    +0.000 A 
ATOM     17  N   UNL     1      -2.283  -3.193   0.917  0.00  0.00    +0.000 NA
ATOM     18  C   UNL     1      -1.061  -3.206   0.362  0.00  0.00    +0.000 A 
ATOM     19  C   UNL     1      -0.264  -2.095   0.270  0.00  0.00    +0.000 A 
ATOM     20  C   UNL     1      -0.815  -0.918   0.724  0.00  0.00    +0.000 A 
ATOM     21  N   UNL     1      -2.031  -0.869   1.312  0.00  0.00    +0.000 NA
ATOM     22  H   UNL     1      -4.491  -2.771   1.655  0.00  0.00    +0.000 HD
ATOM     23  H   UNL     1      -4.329  -1.077   1.955  0.00  0.00    +0.000 HD
ATOM     24  H   UNL     1      -0.728  -4.166  -0.020  0.00  0.00    +0.000 HD
ATOM     25  H   UNL     1       0.730  -2.156  -0.146  0.00  0.00    +0.000 HD
ENDBRANCH   1  20
BRANCH   9  26
ATOM     26  O   UNL     1       0.921  -0.873  -2.130  0.00  0.00    +0.000 OA
ATOM     27  H   UNL     1       1.332  -1.012  -2.997  0.00  0.00    +0.000 HD
ENDBRANCH   9  26
TORSDOF 2
