REMARK  Name = 
REMARK  6 active torsions:
REMARK  status: ('A' for Active; 'I' for Inactive)
REMARK    1  A    between atoms: O_1  and  C_2
REMARK    2  A    between atoms: C_8  and  O_9
REMARK    3  A    between atoms: C_10  and  O_11
REMARK    4  A    between atoms: N_13  and  C_14
REMARK    5  A    between atoms: C_14  and  C_15
REMARK    6  A    between atoms: C_23  and  O_24
REMARK                            x       y       z     vdW  Elec       q    Type
REMARK                         _______ _______ _______ _____ _____    ______ ____
ROOT
ATOM      1  C   UNL     1      -3.809   0.616   0.697  0.00  0.00    +0.000 A 
ATOM      2  C   UNL     1      -3.161  -0.621   0.673  0.00  0.00    +0.000 A 
ATOM      3  C   UNL     1      -1.752  -0.662   0.750  0.00  0.00    +0.000 A 
ATOM      4  C   UNL     1      -0.808  -1.732   0.760  0.00  0.00    +0.000 A 
ATOM      5  C   UNL     1      -0.935  -3.135   0.634  0.00  0.00    +0.000 A 
ATOM      6  C   UNL     1       0.192  -3.957   0.740  0.00  0.00    +0.000 A 
ATOM      7  C   UNL     1       1.424  -3.387   1.017  0.00  0.00    +0.000 A 
ATOM      8  C   UNL     1       1.575  -2.004   1.153  0.00  0.00    +0.000 A 
ATOM      9  C   UNL     1       0.459  -1.176   0.969  0.00  0.00    +0.000 A 
ATOM     10  N   UNL     1       0.308   0.199   0.896  0.00  0.00    +0.000 N 
ATOM     11  C   UNL     1      -1.038   0.536   0.842  0.00  0.00    +0.000 A 
ATOM     12  C   UNL     1      -1.686   1.786   0.833  0.00  0.00    +0.000 A 
ATOM     13  C   UNL     1      -3.082   1.797   0.767  0.00  0.00    +0.000 A 
ATOM     14  H   UNL     1      -3.719  -1.549   0.609  0.00  0.00    +0.000 HD
ATOM     15  H   UNL     1      -1.910  -3.575   0.444  0.00  0.00    +0.000 HD
ATOM     16  H   UNL     1       0.076  -5.029   0.623  0.00  0.00    +0.000 HD
ATOM     17  H   UNL     1      -1.118   2.708   0.884  0.00  0.00    +0.000 HD
ENDROOT
BRANCH  10  18
ATOM     18  C   UNL     1       1.402   1.166   0.782  0.00  0.00    +0.000 C 
ATOM     19  H   UNL     1       2.306   0.769   1.245  0.00  0.00    +0.000 HD
ATOM     20  H   UNL     1       1.119   2.045   1.372  0.00  0.00    +0.000 HD
BRANCH  18  21
ATOM     21  C   UNL     1       1.662   1.534  -0.665  0.00  0.00    +0.000 A 
ATOM     22  C   UNL     1       1.491   2.853  -1.111  0.00  0.00    +0.000 A 
ATOM     23  C   UNL     1       1.660   3.175  -2.460  0.00  0.00    +0.000 A 
ATOM     24  C   UNL     1       2.011   2.187  -3.377  0.00  0.00    +0.000 A 
ATOM     25  C   UNL     1       2.222   0.881  -2.943  0.00  0.00    +0.000 A 
ATOM     26  C   UNL     1       2.060   0.560  -1.595  0.00  0.00    +0.000 A 
ATOM     27  H   UNL     1       1.210   3.640  -0.415  0.00  0.00    +0.000 HD
ATOM     28  H   UNL     1       1.507   4.196  -2.799  0.00  0.00    +0.000 HD
ATOM     29  H   UNL     1       2.120   2.433  -4.430  0.00  0.00    +0.000 HD
ATOM     30  H   UNL     1       2.501   0.108  -3.654  0.00  0.00    +0.000 HD
ATOM     31  H   UNL     1       2.228  -0.467  -1.279  0.00  0.00    +0.000 HD
ENDBRANCH  18  21
ENDBRANCH  10  18
BRANCH   1  32
ATOM     32  O   UNL     1      -5.177   0.668   0.656  0.00  0.00    +0.000 OA
ATOM     33  H   UNL     1      -5.527  -0.235   0.691  0.00  0.00    +0.000 HD
ENDBRANCH   1  32
BRANCH   7  34
ATOM     34  O   UNL     1       2.551  -4.155   1.157  0.00  0.00    +0.000 OA
ATOM     35  H   UNL     1       2.325  -5.066   0.898  0.00  0.00    +0.000 HD
ENDBRANCH   7  34
BRANCH   8  36
ATOM     36  O   UNL     1       2.817  -1.506   1.463  0.00  0.00    +0.000 OA
ATOM     37  H   UNL     1       3.361  -2.304   1.622  0.00  0.00    +0.000 HD
ENDBRANCH   8  36
BRANCH  13  38
ATOM     38  O   UNL     1      -3.755   2.990   0.772  0.00  0.00    +0.000 OA
ATOM     39  H   UNL     1      -3.112   3.713   0.779  0.00  0.00    +0.000 HD
ENDBRANCH  13  38
TORSDOF 6
