REMARK  Name = 
REMARK  10 active torsions:
REMARK  status: ('A' for Active; 'I' for Inactive)
REMARK    1  A    between atoms: C_1  and  O_2
REMARK    2  A    between atoms: O_2  and  C_3
REMARK    3  A    between atoms: C_4  and  N_5
REMARK    4  A    between atoms: N_5  and  C_6
REMARK    5  A    between atoms: C_7  and  O_9
REMARK    6  A    between atoms: O_9  and  C_10
REMARK    7  A    between atoms: C_10  and  C_11
REMARK    8  A    between atoms: C_10  and  C_12
REMARK    9  A    between atoms: C_10  and  C_13
REMARK   10  A    between atoms: C_17  and  C_18
REMARK                            x       y       z     vdW  Elec       q    Type
REMARK                         _______ _______ _______ _____ _____    ______ ____
ROOT
ATOM      1  C   UNL     1       0.947  -0.093   1.021  0.00  0.00    +0.000 C 
ATOM      2  C   UNL     1       1.618  -0.218  -0.393  0.00  0.00    +0.000 C 
ATOM      3  C   UNL     1       0.624  -0.367  -1.559  0.00  0.00    +0.000 C 
ATOM      4  C   UNL     1      -0.792  -0.052  -1.171  0.00  0.00    +0.000 C 
ATOM      5  O   UNL     1      -0.636   1.188  -0.426  0.00  0.00    +0.000 OA
ATOM      6  C   UNL     1      -0.202   0.984   0.961  0.00  0.00    +0.000 C 
ATOM      7  N   UNL     1      -1.456   0.712   1.730  0.00  0.00    +0.000 N 
ATOM      8  C   UNL     1      -1.965   1.546   2.764  0.00  0.00    +0.000 A 
ATOM      9  C   UNL     1      -1.499   1.705   4.073  0.00  0.00    +0.000 A 
ATOM     10  C   UNL     1      -2.121   2.659   4.880  0.00  0.00    +0.000 A 
ATOM     11  C   UNL     1      -3.127   3.478   4.377  0.00  0.00    +0.000 A 
ATOM     12  C   UNL     1      -3.604   3.333   3.063  0.00  0.00    +0.000 A 
ATOM     13  C   UNL     1      -3.097   2.302   2.255  0.00  0.00    +0.000 A 
ATOM     14  C   UNL     1      -3.537   1.675   1.048  0.00  0.00    +0.000 A 
ATOM     15  C   UNL     1      -4.178   2.210  -0.083  0.00  0.00    +0.000 A 
ATOM     16  C   UNL     1      -4.375   1.293  -1.160  0.00  0.00    +0.000 A 
ATOM     17  C   UNL     1      -3.841   0.013  -0.903  0.00  0.00    +0.000 A 
ATOM     18  C   UNL     1      -3.475  -0.906  -1.980  0.00  0.00    +0.000 A 
ATOM     19  C   UNL     1      -4.303  -1.486  -2.955  0.00  0.00    +0.000 A 
ATOM     20  C   UNL     1      -5.163  -2.441  -2.429  0.00  0.00    +0.000 A 
ATOM     21  C   UNL     1      -4.814  -3.091  -1.244  0.00  0.00    +0.000 A 
ATOM     22  C   UNL     1      -3.525  -2.918  -0.672  0.00  0.00    +0.000 A 
ATOM     23  C   UNL     1      -2.711  -1.849  -1.183  0.00  0.00    +0.000 A 
ATOM     24  N   UNL     1      -1.743  -0.989  -0.491  0.00  0.00    +0.000 N 
ATOM     25  C   UNL     1      -2.778  -0.259   0.003  0.00  0.00    +0.000 A 
ATOM     26  C   UNL     1      -2.622   0.608   1.033  0.00  0.00    +0.000 A 
ATOM     27  C   UNL     1      -4.431   1.958  -2.428  0.00  0.00    +0.000 C 
ATOM     28  O   UNL     1      -4.530   1.599  -3.597  0.00  0.00    +0.000 OA
ATOM     29  N   UNL     1      -4.019   3.263  -2.095  0.00  0.00    +0.000 N 
ATOM     30  C   UNL     1      -4.025   3.568  -0.657  0.00  0.00    +0.000 C 
ATOM     31  H   UNL     1       1.723   0.232   1.728  0.00  0.00    +0.000 HD
ATOM     32  H   UNL     1       2.110   0.757  -0.545  0.00  0.00    +0.000 HD
ATOM     33  H   UNL     1       0.679  -1.270  -2.165  0.00  0.00    +0.000 HD
ATOM     34  H   UNL     1       0.920   0.434  -2.261  0.00  0.00    +0.000 HD
ATOM     35  H   UNL     1      -1.283   0.240  -2.103  0.00  0.00    +0.000 HD
ATOM     36  H   UNL     1      -0.703   1.084   4.468  0.00  0.00    +0.000 HD
ATOM     37  H   UNL     1      -1.813   2.755   5.921  0.00  0.00    +0.000 HD
ATOM     38  H   UNL     1      -3.585   4.216   5.034  0.00  0.00    +0.000 HD
ATOM     39  H   UNL     1      -4.454   3.928   2.737  0.00  0.00    +0.000 HD
ATOM     40  H   UNL     1      -4.483  -1.002  -3.906  0.00  0.00    +0.000 HD
ATOM     41  H   UNL     1      -6.106  -2.642  -2.931  0.00  0.00    +0.000 HD
ATOM     42  H   UNL     1      -5.564  -3.704  -0.745  0.00  0.00    +0.000 HD
ATOM     43  H   UNL     1      -3.304  -3.379   0.288  0.00  0.00    +0.000 HD
ATOM     44  H   UNL     1      -3.161   3.457  -2.605  0.00  0.00    +0.000 HD
ATOM     45  H   UNL     1      -4.881   4.202  -0.456  0.00  0.00    +0.000 HD
ATOM     46  H   UNL     1      -3.070   4.026  -0.393  0.00  0.00    +0.000 HD
ENDROOT
BRANCH   6  47
ATOM     47  C   UNL     1       0.380   2.372   1.320  0.00  0.00    +0.000 C 
ATOM     48  H   UNL     1       1.310   2.559   0.771  0.00  0.00    +0.000 HD
ATOM     49  H   UNL     1       0.604   2.469   2.385  0.00  0.00    +0.000 HD
ATOM     50  H   UNL     1      -0.304   3.180   1.029  0.00  0.00    +0.000 HD
ENDBRANCH   6  47
BRANCH   2  51
ATOM     51  N   UNL     1       2.684  -1.232  -0.494  0.00  0.00    +0.000 N 
ATOM     52  C   UNL     1       4.015  -0.837  -0.459  0.00  0.00    +0.000 C 
ATOM     53  O   UNL     1       4.393   0.259  -0.088  0.00  0.00    +0.000 OA
BRANCH  51  54
ATOM     54  C   UNL     1       2.333  -2.561  -0.981  0.00  0.00    +0.000 C 
ATOM     55  H   UNL     1       1.300  -2.804  -0.729  0.00  0.00    +0.000 HD
ATOM     56  H   UNL     1       2.989  -3.317  -0.545  0.00  0.00    +0.000 HD
ATOM     57  H   UNL     1       2.466  -2.568  -2.069  0.00  0.00    +0.000 HD
ENDBRANCH  51  54
BRANCH  52  58
ATOM     58  O   UNL     1       4.821  -1.811  -0.958  0.00  0.00    +0.000 OA
BRANCH  58  59
ATOM     59  C   UNL     1       6.236  -1.613  -1.185  0.00  0.00    +0.000 C 
BRANCH  59  60
ATOM     60  C   UNL     1       6.980  -1.492   0.145  0.00  0.00    +0.000 C 
ATOM     61  H   UNL     1       6.812  -2.380   0.764  0.00  0.00    +0.000 HD
ATOM     62  H   UNL     1       6.629  -0.637   0.731  0.00  0.00    +0.000 HD
ATOM     63  H   UNL     1       8.058  -1.378  -0.010  0.00  0.00    +0.000 HD
ENDBRANCH  59  60
BRANCH  59  64
ATOM     64  C   UNL     1       6.692  -2.897  -1.894  0.00  0.00    +0.000 C 
ATOM     65  H   UNL     1       6.158  -3.030  -2.843  0.00  0.00    +0.000 HD
ATOM     66  H   UNL     1       6.462  -3.782  -1.289  0.00  0.00    +0.000 HD
ATOM     67  H   UNL     1       7.767  -2.889  -2.100  0.00  0.00    +0.000 HD
ENDBRANCH  59  64
BRANCH  59  68
ATOM     68  C   UNL     1       6.502  -0.422  -2.111  0.00  0.00    +0.000 C 
ATOM     69  H   UNL     1       5.816  -0.431  -2.967  0.00  0.00    +0.000 HD
ATOM     70  H   UNL     1       7.529  -0.434  -2.490  0.00  0.00    +0.000 HD
ATOM     71  H   UNL     1       6.357   0.534  -1.597  0.00  0.00    +0.000 HD
ENDBRANCH  59  68
ENDBRANCH  58  59
ENDBRANCH  52  58
ENDBRANCH   2  51
BRANCH   1  72
ATOM     72  O   UNL     1       0.517  -1.405   1.424  0.00  0.00    +0.000 OA
BRANCH  72  73
ATOM     73  C   UNL     1       0.267  -1.514   2.822  0.00  0.00    +0.000 C 
ATOM     74  H   UNL     1       0.628  -2.485   3.167  0.00  0.00    +0.000 HD
ATOM     75  H   UNL     1      -0.810  -1.476   2.995  0.00  0.00    +0.000 HD
ATOM     76  H   UNL     1       0.765  -0.732   3.406  0.00  0.00    +0.000 HD
ENDBRANCH  72  73
ENDBRANCH   1  72
TORSDOF 10
