MODEL 1
REMARK VINA RESULT:   -10.763      0.000      0.000
REMARK INTER + INTRA:         -19.526
REMARK INTER:                 -17.369
REMARK INTRA:                  -2.157
REMARK UNBOUND:                -2.157
REMARK  Name = 
REMARK  13 active torsions:
REMARK  status: ('A' for Active; 'I' for Inactive)
REMARK    1  A    between atoms: C_2  and  C_34
REMARK    2  A    between atoms: N_3  and  C_4
REMARK    3  A    between atoms: C_10  and  O_11
REMARK    4  A    between atoms: O_11  and  C_12
REMARK    5  A    between atoms: C_12  and  C_14
REMARK    6  A    between atoms: C_16  and  O_17
REMARK    7  A    between atoms: C_18  and  C_19
REMARK    8  A    between atoms: C_19  and  C_21
REMARK    9  A    between atoms: C_22  and  O_23
REMARK   10  A    between atoms: C_27  and  C_28
REMARK   11  A    between atoms: C_28  and  O_30
REMARK   12  A    between atoms: C_31  and  O_32
REMARK   13  A    between atoms: C_37  and  O_38
REMARK                            x       y       z     vdW  Elec       q    Type
REMARK                         _______ _______ _______ _____ _____    ______ ____
ROOT
ATOM      1  C   UNL     1      -8.515  -7.447  16.998  0.00  0.00    +0.000 C 
ATOM      2  C   UNL     1      -9.495  -6.807  15.986  0.00  0.00    +0.000 C 
ATOM      3  N   UNL     1     -10.873  -7.276  16.138  0.00  0.00    +0.000 NA
ATOM      4  C   UNL     1     -11.688  -6.555  17.102  0.00  0.00    +0.000 C 
ATOM      5  C   UNL     1     -11.018  -5.965  18.341  0.00  0.00    +0.000 C 
ATOM      6  C   UNL     1     -10.016  -6.888  19.033  0.00  0.00    +0.000 C 
ATOM      7  C   UNL     1      -8.606  -6.855  18.422  0.00  0.00    +0.000 C 
ATOM      8  H   UNL     1      -7.505  -7.232  16.622  0.00  0.00    +0.000 HD
ATOM      9  H   UNL     1      -9.178  -7.110  14.980  0.00  0.00    +0.000 HD
ATOM     10  H   UNL     1      -9.433  -5.712  15.996  0.00  0.00    +0.000 HD
ATOM     11  H   UNL     1     -10.859  -8.275  16.336  0.00  0.00    +0.000 HD
ATOM     12  H   UNL     1     -12.490  -7.231  17.426  0.00  0.00    +0.000 HD
ATOM     13  H   UNL     1     -12.196  -5.739  16.573  0.00  0.00    +0.000 HD
ATOM     14  H   UNL     1     -11.814  -5.732  19.061  0.00  0.00    +0.000 HD
ATOM     15  H   UNL     1     -10.555  -5.003  18.094  0.00  0.00    +0.000 HD
ATOM     16  H   UNL     1     -10.397  -7.914  19.073  0.00  0.00    +0.000 HD
ATOM     17  H   UNL     1      -9.940  -6.552  20.075  0.00  0.00    +0.000 HD
ATOM     18  H   UNL     1      -7.931  -7.443  19.060  0.00  0.00    +0.000 HD
ENDROOT
BRANCH   1  21
ATOM     19  O   UNL     1      -8.579  -9.212  14.769  0.00  0.00    +0.000 OA
ATOM     20  C   UNL     1      -8.680  -9.680  15.897  0.00  0.00    +0.000 C 
ATOM     21  N   UNL     1      -8.672  -8.911  17.039  0.00  0.00    +0.000 N 
ATOM     22  H   UNL     1      -8.734  -9.360  17.942  0.00  0.00    +0.000 HD
BRANCH  20  23
ATOM     23  C   UNL     1      -8.743 -11.155  16.094  0.00  0.00    +0.000 A 
ATOM     24  C   UNL     1      -8.678 -11.970  14.955  0.00  0.00    +0.000 A 
ATOM     25  C   UNL     1      -8.700 -13.362  15.078  0.00  0.00    +0.000 A 
ATOM     26  C   UNL     1      -8.798 -13.932  16.342  0.00  0.00    +0.000 A 
ATOM     27  C   UNL     1      -8.878 -13.135  17.481  0.00  0.00    +0.000 A 
ATOM     28  C   UNL     1      -8.855 -11.743  17.361  0.00  0.00    +0.000 A 
ATOM     29  H   UNL     1      -8.599 -11.519  13.967  0.00  0.00    +0.000 HD
ATOM     30  H   UNL     1      -8.643 -13.974  14.184  0.00  0.00    +0.000 HD
ATOM     31  H   UNL     1      -8.970 -13.602  18.459  0.00  0.00    +0.000 HD
ATOM     32  H   UNL     1      -8.950 -11.142  18.260  0.00  0.00    +0.000 HD
BRANCH  26  33
ATOM     33  O   UNL     1      -8.825 -15.283  16.510  0.00  0.00    +0.000 OA
ATOM     34  H   UNL     1      -8.730 -15.483  17.456  0.00  0.00    +0.000 HD
ENDBRANCH  26  33
ENDBRANCH  20  23
ENDBRANCH   1  21
BRANCH   7  35
ATOM     35  O   UNL     1      -8.115  -5.499  18.382  0.00  0.00    +0.000 OA
BRANCH  35  36
ATOM     36  C   UNL     1      -7.293  -5.117  19.385  0.00  0.00    +0.000 C 
ATOM     37  O   UNL     1      -6.125  -5.449  19.539  0.00  0.00    +0.000 OA
BRANCH  36  38
ATOM     38  C   UNL     1      -8.004  -4.204  20.310  0.00  0.00    +0.000 A 
ATOM     39  C   UNL     1      -8.980  -3.340  19.808  0.00  0.00    +0.000 A 
ATOM     40  C   UNL     1      -9.679  -2.506  20.683  0.00  0.00    +0.000 A 
ATOM     41  C   UNL     1      -9.444  -2.532  22.075  0.00  0.00    +0.000 A 
ATOM     42  C   UNL     1      -8.475  -3.426  22.557  0.00  0.00    +0.000 A 
ATOM     43  C   UNL     1      -7.740  -4.219  21.677  0.00  0.00    +0.000 A 
ATOM     44  H   UNL     1      -9.180  -3.321  18.738  0.00  0.00    +0.000 HD
ATOM     45  H   UNL     1      -6.971  -4.865  22.094  0.00  0.00    +0.000 HD
BRANCH  40  46
ATOM     46  O   UNL     1     -10.578  -1.631  20.143  0.00  0.00    +0.000 OA
ATOM     47  H   UNL     1     -10.703  -1.816  19.189  0.00  0.00    +0.000 HD
ENDBRANCH  40  46
BRANCH  41  48
ATOM     48  C   UNL     1     -10.264  -1.654  22.965  0.00  0.00    +0.000 C 
ATOM     49  O   UNL     1     -11.393  -2.010  23.285  0.00  0.00    +0.000 OA
BRANCH  48  50
ATOM     50  C   UNL     1      -9.722  -0.428  23.616  0.00  0.00    +0.000 A 
ATOM     51  C   UNL     1      -9.114  -0.477  24.890  0.00  0.00    +0.000 A 
ATOM     52  C   UNL     1      -8.835   0.694  25.596  0.00  0.00    +0.000 A 
ATOM     53  C   UNL     1      -9.084   1.934  25.026  0.00  0.00    +0.000 A 
ATOM     54  C   UNL     1      -9.592   2.002  23.733  0.00  0.00    +0.000 A 
ATOM     55  C   UNL     1      -9.921   0.837  23.012  0.00  0.00    +0.000 A 
ATOM     56  H   UNL     1      -8.438   0.636  26.609  0.00  0.00    +0.000 HD
ATOM     57  H   UNL     1      -8.880   2.846  25.582  0.00  0.00    +0.000 HD
ATOM     58  H   UNL     1      -9.765   2.984  23.290  0.00  0.00    +0.000 HD
BRANCH  51  59
ATOM     59  O   UNL     1      -8.807  -1.616  25.584  0.00  0.00    +0.000 OA
ATOM     60  H   UNL     1      -9.553  -2.234  25.638  0.00  0.00    +0.000 HD
ENDBRANCH  51  59
BRANCH  55  61
ATOM     61  C   UNL     1     -10.508   1.122  21.666  0.00  0.00    +0.000 C 
ATOM     62  O   UNL     1     -11.715   1.106  21.474  0.00  0.00    +0.000 OA
BRANCH  61  63
ATOM     63  O   UNL     1      -9.621   1.129  20.653  0.00  0.00    +0.000 OA
ATOM     64  H   UNL     1     -10.098   1.180  19.790  0.00  0.00    +0.000 HD
ENDBRANCH  61  63
ENDBRANCH  55  61
ENDBRANCH  48  50
ENDBRANCH  41  48
BRANCH  42  65
ATOM     65  O   UNL     1      -8.134  -3.666  23.859  0.00  0.00    +0.000 OA
ATOM     66  H   UNL     1      -7.369  -3.162  24.169  0.00  0.00    +0.000 HD
ENDBRANCH  42  65
ENDBRANCH  36  38
ENDBRANCH  35  36
ENDBRANCH   7  35
TORSDOF 13
ENDMDL
MODEL 2
REMARK VINA RESULT:   -10.626      0.594      2.006
REMARK INTER + INTRA:         -19.305
REMARK INTER:                 -17.506
REMARK INTRA:                  -1.799
REMARK UNBOUND:                -2.157
REMARK  Name = 
REMARK  13 active torsions:
REMARK  status: ('A' for Active; 'I' for Inactive)
REMARK    1  A    between atoms: C_2  and  C_34
REMARK    2  A    between atoms: N_3  and  C_4
REMARK    3  A    between atoms: C_10  and  O_11
REMARK    4  A    between atoms: O_11  and  C_12
REMARK    5  A    between atoms: C_12  and  C_14
REMARK    6  A    between atoms: C_16  and  O_17
REMARK    7  A    between atoms: C_18  and  C_19
REMARK    8  A    between atoms: C_19  and  C_21
REMARK    9  A    between atoms: C_22  and  O_23
REMARK   10  A    between atoms: C_27  and  C_28
REMARK   11  A    between atoms: C_28  and  O_30
REMARK   12  A    between atoms: C_31  and  O_32
REMARK   13  A    between atoms: C_37  and  O_38
REMARK                            x       y       z     vdW  Elec       q    Type
REMARK                         _______ _______ _______ _____ _____    ______ ____
ROOT
ATOM      1  C   UNL     1      -8.476  -7.497  16.947  0.00  0.00    +0.000 C 
ATOM      2  C   UNL     1      -9.489  -6.861  15.965  0.00  0.00    +0.000 C 
ATOM      3  N   UNL     1     -10.863  -7.321  16.173  0.00  0.00    +0.000 NA
ATOM      4  C   UNL     1     -11.638  -6.587  17.159  0.00  0.00    +0.000 C 
ATOM      5  C   UNL     1     -10.920  -5.988  18.368  0.00  0.00    +0.000 C 
ATOM      6  C   UNL     1      -9.897  -6.910  19.030  0.00  0.00    +0.000 C 
ATOM      7  C   UNL     1      -8.511  -6.891  18.367  0.00  0.00    +0.000 C 
ATOM      8  H   UNL     1      -7.479  -7.291  16.531  0.00  0.00    +0.000 HD
ATOM      9  H   UNL     1      -9.211  -7.175  14.951  0.00  0.00    +0.000 HD
ATOM     10  H   UNL     1      -9.422  -5.766  15.962  0.00  0.00    +0.000 HD
ATOM     11  H   UNL     1     -10.847  -8.318  16.380  0.00  0.00    +0.000 HD
ATOM     12  H   UNL     1     -12.431  -7.255  17.519  0.00  0.00    +0.000 HD
ATOM     13  H   UNL     1     -12.162  -5.772  16.642  0.00  0.00    +0.000 HD
ATOM     14  H   UNL     1     -11.688  -5.744  19.114  0.00  0.00    +0.000 HD
ATOM     15  H   UNL     1     -10.461  -5.031  18.094  0.00  0.00    +0.000 HD
ATOM     16  H   UNL     1     -10.282  -7.934  19.094  0.00  0.00    +0.000 HD
ATOM     17  H   UNL     1      -9.781  -6.565  20.065  0.00  0.00    +0.000 HD
ATOM     18  H   UNL     1      -7.816  -7.476  18.985  0.00  0.00    +0.000 HD
ENDROOT
BRANCH   1  21
ATOM     19  O   UNL     1      -8.599  -9.285  14.739  0.00  0.00    +0.000 OA
ATOM     20  C   UNL     1      -8.676  -9.741  15.874  0.00  0.00    +0.000 C 
ATOM     21  N   UNL     1      -8.638  -8.959  17.007  0.00  0.00    +0.000 N 
ATOM     22  H   UNL     1      -8.682  -9.398  17.916  0.00  0.00    +0.000 HD
BRANCH  20  23
ATOM     23  C   UNL     1      -8.741 -11.213  16.088  0.00  0.00    +0.000 A 
ATOM     24  C   UNL     1      -8.705 -12.041  14.957  0.00  0.00    +0.000 A 
ATOM     25  C   UNL     1      -8.731 -13.431  15.096  0.00  0.00    +0.000 A 
ATOM     26  C   UNL     1      -8.803 -13.986  16.369  0.00  0.00    +0.000 A 
ATOM     27  C   UNL     1      -8.855 -13.177  17.500  0.00  0.00    +0.000 A 
ATOM     28  C   UNL     1      -8.829 -11.786  17.365  0.00  0.00    +0.000 A 
ATOM     29  H   UNL     1      -8.646 -11.601  13.963  0.00  0.00    +0.000 HD
ATOM     30  H   UNL     1      -8.697 -14.053  14.208  0.00  0.00    +0.000 HD
ATOM     31  H   UNL     1      -8.927 -13.633  18.485  0.00  0.00    +0.000 HD
ATOM     32  H   UNL     1      -8.901 -11.175  18.258  0.00  0.00    +0.000 HD
BRANCH  26  33
ATOM     33  O   UNL     1      -8.833 -15.335  16.552  0.00  0.00    +0.000 OA
ATOM     34  H   UNL     1      -8.731 -15.525  17.499  0.00  0.00    +0.000 HD
ENDBRANCH  26  33
ENDBRANCH  20  23
ENDBRANCH   1  21
BRANCH   7  35
ATOM     35  O   UNL     1      -8.015  -5.538  18.296  0.00  0.00    +0.000 OA
BRANCH  35  36
ATOM     36  C   UNL     1      -7.224  -5.123  19.311  0.00  0.00    +0.000 C 
ATOM     37  O   UNL     1      -6.052  -5.425  19.494  0.00  0.00    +0.000 OA
BRANCH  36  38
ATOM     38  C   UNL     1      -7.977  -4.216  20.208  0.00  0.00    +0.000 A 
ATOM     39  C   UNL     1      -8.825  -3.253  19.657  0.00  0.00    +0.000 A 
ATOM     40  C   UNL     1      -9.565  -2.421  20.501  0.00  0.00    +0.000 A 
ATOM     41  C   UNL     1      -9.500  -2.547  21.906  0.00  0.00    +0.000 A 
ATOM     42  C   UNL     1      -8.658  -3.538  22.434  0.00  0.00    +0.000 A 
ATOM     43  C   UNL     1      -7.878  -4.330  21.593  0.00  0.00    +0.000 A 
ATOM     44  H   UNL     1      -8.895  -3.154  18.575  0.00  0.00    +0.000 HD
ATOM     45  H   UNL     1      -7.210  -5.056  22.050  0.00  0.00    +0.000 HD
BRANCH  40  46
ATOM     46  O   UNL     1     -10.332  -1.451  19.922  0.00  0.00    +0.000 OA
ATOM     47  H   UNL     1     -11.273  -1.570  20.164  0.00  0.00    +0.000 HD
ENDBRANCH  40  46
BRANCH  41  48
ATOM     48  C   UNL     1     -10.358  -1.663  22.753  0.00  0.00    +0.000 C 
ATOM     49  O   UNL     1     -11.546  -1.934  22.892  0.00  0.00    +0.000 OA
BRANCH  48  50
ATOM     50  C   UNL     1      -9.810  -0.545  23.572  0.00  0.00    +0.000 A 
ATOM     51  C   UNL     1      -9.551   0.723  23.007  0.00  0.00    +0.000 A 
ATOM     52  C   UNL     1      -8.814   1.681  23.706  0.00  0.00    +0.000 A 
ATOM     53  C   UNL     1      -8.387   1.430  25.002  0.00  0.00    +0.000 A 
ATOM     54  C   UNL     1      -8.718   0.223  25.610  0.00  0.00    +0.000 A 
ATOM     55  C   UNL     1      -9.425  -0.778  24.914  0.00  0.00    +0.000 A 
ATOM     56  H   UNL     1      -8.557   2.624  23.227  0.00  0.00    +0.000 HD
ATOM     57  H   UNL     1      -7.801   2.171  25.541  0.00  0.00    +0.000 HD
ATOM     58  H   UNL     1      -8.392   0.047  26.636  0.00  0.00    +0.000 HD
BRANCH  51  59
ATOM     59  O   UNL     1      -9.904   1.123  21.747  0.00  0.00    +0.000 OA
ATOM     60  H   UNL     1      -9.271   1.751  21.363  0.00  0.00    +0.000 HD
ENDBRANCH  51  59
BRANCH  55  61
ATOM     61  C   UNL     1      -9.631  -2.022  25.719  0.00  0.00    +0.000 C 
ATOM     62  O   UNL     1      -8.719  -2.541  26.345  0.00  0.00    +0.000 OA
BRANCH  61  63
ATOM     63  O   UNL     1     -10.796  -2.657  25.488  0.00  0.00    +0.000 OA
ATOM     64  H   UNL     1     -11.538  -2.159  25.910  0.00  0.00    +0.000 HD
ENDBRANCH  61  63
ENDBRANCH  55  61
ENDBRANCH  48  50
ENDBRANCH  41  48
BRANCH  42  65
ATOM     65  O   UNL     1      -8.491  -3.879  23.747  0.00  0.00    +0.000 OA
ATOM     66  H   UNL     1      -9.044  -4.616  24.040  0.00  0.00    +0.000 HD
ENDBRANCH  42  65
ENDBRANCH  36  38
ENDBRANCH  35  36
ENDBRANCH   7  35
TORSDOF 13
ENDMDL
MODEL 3
REMARK VINA RESULT:   -10.375      0.131      1.337
REMARK INTER + INTRA:         -18.901
REMARK INTER:                 -16.995
REMARK INTRA:                  -1.906
REMARK UNBOUND:                -2.157
REMARK  Name = 
REMARK  13 active torsions:
REMARK  status: ('A' for Active; 'I' for Inactive)
REMARK    1  A    between atoms: C_2  and  C_34
REMARK    2  A    between atoms: N_3  and  C_4
REMARK    3  A    between atoms: C_10  and  O_11
REMARK    4  A    between atoms: O_11  and  C_12
REMARK    5  A    between atoms: C_12  and  C_14
REMARK    6  A    between atoms: C_16  and  O_17
REMARK    7  A    between atoms: C_18  and  C_19
REMARK    8  A    between atoms: C_19  and  C_21
REMARK    9  A    between atoms: C_22  and  O_23
REMARK   10  A    between atoms: C_27  and  C_28
REMARK   11  A    between atoms: C_28  and  O_30
REMARK   12  A    between atoms: C_31  and  O_32
REMARK   13  A    between atoms: C_37  and  O_38
REMARK                            x       y       z     vdW  Elec       q    Type
REMARK                         _______ _______ _______ _____ _____    ______ ____
ROOT
ATOM      1  C   UNL     1      -8.482  -7.433  16.969  0.00  0.00    +0.000 C 
ATOM      2  C   UNL     1      -9.506  -6.810  15.989  0.00  0.00    +0.000 C 
ATOM      3  N   UNL     1     -10.874  -7.284  16.203  0.00  0.00    +0.000 NA
ATOM      4  C   UNL     1     -11.654  -6.557  17.190  0.00  0.00    +0.000 C 
ATOM      5  C   UNL     1     -10.937  -5.948  18.395  0.00  0.00    +0.000 C 
ATOM      6  C   UNL     1      -9.903  -6.857  19.056  0.00  0.00    +0.000 C 
ATOM      7  C   UNL     1      -8.519  -6.824  18.388  0.00  0.00    +0.000 C 
ATOM      8  H   UNL     1      -7.489  -7.217  16.549  0.00  0.00    +0.000 HD
ATOM      9  H   UNL     1      -9.228  -7.124  14.975  0.00  0.00    +0.000 HD
ATOM     10  H   UNL     1      -9.450  -5.714  15.984  0.00  0.00    +0.000 HD
ATOM     11  H   UNL     1     -10.846  -8.281  16.412  0.00  0.00    +0.000 HD
ATOM     12  H   UNL     1     -12.438  -7.233  17.555  0.00  0.00    +0.000 HD
ATOM     13  H   UNL     1     -12.188  -5.750  16.673  0.00  0.00    +0.000 HD
ATOM     14  H   UNL     1     -11.705  -5.711  19.143  0.00  0.00    +0.000 HD
ATOM     15  H   UNL     1     -10.490  -4.986  18.117  0.00  0.00    +0.000 HD
ATOM     16  H   UNL     1     -10.276  -7.884  19.123  0.00  0.00    +0.000 HD
ATOM     17  H   UNL     1      -9.787  -6.508  20.089  0.00  0.00    +0.000 HD
ATOM     18  H   UNL     1      -7.816  -7.400  19.005  0.00  0.00    +0.000 HD
ENDROOT
BRANCH   1  21
ATOM     19  O   UNL     1      -8.732  -9.214  14.765  0.00  0.00    +0.000 OA
ATOM     20  C   UNL     1      -8.733  -9.674  15.901  0.00  0.00    +0.000 C 
ATOM     21  N   UNL     1      -8.629  -8.897  17.033  0.00  0.00    +0.000 N 
ATOM     22  H   UNL     1      -8.610  -9.339  17.941  0.00  0.00    +0.000 HD
BRANCH  20  23
ATOM     23  C   UNL     1      -8.771 -11.148  16.113  0.00  0.00    +0.000 A 
ATOM     24  C   UNL     1      -8.750 -11.972  14.979  0.00  0.00    +0.000 A 
ATOM     25  C   UNL     1      -8.753 -13.363  15.114  0.00  0.00    +0.000 A 
ATOM     26  C   UNL     1      -8.787 -13.922  16.386  0.00  0.00    +0.000 A 
ATOM     27  C   UNL     1      -8.824 -13.117  17.521  0.00  0.00    +0.000 A 
ATOM     28  C   UNL     1      -8.821 -11.726  17.389  0.00  0.00    +0.000 A 
ATOM     29  H   UNL     1      -8.720 -11.529  13.984  0.00  0.00    +0.000 HD
ATOM     30  H   UNL     1      -8.730 -13.982  14.224  0.00  0.00    +0.000 HD
ATOM     31  H   UNL     1      -8.867 -13.576  18.506  0.00  0.00    +0.000 HD
ATOM     32  H   UNL     1      -8.881 -11.118  18.286  0.00  0.00    +0.000 HD
BRANCH  26  33
ATOM     33  O   UNL     1      -8.793 -15.272  16.566  0.00  0.00    +0.000 OA
ATOM     34  H   UNL     1      -9.478 -15.660  15.998  0.00  0.00    +0.000 HD
ENDBRANCH  26  33
ENDBRANCH  20  23
ENDBRANCH   1  21
BRANCH   7  35
ATOM     35  O   UNL     1      -8.038  -5.466  18.311  0.00  0.00    +0.000 OA
BRANCH  35  36
ATOM     36  C   UNL     1      -7.281  -5.027  19.342  0.00  0.00    +0.000 C 
ATOM     37  O   UNL     1      -6.088  -5.241  19.515  0.00  0.00    +0.000 OA
BRANCH  36  38
ATOM     38  C   UNL     1      -8.101  -4.217  20.272  0.00  0.00    +0.000 A 
ATOM     39  C   UNL     1      -7.905  -4.343  21.649  0.00  0.00    +0.000 A 
ATOM     40  C   UNL     1      -8.651  -3.552  22.527  0.00  0.00    +0.000 A 
ATOM     41  C   UNL     1      -9.584  -2.603  22.056  0.00  0.00    +0.000 A 
ATOM     42  C   UNL     1      -9.745  -2.479  20.667  0.00  0.00    +0.000 A 
ATOM     43  C   UNL     1      -9.041  -3.307  19.794  0.00  0.00    +0.000 A 
ATOM     44  H   UNL     1      -7.179  -5.062  22.025  0.00  0.00    +0.000 HD
ATOM     45  H   UNL     1      -9.231  -3.203  18.728  0.00  0.00    +0.000 HD
BRANCH  40  46
ATOM     46  O   UNL     1      -8.474  -3.752  23.866  0.00  0.00    +0.000 OA
ATOM     47  H   UNL     1      -9.340  -3.777  24.324  0.00  0.00    +0.000 HD
ENDBRANCH  40  46
BRANCH  41  48
ATOM     48  C   UNL     1     -10.311  -1.748  23.045  0.00  0.00    +0.000 C 
ATOM     49  O   UNL     1     -11.387  -2.130  23.491  0.00  0.00    +0.000 OA
BRANCH  48  50
ATOM     50  C   UNL     1      -9.719  -0.517  23.641  0.00  0.00    +0.000 A 
ATOM     51  C   UNL     1      -9.091  -0.539  24.905  0.00  0.00    +0.000 A 
ATOM     52  C   UNL     1      -8.764   0.648  25.563  0.00  0.00    +0.000 A 
ATOM     53  C   UNL     1      -8.984   1.874  24.950  0.00  0.00    +0.000 A 
ATOM     54  C   UNL     1      -9.512   1.910  23.664  0.00  0.00    +0.000 A 
ATOM     55  C   UNL     1      -9.890   0.730  22.992  0.00  0.00    +0.000 A 
ATOM     56  H   UNL     1      -8.351   0.615  26.570  0.00  0.00    +0.000 HD
ATOM     57  H   UNL     1      -8.742   2.799  25.469  0.00  0.00    +0.000 HD
ATOM     58  H   UNL     1      -9.663   2.880  23.187  0.00  0.00    +0.000 HD
BRANCH  51  59
ATOM     59  O   UNL     1      -8.807  -1.660  25.636  0.00  0.00    +0.000 OA
ATOM     60  H   UNL     1      -9.422  -2.389  25.458  0.00  0.00    +0.000 HD
ENDBRANCH  51  59
BRANCH  55  61
ATOM     61  C   UNL     1     -10.491   0.984  21.646  0.00  0.00    +0.000 C 
ATOM     62  O   UNL     1     -11.693   0.889  21.451  0.00  0.00    +0.000 OA
BRANCH  61  63
ATOM     63  O   UNL     1      -9.603   1.055  20.636  0.00  0.00    +0.000 OA
ATOM     64  H   UNL     1      -9.257   1.977  20.560  0.00  0.00    +0.000 HD
ENDBRANCH  61  63
ENDBRANCH  55  61
ENDBRANCH  48  50
ENDBRANCH  41  48
BRANCH  42  65
ATOM     65  O   UNL     1     -10.534  -1.590  19.993  0.00  0.00    +0.000 OA
ATOM     66  H   UNL     1     -10.099  -0.753  19.781  0.00  0.00    +0.000 HD
ENDBRANCH  42  65
ENDBRANCH  36  38
ENDBRANCH  35  36
ENDBRANCH   7  35
TORSDOF 13
ENDMDL
MODEL 4
REMARK VINA RESULT:   -10.250      1.361      2.028
REMARK INTER + INTRA:         -18.699
REMARK INTER:                 -17.945
REMARK INTRA:                  -0.754
REMARK UNBOUND:                -2.157
REMARK  Name = 
REMARK  13 active torsions:
REMARK  status: ('A' for Active; 'I' for Inactive)
REMARK    1  A    between atoms: C_2  and  C_34
REMARK    2  A    between atoms: N_3  and  C_4
REMARK    3  A    between atoms: C_10  and  O_11
REMARK    4  A    between atoms: O_11  and  C_12
REMARK    5  A    between atoms: C_12  and  C_14
REMARK    6  A    between atoms: C_16  and  O_17
REMARK    7  A    between atoms: C_18  and  C_19
REMARK    8  A    between atoms: C_19  and  C_21
REMARK    9  A    between atoms: C_22  and  O_23
REMARK   10  A    between atoms: C_27  and  C_28
REMARK   11  A    between atoms: C_28  and  O_30
REMARK   12  A    between atoms: C_31  and  O_32
REMARK   13  A    between atoms: C_37  and  O_38
REMARK                            x       y       z     vdW  Elec       q    Type
REMARK                         _______ _______ _______ _____ _____    ______ ____
ROOT
ATOM      1  C   UNL     1      -8.632  -7.888  16.756  0.00  0.00    +0.000 C 
ATOM      2  C   UNL     1      -9.773  -7.256  15.922  0.00  0.00    +0.000 C 
ATOM      3  N   UNL     1     -11.099  -7.767  16.274  0.00  0.00    +0.000 NA
ATOM      4  C   UNL     1     -11.773  -7.088  17.369  0.00  0.00    +0.000 C 
ATOM      5  C   UNL     1     -10.934  -6.504  18.504  0.00  0.00    +0.000 C 
ATOM      6  C   UNL     1      -9.814  -7.411  19.011  0.00  0.00    +0.000 C 
ATOM      7  C   UNL     1      -8.517  -7.326  18.191  0.00  0.00    +0.000 C 
ATOM      8  H   UNL     1      -7.698  -7.638  16.234  0.00  0.00    +0.000 HD
ATOM      9  H   UNL     1      -9.608  -7.531  14.873  0.00  0.00    +0.000 HD
ATOM     10  H   UNL     1      -9.738  -6.160  15.949  0.00  0.00    +0.000 HD
ATOM     11  H   UNL     1     -11.030  -8.769  16.444  0.00  0.00    +0.000 HD
ATOM     12  H   UNL     1     -12.498  -7.793  17.797  0.00  0.00    +0.000 HD
ATOM     13  H   UNL     1     -12.377  -6.277  16.944  0.00  0.00    +0.000 HD
ATOM     14  H   UNL     1     -11.615  -6.307  19.343  0.00  0.00    +0.000 HD
ATOM     15  H   UNL     1     -10.539  -5.524  18.211  0.00  0.00    +0.000 HD
ATOM     16  H   UNL     1     -10.159  -8.448  19.085  0.00  0.00    +0.000 HD
ATOM     17  H   UNL     1      -9.586  -7.093  20.036  0.00  0.00    +0.000 HD
ATOM     18  H   UNL     1      -7.737  -7.907  18.703  0.00  0.00    +0.000 HD
ENDROOT
BRANCH   1  21
ATOM     19  O   UNL     1      -8.438  -9.653  14.534  0.00  0.00    +0.000 OA
ATOM     20  C   UNL     1      -8.625 -10.125  15.649  0.00  0.00    +0.000 C 
ATOM     21  N   UNL     1      -8.745  -9.357  16.786  0.00  0.00    +0.000 N 
ATOM     22  H   UNL     1      -8.873  -9.808  17.681  0.00  0.00    +0.000 HD
BRANCH  20  23
ATOM     23  C   UNL     1      -8.657 -11.601  15.844  0.00  0.00    +0.000 A 
ATOM     24  C   UNL     1      -8.697 -12.087  17.158  0.00  0.00    +0.000 A 
ATOM     25  C   UNL     1      -8.759 -13.461  17.404  0.00  0.00    +0.000 A 
ATOM     26  C   UNL     1      -8.772 -14.344  16.330  0.00  0.00    +0.000 A 
ATOM     27  C   UNL     1      -8.719 -13.877  15.020  0.00  0.00    +0.000 A 
ATOM     28  C   UNL     1      -8.656 -12.504  14.771  0.00  0.00    +0.000 A 
ATOM     29  H   UNL     1      -8.689 -11.391  17.996  0.00  0.00    +0.000 HD
ATOM     30  H   UNL     1      -8.795 -13.815  18.429  0.00  0.00    +0.000 HD
ATOM     31  H   UNL     1      -8.714 -14.586  14.196  0.00  0.00    +0.000 HD
ATOM     32  H   UNL     1      -8.584 -12.164  13.743  0.00  0.00    +0.000 HD
BRANCH  26  33
ATOM     33  O   UNL     1      -8.831 -15.691  16.522  0.00  0.00    +0.000 OA
ATOM     34  H   UNL     1      -9.690 -16.015  16.206  0.00  0.00    +0.000 HD
ENDBRANCH  26  33
ENDBRANCH  20  23
ENDBRANCH   1  21
BRANCH   7  35
ATOM     35  O   UNL     1      -8.072  -5.957  18.107  0.00  0.00    +0.000 OA
BRANCH  35  36
ATOM     36  C   UNL     1      -7.053  -5.595  18.919  0.00  0.00    +0.000 C 
ATOM     37  O   UNL     1      -5.935  -6.091  18.953  0.00  0.00    +0.000 OA
BRANCH  36  38
ATOM     38  C   UNL     1      -7.469  -4.474  19.793  0.00  0.00    +0.000 A 
ATOM     39  C   UNL     1      -8.786  -4.013  19.741  0.00  0.00    +0.000 A 
ATOM     40  C   UNL     1      -9.190  -2.982  20.592  0.00  0.00    +0.000 A 
ATOM     41  C   UNL     1      -8.305  -2.407  21.530  0.00  0.00    +0.000 A 
ATOM     42  C   UNL     1      -6.993  -2.904  21.579  0.00  0.00    +0.000 A 
ATOM     43  C   UNL     1      -6.575  -3.895  20.692  0.00  0.00    +0.000 A 
ATOM     44  H   UNL     1      -9.482  -4.457  19.031  0.00  0.00    +0.000 HD
ATOM     45  H   UNL     1      -5.539  -4.219  20.740  0.00  0.00    +0.000 HD
BRANCH  40  46
ATOM     46  O   UNL     1     -10.468  -2.517  20.462  0.00  0.00    +0.000 OA
ATOM     47  H   UNL     1     -10.671  -1.874  21.173  0.00  0.00    +0.000 HD
ENDBRANCH  40  46
BRANCH  41  48
ATOM     48  C   UNL     1      -8.814  -1.344  22.450  0.00  0.00    +0.000 C 
ATOM     49  O   UNL     1      -9.441  -0.398  21.986  0.00  0.00    +0.000 OA
BRANCH  48  50
ATOM     50  C   UNL     1      -8.732  -1.450  23.934  0.00  0.00    +0.000 A 
ATOM     51  C   UNL     1      -8.754  -2.702  24.585  0.00  0.00    +0.000 A 
ATOM     52  C   UNL     1      -8.926  -2.788  25.968  0.00  0.00    +0.000 A 
ATOM     53  C   UNL     1      -9.006  -1.636  26.738  0.00  0.00    +0.000 A 
ATOM     54  C   UNL     1      -8.889  -0.394  26.124  0.00  0.00    +0.000 A 
ATOM     55  C   UNL     1      -8.754  -0.276  24.726  0.00  0.00    +0.000 A 
ATOM     56  H   UNL     1      -9.019  -3.762  26.445  0.00  0.00    +0.000 HD
ATOM     57  H   UNL     1      -9.155  -1.703  27.813  0.00  0.00    +0.000 HD
ATOM     58  H   UNL     1      -8.934   0.503  26.744  0.00  0.00    +0.000 HD
BRANCH  51  59
ATOM     59  O   UNL     1      -8.687  -3.924  23.971  0.00  0.00    +0.000 OA
ATOM     60  H   UNL     1      -9.168  -3.946  23.129  0.00  0.00    +0.000 HD
ENDBRANCH  51  59
BRANCH  55  61
ATOM     61  C   UNL     1      -8.703   1.143  24.255  0.00  0.00    +0.000 C 
ATOM     62  O   UNL     1      -7.705   1.833  24.402  0.00  0.00    +0.000 OA
BRANCH  61  63
ATOM     63  O   UNL     1      -9.895   1.668  23.915  0.00  0.00    +0.000 OA
ATOM     64  H   UNL     1     -10.521   0.944  23.669  0.00  0.00    +0.000 HD
ENDBRANCH  61  63
ENDBRANCH  55  61
ENDBRANCH  48  50
ENDBRANCH  41  48
BRANCH  42  65
ATOM     65  O   UNL     1      -5.997  -2.548  22.444  0.00  0.00    +0.000 OA
ATOM     66  H   UNL     1      -6.185  -2.744  23.372  0.00  0.00    +0.000 HD
ENDBRANCH  42  65
ENDBRANCH  36  38
ENDBRANCH  35  36
ENDBRANCH   7  35
TORSDOF 13
ENDMDL
MODEL 5
REMARK VINA RESULT:    -9.967      3.076     11.555
REMARK INTER + INTRA:         -18.242
REMARK INTER:                 -16.526
REMARK INTRA:                  -1.716
REMARK UNBOUND:                -2.157
REMARK  Name = 
REMARK  13 active torsions:
REMARK  status: ('A' for Active; 'I' for Inactive)
REMARK    1  A    between atoms: C_2  and  C_34
REMARK    2  A    between atoms: N_3  and  C_4
REMARK    3  A    between atoms: C_10  and  O_11
REMARK    4  A    between atoms: O_11  and  C_12
REMARK    5  A    between atoms: C_12  and  C_14
REMARK    6  A    between atoms: C_16  and  O_17
REMARK    7  A    between atoms: C_18  and  C_19
REMARK    8  A    between atoms: C_19  and  C_21
REMARK    9  A    between atoms: C_22  and  O_23
REMARK   10  A    between atoms: C_27  and  C_28
REMARK   11  A    between atoms: C_28  and  O_30
REMARK   12  A    between atoms: C_31  and  O_32
REMARK   13  A    between atoms: C_37  and  O_38
REMARK                            x       y       z     vdW  Elec       q    Type
REMARK                         _______ _______ _______ _____ _____    ______ ____
ROOT
ATOM      1  C   UNL     1      -9.291  -1.752  23.271  0.00  0.00    +0.000 C 
ATOM      2  C   UNL     1     -10.777  -2.187  23.266  0.00  0.00    +0.000 C 
ATOM      3  N   UNL     1     -11.649  -1.261  22.542  0.00  0.00    +0.000 NA
ATOM      4  C   UNL     1     -11.770  -1.486  21.112  0.00  0.00    +0.000 C 
ATOM      5  C   UNL     1     -10.570  -2.046  20.348  0.00  0.00    +0.000 C 
ATOM      6  C   UNL     1      -9.227  -1.412  20.705  0.00  0.00    +0.000 C 
ATOM      7  C   UNL     1      -8.552  -2.025  21.943  0.00  0.00    +0.000 C 
ATOM      8  H   UNL     1      -8.800  -2.358  24.046  0.00  0.00    +0.000 HD
ATOM      9  H   UNL     1     -11.126  -2.187  24.306  0.00  0.00    +0.000 HD
ATOM     10  H   UNL     1     -10.898  -3.220  22.916  0.00  0.00    +0.000 HD
ATOM     11  H   UNL     1     -11.354  -0.307  22.745  0.00  0.00    +0.000 HD
ATOM     12  H   UNL     1     -12.064  -0.534  20.652  0.00  0.00    +0.000 HD
ATOM     13  H   UNL     1     -12.619  -2.160  20.945  0.00  0.00    +0.000 HD
ATOM     14  H   UNL     1     -10.754  -1.868  19.280  0.00  0.00    +0.000 HD
ATOM     15  H   UNL     1     -10.530  -3.136  20.462  0.00  0.00    +0.000 HD
ATOM     16  H   UNL     1      -9.327  -0.327  20.815  0.00  0.00    +0.000 HD
ATOM     17  H   UNL     1      -8.563  -1.570  19.846  0.00  0.00    +0.000 HD
ATOM     18  H   UNL     1      -7.544  -1.599  22.041  0.00  0.00    +0.000 HD
ENDROOT
BRANCH   1  21
ATOM     19  O   UNL     1      -8.919  -0.737  25.902  0.00  0.00    +0.000 OA
ATOM     20  C   UNL     1      -8.964   0.051  24.965  0.00  0.00    +0.000 C 
ATOM     21  N   UNL     1      -9.152  -0.338  23.658  0.00  0.00    +0.000 N 
ATOM     22  H   UNL     1      -9.155   0.359  22.926  0.00  0.00    +0.000 HD
BRANCH  20  23
ATOM     23  C   UNL     1      -8.736   1.504  25.196  0.00  0.00    +0.000 A 
ATOM     24  C   UNL     1      -9.723   2.220  25.888  0.00  0.00    +0.000 A 
ATOM     25  C   UNL     1      -9.552   3.579  26.162  0.00  0.00    +0.000 A 
ATOM     26  C   UNL     1      -8.395   4.219  25.733  0.00  0.00    +0.000 A 
ATOM     27  C   UNL     1      -7.412   3.526  25.032  0.00  0.00    +0.000 A 
ATOM     28  C   UNL     1      -7.581   2.166  24.756  0.00  0.00    +0.000 A 
ATOM     29  H   UNL     1     -10.627   1.713  26.225  0.00  0.00    +0.000 HD
ATOM     30  H   UNL     1     -10.325   4.113  26.704  0.00  0.00    +0.000 HD
ATOM     31  H   UNL     1      -6.522   4.049  24.691  0.00  0.00    +0.000 HD
ATOM     32  H   UNL     1      -6.816   1.653  24.181  0.00  0.00    +0.000 HD
BRANCH  26  33
ATOM     33  O   UNL     1      -8.186   5.543  25.975  0.00  0.00    +0.000 OA
ATOM     34  H   UNL     1      -7.882   5.967  25.156  0.00  0.00    +0.000 HD
ENDBRANCH  26  33
ENDBRANCH  20  23
ENDBRANCH   1  21
BRANCH   7  35
ATOM     35  O   UNL     1      -8.422  -3.452  21.781  0.00  0.00    +0.000 OA
BRANCH  35  36
ATOM     36  C   UNL     1      -7.374  -3.890  21.047  0.00  0.00    +0.000 C 
ATOM     37  O   UNL     1      -6.196  -3.601  21.210  0.00  0.00    +0.000 OA
BRANCH  36  38
ATOM     38  C   UNL     1      -7.843  -4.807  19.982  0.00  0.00    +0.000 A 
ATOM     39  C   UNL     1      -9.207  -5.082  19.863  0.00  0.00    +0.000 A 
ATOM     40  C   UNL     1      -9.655  -5.916  18.836  0.00  0.00    +0.000 A 
ATOM     41  C   UNL     1      -8.764  -6.471  17.892  0.00  0.00    +0.000 A 
ATOM     42  C   UNL     1      -7.401  -6.160  18.019  0.00  0.00    +0.000 A 
ATOM     43  C   UNL     1      -6.948  -5.373  19.077  0.00  0.00    +0.000 A 
ATOM     44  H   UNL     1      -9.906  -4.649  20.577  0.00  0.00    +0.000 HD
ATOM     45  H   UNL     1      -5.879  -5.194  19.157  0.00  0.00    +0.000 HD
BRANCH  40  46
ATOM     46  O   UNL     1     -10.988  -6.211  18.795  0.00  0.00    +0.000 OA
ATOM     47  H   UNL     1     -11.181  -6.996  19.349  0.00  0.00    +0.000 HD
ENDBRANCH  40  46
BRANCH  41  48
ATOM     48  C   UNL     1      -9.314  -7.312  16.783  0.00  0.00    +0.000 C 
ATOM     49  O   UNL     1      -9.915  -6.771  15.862  0.00  0.00    +0.000 OA
BRANCH  48  50
ATOM     50  C   UNL     1      -9.034  -8.770  16.658  0.00  0.00    +0.000 A 
ATOM     51  C   UNL     1      -8.963  -9.400  15.396  0.00  0.00    +0.000 A 
ATOM     52  C   UNL     1      -8.949 -10.792  15.291  0.00  0.00    +0.000 A 
ATOM     53  C   UNL     1      -8.931 -11.583  16.432  0.00  0.00    +0.000 A 
ATOM     54  C   UNL     1      -8.902 -10.976  17.683  0.00  0.00    +0.000 A 
ATOM     55  C   UNL     1      -8.956  -9.574  17.820  0.00  0.00    +0.000 A 
ATOM     56  H   UNL     1      -8.972 -11.263  14.309  0.00  0.00    +0.000 HD
ATOM     57  H   UNL     1      -8.934 -12.667  16.349  0.00  0.00    +0.000 HD
ATOM     58  H   UNL     1      -8.868 -11.610  18.571  0.00  0.00    +0.000 HD
BRANCH  51  59
ATOM     59  O   UNL     1      -8.972  -8.765  14.184  0.00  0.00    +0.000 OA
ATOM     60  H   UNL     1      -8.375  -8.000  14.158  0.00  0.00    +0.000 HD
ENDBRANCH  51  59
BRANCH  55  61
ATOM     61  C   UNL     1      -8.975  -9.122  19.246  0.00  0.00    +0.000 C 
ATOM     62  O   UNL     1      -7.963  -9.115  19.932  0.00  0.00    +0.000 OA
BRANCH  61  63
ATOM     63  O   UNL     1     -10.203  -8.986  19.779  0.00  0.00    +0.000 OA
ATOM     64  H   UNL     1     -10.368  -8.038  20.004  0.00  0.00    +0.000 HD
ENDBRANCH  61  63
ENDBRANCH  55  61
ENDBRANCH  48  50
ENDBRANCH  41  48
BRANCH  42  65
ATOM     65  O   UNL     1      -6.380  -6.527  17.189  0.00  0.00    +0.000 OA
ATOM     66  H   UNL     1      -6.631  -7.163  16.505  0.00  0.00    +0.000 HD
ENDBRANCH  42  65
ENDBRANCH  36  38
ENDBRANCH  35  36
ENDBRANCH   7  35
TORSDOF 13
ENDMDL
MODEL 6
REMARK VINA RESULT:    -9.668      5.075      8.366
REMARK INTER + INTRA:         -17.759
REMARK INTER:                 -15.619
REMARK INTRA:                  -2.139
REMARK UNBOUND:                -2.157
REMARK  Name = 
REMARK  13 active torsions:
REMARK  status: ('A' for Active; 'I' for Inactive)
REMARK    1  A    between atoms: C_2  and  C_34
REMARK    2  A    between atoms: N_3  and  C_4
REMARK    3  A    between atoms: C_10  and  O_11
REMARK    4  A    between atoms: O_11  and  C_12
REMARK    5  A    between atoms: C_12  and  C_14
REMARK    6  A    between atoms: C_16  and  O_17
REMARK    7  A    between atoms: C_18  and  C_19
REMARK    8  A    between atoms: C_19  and  C_21
REMARK    9  A    between atoms: C_22  and  O_23
REMARK   10  A    between atoms: C_27  and  C_28
REMARK   11  A    between atoms: C_28  and  O_30
REMARK   12  A    between atoms: C_31  and  O_32
REMARK   13  A    between atoms: C_37  and  O_38
REMARK                            x       y       z     vdW  Elec       q    Type
REMARK                         _______ _______ _______ _____ _____    ______ ____
ROOT
ATOM      1  C   UNL     1      -9.705  -7.470  17.968  0.00  0.00    +0.000 C 
ATOM      2  C   UNL     1      -9.521  -7.194  19.480  0.00  0.00    +0.000 C 
ATOM      3  N   UNL     1      -8.218  -7.621  19.992  0.00  0.00    +0.000 NA
ATOM      4  C   UNL     1      -7.139  -6.654  19.872  0.00  0.00    +0.000 C 
ATOM      5  C   UNL     1      -7.134  -5.696  18.682  0.00  0.00    +0.000 C 
ATOM      6  C   UNL     1      -7.463  -6.340  17.336  0.00  0.00    +0.000 C 
ATOM      7  C   UNL     1      -8.968  -6.469  17.052  0.00  0.00    +0.000 C 
ATOM      8  H   UNL     1     -10.780  -7.362  17.767  0.00  0.00    +0.000 HD
ATOM      9  H   UNL     1     -10.271  -7.787  20.019  0.00  0.00    +0.000 HD
ATOM     10  H   UNL     1      -9.736  -6.148  19.732  0.00  0.00    +0.000 HD
ATOM     11  H   UNL     1      -7.971  -8.509  19.559  0.00  0.00    +0.000 HD
ATOM     12  H   UNL     1      -6.194  -7.212  19.876  0.00  0.00    +0.000 HD
ATOM     13  H   UNL     1      -7.120  -6.051  20.789  0.00  0.00    +0.000 HD
ATOM     14  H   UNL     1      -6.125  -5.268  18.614  0.00  0.00    +0.000 HD
ATOM     15  H   UNL     1      -7.800  -4.848  18.881  0.00  0.00    +0.000 HD
ATOM     16  H   UNL     1      -6.965  -7.310  17.239  0.00  0.00    +0.000 HD
ATOM     17  H   UNL     1      -7.028  -5.696  16.561  0.00  0.00    +0.000 HD
ATOM     18  H   UNL     1      -9.103  -6.817  16.018  0.00  0.00    +0.000 HD
ENDROOT
BRANCH   1  21
ATOM     19  O   UNL     1     -10.940  -9.143  16.027  0.00  0.00    +0.000 OA
ATOM     20  C   UNL     1      -9.986  -9.578  16.661  0.00  0.00    +0.000 C 
ATOM     21  N   UNL     1      -9.327  -8.853  17.629  0.00  0.00    +0.000 N 
ATOM     22  H   UNL     1      -8.531  -9.259  18.100  0.00  0.00    +0.000 HD
BRANCH  20  23
ATOM     23  C   UNL     1      -9.430 -10.925  16.352  0.00  0.00    +0.000 A 
ATOM     24  C   UNL     1      -9.153 -11.781  17.428  0.00  0.00    +0.000 A 
ATOM     25  C   UNL     1      -8.660 -13.068  17.200  0.00  0.00    +0.000 A 
ATOM     26  C   UNL     1      -8.436 -13.489  15.894  0.00  0.00    +0.000 A 
ATOM     27  C   UNL     1      -8.692 -12.645  14.817  0.00  0.00    +0.000 A 
ATOM     28  C   UNL     1      -9.185 -11.357  15.041  0.00  0.00    +0.000 A 
ATOM     29  H   UNL     1      -9.333 -11.447  18.449  0.00  0.00    +0.000 HD
ATOM     30  H   UNL     1      -8.458 -13.716  18.046  0.00  0.00    +0.000 HD
ATOM     31  H   UNL     1      -8.494 -12.990  13.805  0.00  0.00    +0.000 HD
ATOM     32  H   UNL     1      -9.348 -10.706  14.189  0.00  0.00    +0.000 HD
BRANCH  26  33
ATOM     33  O   UNL     1      -7.954 -14.734  15.624  0.00  0.00    +0.000 OA
ATOM     34  H   UNL     1      -6.989 -14.727  15.736  0.00  0.00    +0.000 HD
ENDBRANCH  26  33
ENDBRANCH  20  23
ENDBRANCH   1  21
BRANCH   7  35
ATOM     35  O   UNL     1      -9.608  -5.182  17.178  0.00  0.00    +0.000 OA
BRANCH  35  36
ATOM     36  C   UNL     1     -10.882  -5.088  16.733  0.00  0.00    +0.000 C 
ATOM     37  O   UNL     1     -11.866  -5.632  17.216  0.00  0.00    +0.000 OA
BRANCH  36  38
ATOM     38  C   UNL     1     -10.946  -4.204  15.547  0.00  0.00    +0.000 A 
ATOM     39  C   UNL     1     -10.864  -2.820  15.716  0.00  0.00    +0.000 A 
ATOM     40  C   UNL     1     -10.885  -1.986  14.596  0.00  0.00    +0.000 A 
ATOM     41  C   UNL     1     -10.961  -2.507  13.287  0.00  0.00    +0.000 A 
ATOM     42  C   UNL     1     -11.019  -3.902  13.142  0.00  0.00    +0.000 A 
ATOM     43  C   UNL     1     -11.053  -4.732  14.263  0.00  0.00    +0.000 A 
ATOM     44  H   UNL     1     -10.791  -2.405  16.721  0.00  0.00    +0.000 HD
ATOM     45  H   UNL     1     -11.141  -5.803  14.101  0.00  0.00    +0.000 HD
BRANCH  40  46
ATOM     46  O   UNL     1     -10.868  -0.637  14.810  0.00  0.00    +0.000 OA
ATOM     47  H   UNL     1     -10.751  -0.444  15.764  0.00  0.00    +0.000 HD
ENDBRANCH  40  46
BRANCH  41  48
ATOM     48  C   UNL     1     -10.925  -1.564  12.127  0.00  0.00    +0.000 C 
ATOM     49  O   UNL     1     -11.883  -0.827  11.923  0.00  0.00    +0.000 OA
BRANCH  48  50
ATOM     50  C   UNL     1      -9.712  -1.359  11.286  0.00  0.00    +0.000 A 
ATOM     51  C   UNL     1      -8.585  -0.663  11.776  0.00  0.00    +0.000 A 
ATOM     52  C   UNL     1      -7.562  -0.261  10.915  0.00  0.00    +0.000 A 
ATOM     53  C   UNL     1      -7.600  -0.605   9.571  0.00  0.00    +0.000 A 
ATOM     54  C   UNL     1      -8.654  -1.374   9.092  0.00  0.00    +0.000 A 
ATOM     55  C   UNL     1      -9.721  -1.759   9.928  0.00  0.00    +0.000 A 
ATOM     56  H   UNL     1      -6.738   0.341  11.295  0.00  0.00    +0.000 HD
ATOM     57  H   UNL     1      -6.810  -0.279   8.899  0.00  0.00    +0.000 HD
ATOM     58  H   UNL     1      -8.661  -1.653   8.037  0.00  0.00    +0.000 HD
BRANCH  51  59
ATOM     59  O   UNL     1      -8.399  -0.253  13.069  0.00  0.00    +0.000 OA
ATOM     60  H   UNL     1      -9.006  -0.687  13.690  0.00  0.00    +0.000 HD
ENDBRANCH  51  59
BRANCH  55  61
ATOM     61  C   UNL     1     -10.784  -2.530   9.212  0.00  0.00    +0.000 C 
ATOM     62  O   UNL     1     -11.809  -1.996   8.814  0.00  0.00    +0.000 OA
BRANCH  61  63
ATOM     63  O   UNL     1     -10.652  -3.869   9.278  0.00  0.00    +0.000 OA
ATOM     64  H   UNL     1      -9.742  -4.129   8.995  0.00  0.00    +0.000 HD
ENDBRANCH  61  63
ENDBRANCH  55  61
ENDBRANCH  48  50
ENDBRANCH  41  48
BRANCH  42  65
ATOM     65  O   UNL     1     -11.030  -4.622  11.981  0.00  0.00    +0.000 OA
ATOM     66  H   UNL     1     -11.878  -4.617  11.516  0.00  0.00    +0.000 HD
ENDBRANCH  42  65
ENDBRANCH  36  38
ENDBRANCH  35  36
ENDBRANCH   7  35
TORSDOF 13
ENDMDL
MODEL 7
REMARK VINA RESULT:    -9.577      3.362     11.760
REMARK INTER + INTRA:         -17.612
REMARK INTER:                 -15.599
REMARK INTRA:                  -2.014
REMARK UNBOUND:                -2.157
REMARK  Name = 
REMARK  13 active torsions:
REMARK  status: ('A' for Active; 'I' for Inactive)
REMARK    1  A    between atoms: C_2  and  C_34
REMARK    2  A    between atoms: N_3  and  C_4
REMARK    3  A    between atoms: C_10  and  O_11
REMARK    4  A    between atoms: O_11  and  C_12
REMARK    5  A    between atoms: C_12  and  C_14
REMARK    6  A    between atoms: C_16  and  O_17
REMARK    7  A    between atoms: C_18  and  C_19
REMARK    8  A    between atoms: C_19  and  C_21
REMARK    9  A    between atoms: C_22  and  O_23
REMARK   10  A    between atoms: C_27  and  C_28
REMARK   11  A    between atoms: C_28  and  O_30
REMARK   12  A    between atoms: C_31  and  O_32
REMARK   13  A    between atoms: C_37  and  O_38
REMARK                            x       y       z     vdW  Elec       q    Type
REMARK                         _______ _______ _______ _____ _____    ______ ____
ROOT
ATOM      1  C   UNL     1      -9.768  -0.183  22.537  0.00  0.00    +0.000 C 
ATOM      2  C   UNL     1      -8.535  -0.694  23.321  0.00  0.00    +0.000 C 
ATOM      3  N   UNL     1      -8.796  -0.888  24.748  0.00  0.00    +0.000 NA
ATOM      4  C   UNL     1      -9.342  -2.181  25.125  0.00  0.00    +0.000 C 
ATOM      5  C   UNL     1     -10.267  -2.907  24.149  0.00  0.00    +0.000 C 
ATOM      6  C   UNL     1     -11.323  -2.023  23.486  0.00  0.00    +0.000 C 
ATOM      7  C   UNL     1     -10.822  -1.273  22.242  0.00  0.00    +0.000 C 
ATOM      8  H   UNL     1      -9.388   0.171  21.568  0.00  0.00    +0.000 HD
ATOM      9  H   UNL     1      -7.757   0.076  23.254  0.00  0.00    +0.000 HD
ATOM     10  H   UNL     1      -8.103  -1.591  22.859  0.00  0.00    +0.000 HD
ATOM     11  H   UNL     1      -9.383  -0.125  25.080  0.00  0.00    +0.000 HD
ATOM     12  H   UNL     1      -9.872  -2.050  26.078  0.00  0.00    +0.000 HD
ATOM     13  H   UNL     1      -8.503  -2.850  25.354  0.00  0.00    +0.000 HD
ATOM     14  H   UNL     1     -10.789  -3.688  24.717  0.00  0.00    +0.000 HD
ATOM     15  H   UNL     1      -9.673  -3.437  23.396  0.00  0.00    +0.000 HD
ATOM     16  H   UNL     1     -11.757  -1.327  24.211  0.00  0.00    +0.000 HD
ATOM     17  H   UNL     1     -12.140  -2.685  23.174  0.00  0.00    +0.000 HD
ATOM     18  H   UNL     1     -11.677  -0.774  21.763  0.00  0.00    +0.000 HD
ENDROOT
BRANCH   1  21
ATOM     19  O   UNL     1     -10.812   2.159  21.305  0.00  0.00    +0.000 OA
ATOM     20  C   UNL     1     -10.877   2.053  22.524  0.00  0.00    +0.000 C 
ATOM     21  N   UNL     1     -10.392   0.966  23.216  0.00  0.00    +0.000 N 
ATOM     22  H   UNL     1     -10.498   0.927  24.220  0.00  0.00    +0.000 HD
BRANCH  20  23
ATOM     23  C   UNL     1     -11.574   3.093  23.331  0.00  0.00    +0.000 A 
ATOM     24  C   UNL     1     -11.036   3.416  24.585  0.00  0.00    +0.000 A 
ATOM     25  C   UNL     1     -11.627   4.405  25.375  0.00  0.00    +0.000 A 
ATOM     26  C   UNL     1     -12.762   5.060  24.910  0.00  0.00    +0.000 A 
ATOM     27  C   UNL     1     -13.315   4.740  23.673  0.00  0.00    +0.000 A 
ATOM     28  C   UNL     1     -12.727   3.751  22.880  0.00  0.00    +0.000 A 
ATOM     29  H   UNL     1     -10.146   2.901  24.944  0.00  0.00    +0.000 HD
ATOM     30  H   UNL     1     -11.192   4.644  26.340  0.00  0.00    +0.000 HD
ATOM     31  H   UNL     1     -14.212   5.254  23.336  0.00  0.00    +0.000 HD
ATOM     32  H   UNL     1     -13.193   3.496  21.935  0.00  0.00    +0.000 HD
BRANCH  26  33
ATOM     33  O   UNL     1     -13.372   6.029  25.646  0.00  0.00    +0.000 OA
ATOM     34  H   UNL     1     -14.274   6.157  25.308  0.00  0.00    +0.000 HD
ENDBRANCH  26  33
ENDBRANCH  20  23
ENDBRANCH   1  21
BRANCH   7  35
ATOM     35  O   UNL     1     -10.259  -2.203  21.294  0.00  0.00    +0.000 OA
BRANCH  35  36
ATOM     36  C   UNL     1     -10.835  -2.254  20.072  0.00  0.00    +0.000 C 
ATOM     37  O   UNL     1     -11.654  -1.466  19.618  0.00  0.00    +0.000 OA
BRANCH  36  38
ATOM     38  C   UNL     1     -10.329  -3.421  19.315  0.00  0.00    +0.000 A 
ATOM     39  C   UNL     1      -8.984  -3.781  19.424  0.00  0.00    +0.000 A 
ATOM     40  C   UNL     1      -8.512  -4.904  18.742  0.00  0.00    +0.000 A 
ATOM     41  C   UNL     1      -9.369  -5.709  17.960  0.00  0.00    +0.000 A 
ATOM     42  C   UNL     1     -10.722  -5.340  17.886  0.00  0.00    +0.000 A 
ATOM     43  C   UNL     1     -11.180  -4.188  18.522  0.00  0.00    +0.000 A 
ATOM     44  H   UNL     1      -8.314  -3.176  20.035  0.00  0.00    +0.000 HD
ATOM     45  H   UNL     1     -12.227  -3.921  18.401  0.00  0.00    +0.000 HD
BRANCH  40  46
ATOM     46  O   UNL     1      -7.177  -5.182  18.824  0.00  0.00    +0.000 OA
ATOM     47  H   UNL     1      -6.763  -4.657  19.540  0.00  0.00    +0.000 HD
ENDBRANCH  40  46
BRANCH  41  48
ATOM     48  C   UNL     1      -8.814  -6.930  17.298  0.00  0.00    +0.000 C 
ATOM     49  O   UNL     1      -8.109  -6.805  16.304  0.00  0.00    +0.000 OA
BRANCH  48  50
ATOM     50  C   UNL     1      -8.948  -8.297  17.877  0.00  0.00    +0.000 A 
ATOM     51  C   UNL     1      -8.445  -8.606  19.160  0.00  0.00    +0.000 A 
ATOM     52  C   UNL     1      -8.350  -9.930  19.592  0.00  0.00    +0.000 A 
ATOM     53  C   UNL     1      -8.819 -10.964  18.794  0.00  0.00    +0.000 A 
ATOM     54  C   UNL     1      -9.407 -10.669  17.569  0.00  0.00    +0.000 A 
ATOM     55  C   UNL     1      -9.479  -9.346  17.089  0.00  0.00    +0.000 A 
ATOM     56  H   UNL     1      -7.889 -10.156  20.552  0.00  0.00    +0.000 HD
ATOM     57  H   UNL     1      -8.732 -11.996  19.125  0.00  0.00    +0.000 HD
ATOM     58  H   UNL     1      -9.788 -11.491  16.960  0.00  0.00    +0.000 HD
BRANCH  51  59
ATOM     59  O   UNL     1      -7.947  -7.704  20.061  0.00  0.00    +0.000 OA
ATOM     60  H   UNL     1      -7.251  -8.081  20.622  0.00  0.00    +0.000 HD
ENDBRANCH  51  59
BRANCH  55  61
ATOM     61  C   UNL     1     -10.092  -9.244  15.728  0.00  0.00    +0.000 C 
ATOM     62  O   UNL     1      -9.454  -9.492  14.716  0.00  0.00    +0.000 OA
BRANCH  61  63
ATOM     63  O   UNL     1     -11.282  -8.615  15.691  0.00  0.00    +0.000 OA
ATOM     64  H   UNL     1     -11.670  -8.579  16.599  0.00  0.00    +0.000 HD
ENDBRANCH  61  63
ENDBRANCH  55  61
ENDBRANCH  48  50
ENDBRANCH  41  48
BRANCH  42  65
ATOM     65  O   UNL     1     -11.734  -6.003  17.249  0.00  0.00    +0.000 OA
ATOM     66  H   UNL     1     -11.457  -6.807  16.790  0.00  0.00    +0.000 HD
ENDBRANCH  42  65
ENDBRANCH  36  38
ENDBRANCH  35  36
ENDBRANCH   7  35
TORSDOF 13
ENDMDL
MODEL 8
REMARK VINA RESULT:    -9.577      5.171      8.485
REMARK INTER + INTRA:         -17.612
REMARK INTER:                 -15.164
REMARK INTRA:                  -2.448
REMARK UNBOUND:                -2.157
REMARK  Name = 
REMARK  13 active torsions:
REMARK  status: ('A' for Active; 'I' for Inactive)
REMARK    1  A    between atoms: C_2  and  C_34
REMARK    2  A    between atoms: N_3  and  C_4
REMARK    3  A    between atoms: C_10  and  O_11
REMARK    4  A    between atoms: O_11  and  C_12
REMARK    5  A    between atoms: C_12  and  C_14
REMARK    6  A    between atoms: C_16  and  O_17
REMARK    7  A    between atoms: C_18  and  C_19
REMARK    8  A    between atoms: C_19  and  C_21
REMARK    9  A    between atoms: C_22  and  O_23
REMARK   10  A    between atoms: C_27  and  C_28
REMARK   11  A    between atoms: C_28  and  O_30
REMARK   12  A    between atoms: C_31  and  O_32
REMARK   13  A    between atoms: C_37  and  O_38
REMARK                            x       y       z     vdW  Elec       q    Type
REMARK                         _______ _______ _______ _____ _____    ______ ____
ROOT
ATOM      1  C   UNL     1      -9.793  -7.428  18.004  0.00  0.00    +0.000 C 
ATOM      2  C   UNL     1      -9.614  -7.187  19.523  0.00  0.00    +0.000 C 
ATOM      3  N   UNL     1      -8.304  -7.607  20.025  0.00  0.00    +0.000 NA
ATOM      4  C   UNL     1      -7.240  -6.623  19.930  0.00  0.00    +0.000 C 
ATOM      5  C   UNL     1      -7.248  -5.635  18.764  0.00  0.00    +0.000 C 
ATOM      6  C   UNL     1      -7.567  -6.250  17.402  0.00  0.00    +0.000 C 
ATOM      7  C   UNL     1      -9.070  -6.394  17.114  0.00  0.00    +0.000 C 
ATOM      8  H   UNL     1     -10.870  -7.331  17.806  0.00  0.00    +0.000 HD
ATOM      9  H   UNL     1     -10.355  -7.804  20.047  0.00  0.00    +0.000 HD
ATOM     10  H   UNL     1      -9.844  -6.151  19.801  0.00  0.00    +0.000 HD
ATOM     11  H   UNL     1      -8.045  -8.481  19.571  0.00  0.00    +0.000 HD
ATOM     12  H   UNL     1      -6.287  -7.167  19.920  0.00  0.00    +0.000 HD
ATOM     13  H   UNL     1      -7.230  -6.043  20.862  0.00  0.00    +0.000 HD
ATOM     14  H   UNL     1      -6.245  -5.191  18.707  0.00  0.00    +0.000 HD
ATOM     15  H   UNL     1      -7.926  -4.803  18.984  0.00  0.00    +0.000 HD
ATOM     16  H   UNL     1      -7.056  -7.211  17.281  0.00  0.00    +0.000 HD
ATOM     17  H   UNL     1      -7.141  -5.582  16.644  0.00  0.00    +0.000 HD
ATOM     18  H   UNL     1      -9.200  -6.718  16.072  0.00  0.00    +0.000 HD
ENDROOT
BRANCH   1  21
ATOM     19  O   UNL     1     -11.013  -9.077  16.034  0.00  0.00    +0.000 OA
ATOM     20  C   UNL     1     -10.049  -9.510  16.652  0.00  0.00    +0.000 C 
ATOM     21  N   UNL     1      -9.395  -8.797  17.632  0.00  0.00    +0.000 N 
ATOM     22  H   UNL     1      -8.589  -9.200  18.088  0.00  0.00    +0.000 HD
BRANCH  20  23
ATOM     23  C   UNL     1      -9.473 -10.840  16.309  0.00  0.00    +0.000 A 
ATOM     24  C   UNL     1      -9.203 -11.727  17.361  0.00  0.00    +0.000 A 
ATOM     25  C   UNL     1      -8.691 -13.000  17.100  0.00  0.00    +0.000 A 
ATOM     26  C   UNL     1      -8.444 -13.378  15.784  0.00  0.00    +0.000 A 
ATOM     27  C   UNL     1      -8.694 -12.503  14.730  0.00  0.00    +0.000 A 
ATOM     28  C   UNL     1      -9.205 -11.228  14.989  0.00  0.00    +0.000 A 
ATOM     29  H   UNL     1      -9.400 -11.427  18.389  0.00  0.00    +0.000 HD
ATOM     30  H   UNL     1      -8.494 -13.673  17.927  0.00  0.00    +0.000 HD
ATOM     31  H   UNL     1      -8.478 -12.813  13.711  0.00  0.00    +0.000 HD
ATOM     32  H   UNL     1      -9.363 -10.553  14.155  0.00  0.00    +0.000 HD
BRANCH  26  33
ATOM     33  O   UNL     1      -7.945 -14.608  15.483  0.00  0.00    +0.000 OA
ATOM     34  H   UNL     1      -6.993 -14.525  15.307  0.00  0.00    +0.000 HD
ENDBRANCH  26  33
ENDBRANCH  20  23
ENDBRANCH   1  21
BRANCH   7  35
ATOM     35  O   UNL     1      -9.729  -5.121  17.271  0.00  0.00    +0.000 OA
BRANCH  35  36
ATOM     36  C   UNL     1     -10.924  -4.971  16.657  0.00  0.00    +0.000 C 
ATOM     37  O   UNL     1     -12.003  -5.397  17.047  0.00  0.00    +0.000 OA
BRANCH  36  38
ATOM     38  C   UNL     1     -10.765  -4.191  15.408  0.00  0.00    +0.000 A 
ATOM     39  C   UNL     1     -10.328  -2.867  15.476  0.00  0.00    +0.000 A 
ATOM     40  C   UNL     1     -10.139  -2.141  14.297  0.00  0.00    +0.000 A 
ATOM     41  C   UNL     1     -10.354  -2.722  13.029  0.00  0.00    +0.000 A 
ATOM     42  C   UNL     1     -10.770  -4.062  12.987  0.00  0.00    +0.000 A 
ATOM     43  C   UNL     1     -11.010  -4.769  14.165  0.00  0.00    +0.000 A 
ATOM     44  H   UNL     1     -10.146  -2.410  16.448  0.00  0.00    +0.000 HD
ATOM     45  H   UNL     1     -11.372  -5.791  14.081  0.00  0.00    +0.000 HD
BRANCH  40  46
ATOM     46  O   UNL     1      -9.774  -0.830  14.412  0.00  0.00    +0.000 OA
ATOM     47  H   UNL     1     -10.456  -0.250  14.015  0.00  0.00    +0.000 HD
ENDBRANCH  40  46
BRANCH  41  48
ATOM     48  C   UNL     1     -10.082  -1.909  11.803  0.00  0.00    +0.000 C 
ATOM     49  O   UNL     1      -8.933  -1.555  11.561  0.00  0.00    +0.000 OA
BRANCH  48  50
ATOM     50  C   UNL     1     -11.117  -1.633  10.768  0.00  0.00    +0.000 A 
ATOM     51  C   UNL     1     -11.096  -2.282   9.514  0.00  0.00    +0.000 A 
ATOM     52  C   UNL     1     -11.910  -1.844   8.468  0.00  0.00    +0.000 A 
ATOM     53  C   UNL     1     -12.810  -0.807   8.665  0.00  0.00    +0.000 A 
ATOM     54  C   UNL     1     -12.913  -0.221   9.922  0.00  0.00    +0.000 A 
ATOM     55  C   UNL     1     -12.076  -0.615  10.986  0.00  0.00    +0.000 A 
ATOM     56  H   UNL     1     -11.826  -2.306   7.485  0.00  0.00    +0.000 HD
ATOM     57  H   UNL     1     -13.433  -0.457   7.846  0.00  0.00    +0.000 HD
ATOM     58  H   UNL     1     -13.638   0.581  10.068  0.00  0.00    +0.000 HD
BRANCH  51  59
ATOM     59  O   UNL     1     -10.270  -3.316   9.163  0.00  0.00    +0.000 OA
ATOM     60  H   UNL     1      -9.332  -3.107   9.297  0.00  0.00    +0.000 HD
ENDBRANCH  51  59
BRANCH  55  61
ATOM     61  C   UNL     1     -12.301   0.174  12.236  0.00  0.00    +0.000 C 
ATOM     62  O   UNL     1     -11.503   1.020  12.615  0.00  0.00    +0.000 OA
BRANCH  61  63
ATOM     63  O   UNL     1     -13.281  -0.295  13.031  0.00  0.00    +0.000 OA
ATOM     64  H   UNL     1     -14.015   0.364  13.082  0.00  0.00    +0.000 HD
ENDBRANCH  61  63
ENDBRANCH  55  61
ENDBRANCH  48  50
ENDBRANCH  41  48
BRANCH  42  65
ATOM     65  O   UNL     1     -10.971  -4.840  11.881  0.00  0.00    +0.000 OA
ATOM     66  H   UNL     1     -11.885  -5.133  11.761  0.00  0.00    +0.000 HD
ENDBRANCH  42  65
ENDBRANCH  36  38
ENDBRANCH  35  36
ENDBRANCH   7  35
TORSDOF 13
ENDMDL
MODEL 9
REMARK VINA RESULT:    -9.481      3.316     11.329
REMARK INTER + INTRA:         -17.457
REMARK INTER:                 -15.212
REMARK INTRA:                  -2.245
REMARK UNBOUND:                -2.157
REMARK  Name = 
REMARK  13 active torsions:
REMARK  status: ('A' for Active; 'I' for Inactive)
REMARK    1  A    between atoms: C_2  and  C_34
REMARK    2  A    between atoms: N_3  and  C_4
REMARK    3  A    between atoms: C_10  and  O_11
REMARK    4  A    between atoms: O_11  and  C_12
REMARK    5  A    between atoms: C_12  and  C_14
REMARK    6  A    between atoms: C_16  and  O_17
REMARK    7  A    between atoms: C_18  and  C_19
REMARK    8  A    between atoms: C_19  and  C_21
REMARK    9  A    between atoms: C_22  and  O_23
REMARK   10  A    between atoms: C_27  and  C_28
REMARK   11  A    between atoms: C_28  and  O_30
REMARK   12  A    between atoms: C_31  and  O_32
REMARK   13  A    between atoms: C_37  and  O_38
REMARK                            x       y       z     vdW  Elec       q    Type
REMARK                         _______ _______ _______ _____ _____    ______ ____
ROOT
ATOM      1  C   UNL     1     -11.411   0.596  20.237  0.00  0.00    +0.000 C 
ATOM      2  C   UNL     1     -12.011   1.512  19.142  0.00  0.00    +0.000 C 
ATOM      3  N   UNL     1     -11.099   2.573  18.711  0.00  0.00    +0.000 NA
ATOM      4  C   UNL     1     -10.172   2.222  17.648  0.00  0.00    +0.000 C 
ATOM      5  C   UNL     1      -9.652   0.787  17.565  0.00  0.00    +0.000 C 
ATOM      6  C   UNL     1      -9.233   0.176  18.901  0.00  0.00    +0.000 C 
ATOM      7  C   UNL     1     -10.393  -0.435  19.704  0.00  0.00    +0.000 C 
ATOM      8  H   UNL     1     -12.255   0.031  20.657  0.00  0.00    +0.000 HD
ATOM      9  H   UNL     1     -12.885   2.017  19.574  0.00  0.00    +0.000 HD
ATOM     10  H   UNL     1     -12.396   0.934  18.293  0.00  0.00    +0.000 HD
ATOM     11  H   UNL     1     -10.610   2.936  19.527  0.00  0.00    +0.000 HD
ATOM     12  H   UNL     1      -9.313   2.901  17.723  0.00  0.00    +0.000 HD
ATOM     13  H   UNL     1     -10.647   2.464  16.689  0.00  0.00    +0.000 HD
ATOM     14  H   UNL     1      -8.772   0.799  16.908  0.00  0.00    +0.000 HD
ATOM     15  H   UNL     1     -10.389   0.152  17.059  0.00  0.00    +0.000 HD
ATOM     16  H   UNL     1      -8.685   0.905  19.506  0.00  0.00    +0.000 HD
ATOM     17  H   UNL     1      -8.521  -0.627  18.673  0.00  0.00    +0.000 HD
ATOM     18  H   UNL     1      -9.979  -0.961  20.576  0.00  0.00    +0.000 HD
ENDROOT
BRANCH   1  21
ATOM     19  O   UNL     1     -11.062  -0.225  22.937  0.00  0.00    +0.000 OA
ATOM     20  C   UNL     1     -10.685   0.893  22.606  0.00  0.00    +0.000 C 
ATOM     21  N   UNL     1     -10.819   1.389  21.328  0.00  0.00    +0.000 N 
ATOM     22  H   UNL     1     -10.465   2.310  21.112  0.00  0.00    +0.000 HD
BRANCH  20  23
ATOM     23  C   UNL     1      -9.975   1.766  23.582  0.00  0.00    +0.000 A 
ATOM     24  C   UNL     1      -8.840   1.244  24.219  0.00  0.00    +0.000 A 
ATOM     25  C   UNL     1      -8.114   2.025  25.122  0.00  0.00    +0.000 A 
ATOM     26  C   UNL     1      -8.533   3.324  25.389  0.00  0.00    +0.000 A 
ATOM     27  C   UNL     1      -9.666   3.850  24.775  0.00  0.00    +0.000 A 
ATOM     28  C   UNL     1     -10.395   3.071  23.872  0.00  0.00    +0.000 A 
ATOM     29  H   UNL     1      -8.514   0.228  24.005  0.00  0.00    +0.000 HD
ATOM     30  H   UNL     1      -7.236   1.605  25.600  0.00  0.00    +0.000 HD
ATOM     31  H   UNL     1      -9.986   4.862  25.011  0.00  0.00    +0.000 HD
ATOM     32  H   UNL     1     -11.292   3.491  23.429  0.00  0.00    +0.000 HD
BRANCH  26  33
ATOM     33  O   UNL     1      -7.858   4.121  26.262  0.00  0.00    +0.000 OA
ATOM     34  H   UNL     1      -7.053   4.449  25.828  0.00  0.00    +0.000 HD
ENDBRANCH  26  33
ENDBRANCH  20  23
ENDBRANCH   1  21
BRANCH   7  35
ATOM     35  O   UNL     1     -11.102  -1.398  18.896  0.00  0.00    +0.000 OA
BRANCH  35  36
ATOM     36  C   UNL     1     -11.467  -2.551  19.500  0.00  0.00    +0.000 C 
ATOM     37  O   UNL     1     -12.228  -2.667  20.452  0.00  0.00    +0.000 OA
BRANCH  36  38
ATOM     38  C   UNL     1     -10.814  -3.704  18.839  0.00  0.00    +0.000 A 
ATOM     39  C   UNL     1      -9.455  -3.941  19.055  0.00  0.00    +0.000 A 
ATOM     40  C   UNL     1      -8.846  -5.051  18.463  0.00  0.00    +0.000 A 
ATOM     41  C   UNL     1      -9.578  -5.961  17.670  0.00  0.00    +0.000 A 
ATOM     42  C   UNL     1     -10.948  -5.714  17.489  0.00  0.00    +0.000 A 
ATOM     43  C   UNL     1     -11.543  -4.577  18.034  0.00  0.00    +0.000 A 
ATOM     44  H   UNL     1      -8.882  -3.254  19.675  0.00  0.00    +0.000 HD
ATOM     45  H   UNL     1     -12.597  -4.406  17.831  0.00  0.00    +0.000 HD
BRANCH  40  46
ATOM     46  O   UNL     1      -7.502  -5.209  18.646  0.00  0.00    +0.000 OA
ATOM     47  H   UNL     1      -7.252  -6.150  18.542  0.00  0.00    +0.000 HD
ENDBRANCH  40  46
BRANCH  41  48
ATOM     48  C   UNL     1      -8.880  -7.159  17.110  0.00  0.00    +0.000 C 
ATOM     49  O   UNL     1      -8.079  -7.013  16.194  0.00  0.00    +0.000 OA
BRANCH  48  50
ATOM     50  C   UNL     1      -8.991  -8.517  17.714  0.00  0.00    +0.000 A 
ATOM     51  C   UNL     1      -8.494  -8.791  19.007  0.00  0.00    +0.000 A 
ATOM     52  C   UNL     1      -8.376 -10.105  19.465  0.00  0.00    +0.000 A 
ATOM     53  C   UNL     1      -8.815 -11.163  18.683  0.00  0.00    +0.000 A 
ATOM     54  C   UNL     1      -9.397 -10.904  17.447  0.00  0.00    +0.000 A 
ATOM     55  C   UNL     1      -9.492  -9.592  16.941  0.00  0.00    +0.000 A 
ATOM     56  H   UNL     1      -7.920 -10.303  20.434  0.00  0.00    +0.000 HD
ATOM     57  H   UNL     1      -8.710 -12.187  19.035  0.00  0.00    +0.000 HD
ATOM     58  H   UNL     1      -9.755 -11.745  16.850  0.00  0.00    +0.000 HD
BRANCH  51  59
ATOM     59  O   UNL     1      -8.024  -7.862  19.896  0.00  0.00    +0.000 OA
ATOM     60  H   UNL     1      -7.709  -8.261  20.722  0.00  0.00    +0.000 HD
ENDBRANCH  51  59
BRANCH  55  61
ATOM     61  C   UNL     1     -10.094  -9.529  15.573  0.00  0.00    +0.000 C 
ATOM     62  O   UNL     1      -9.445  -9.798  14.573  0.00  0.00    +0.000 OA
BRANCH  61  63
ATOM     63  O   UNL     1     -11.287  -8.910  15.509  0.00  0.00    +0.000 OA
ATOM     64  H   UNL     1     -11.812  -9.271  14.754  0.00  0.00    +0.000 HD
ENDBRANCH  61  63
ENDBRANCH  55  61
ENDBRANCH  48  50
ENDBRANCH  41  48
BRANCH  42  65
ATOM     65  O   UNL     1     -11.856  -6.489  16.823  0.00  0.00    +0.000 OA
ATOM     66  H   UNL     1     -11.837  -6.387  15.862  0.00  0.00    +0.000 HD
ENDBRANCH  42  65
ENDBRANCH  36  38
ENDBRANCH  35  36
ENDBRANCH   7  35
TORSDOF 13
ENDMDL
