REMARK  Name = 
REMARK  8 active torsions:
REMARK  status: ('A' for Active; 'I' for Inactive)
REMARK    1  A    between atoms: C_1  and  N_2
REMARK    2  A    between atoms: C_12  and  C_13
REMARK    3  A    between atoms: C_13  and  C_14
REMARK    4  A    between atoms: C_14  and  C_15
REMARK    5  A    between atoms: C_15  and  N_16
REMARK    6  A    between atoms: N_16  and  C_17
REMARK    7  A    between atoms: C_17  and  C_18
REMARK    8  A    between atoms: C_18  and  O_19
REMARK                            x       y       z     vdW  Elec       q    Type
REMARK                         _______ _______ _______ _____ _____    ______ ____
ROOT
ATOM      1  N   UNL     1      -5.369   2.110  -1.021  0.00  0.00    +0.000 N 
ATOM      2  C   UNL     1      -6.019   1.767  -2.195  0.00  0.00    +0.000 A 
ATOM      3  C   UNL     1      -5.125   1.123  -2.992  0.00  0.00    +0.000 A 
ATOM      4  C   UNL     1      -4.151   0.630  -2.102  0.00  0.00    +0.000 A 
ATOM      5  C   UNL     1      -3.244  -0.419  -2.302  0.00  0.00    +0.000 A 
ATOM      6  C   UNL     1      -2.306  -0.703  -1.345  0.00  0.00    +0.000 A 
ATOM      7  C   UNL     1      -2.129   0.243  -0.350  0.00  0.00    +0.000 A 
ATOM      8  C   UNL     1      -0.896   0.179   0.288  0.00  0.00    +0.000 A 
ATOM      9  N   UNL     1       0.012  -0.824   0.462  0.00  0.00    +0.000 N 
ATOM     10  C   UNL     1       0.959  -0.459   1.406  0.00  0.00    +0.000 A 
ATOM     11  C   UNL     1       1.895  -1.275   2.042  0.00  0.00    +0.000 A 
ATOM     12  C   UNL     1       2.678  -0.655   3.030  0.00  0.00    +0.000 A 
ATOM     13  C   UNL     1       2.565   0.708   3.300  0.00  0.00    +0.000 A 
ATOM     14  C   UNL     1       1.650   1.507   2.616  0.00  0.00    +0.000 A 
ATOM     15  C   UNL     1       0.794   0.906   1.671  0.00  0.00    +0.000 A 
ATOM     16  C   UNL     1      -0.329   1.244   0.910  0.00  0.00    +0.000 A 
ATOM     17  C   UNL     1      -1.111   2.407   1.141  0.00  0.00    +0.000 A 
ATOM     18  C   UNL     1      -2.523   2.163   0.976  0.00  0.00    +0.000 A 
ATOM     19  C   UNL     1      -3.032   1.306  -0.030  0.00  0.00    +0.000 A 
ATOM     20  C   UNL     1      -4.177   1.398  -0.895  0.00  0.00    +0.000 A 
ATOM     21  C   UNL     1      -3.001   2.533   2.298  0.00  0.00    +0.000 C 
ATOM     22  O   UNL     1      -3.833   2.014   3.036  0.00  0.00    +0.000 OA
ATOM     23  N   UNL     1      -2.080   3.427   2.769  0.00  0.00    +0.000 N 
ATOM     24  C   UNL     1      -0.881   3.461   2.059  0.00  0.00    +0.000 C 
ATOM     25  O   UNL     1       0.047   4.203   2.304  0.00  0.00    +0.000 OA
ATOM     26  H   UNL     1      -7.042   2.056  -2.399  0.00  0.00    +0.000 HD
ATOM     27  H   UNL     1      -5.251   0.847  -4.030  0.00  0.00    +0.000 HD
ATOM     28  H   UNL     1      -3.284  -1.006  -3.213  0.00  0.00    +0.000 HD
ATOM     29  H   UNL     1      -1.630  -1.535  -1.510  0.00  0.00    +0.000 HD
ATOM     30  H   UNL     1      -0.137  -1.777   0.159  0.00  0.00    +0.000 HD
ATOM     31  H   UNL     1       3.393  -1.244   3.604  0.00  0.00    +0.000 HD
ATOM     32  H   UNL     1       3.186   1.159   4.070  0.00  0.00    +0.000 HD
ATOM     33  H   UNL     1       1.588   2.563   2.857  0.00  0.00    +0.000 HD
ATOM     34  H   UNL     1      -1.995   3.663   3.747  0.00  0.00    +0.000 HD
ENDROOT
BRANCH   1  35
ATOM     35  C   UNL     1      -6.015   3.046  -0.129  0.00  0.00    +0.000 C 
ATOM     36  H   UNL     1      -5.428   3.964  -0.098  0.00  0.00    +0.000 HD
ATOM     37  H   UNL     1      -6.164   2.591   0.848  0.00  0.00    +0.000 HD
ATOM     38  H   UNL     1      -7.003   3.295  -0.548  0.00  0.00    +0.000 HD
ENDBRANCH   1  35
BRANCH  11  39
ATOM     39  C   UNL     1       2.038  -2.747   1.733  0.00  0.00    +0.000 C 
ATOM     40  H   UNL     1       1.072  -3.232   1.923  0.00  0.00    +0.000 HD
ATOM     41  H   UNL     1       2.759  -3.212   2.416  0.00  0.00    +0.000 HD
BRANCH  39  42
ATOM     42  C   UNL     1       2.455  -3.016   0.282  0.00  0.00    +0.000 C 
ATOM     43  H   UNL     1       1.681  -2.674  -0.414  0.00  0.00    +0.000 HD
ATOM     44  H   UNL     1       2.526  -4.101   0.135  0.00  0.00    +0.000 HD
BRANCH  42  45
ATOM     45  C   UNL     1       3.787  -2.356  -0.080  0.00  0.00    +0.000 C 
ATOM     46  H   UNL     1       4.579  -2.782   0.546  0.00  0.00    +0.000 HD
ATOM     47  H   UNL     1       3.745  -1.277   0.106  0.00  0.00    +0.000 HD
BRANCH  45  48
ATOM     48  N   UNL     1       4.062  -2.588  -1.500  0.00  0.00    +0.000 NA
ATOM     49  H   UNL     1       3.330  -2.119  -2.035  0.00  0.00    +0.000 HD
BRANCH  48  50
ATOM     50  C   UNL     1       5.349  -1.976  -1.870  0.00  0.00    +0.000 C 
ATOM     51  H   UNL     1       6.156  -2.383  -1.251  0.00  0.00    +0.000 HD
ATOM     52  H   UNL     1       5.294  -0.893  -1.708  0.00  0.00    +0.000 HD
BRANCH  50  53
ATOM     53  C   UNL     1       5.668  -2.246  -3.343  0.00  0.00    +0.000 C 
ATOM     54  H   UNL     1       5.738  -3.321  -3.546  0.00  0.00    +0.000 HD
ATOM     55  H   UNL     1       6.623  -1.785  -3.610  0.00  0.00    +0.000 HD
BRANCH  53  56
ATOM     56  O   UNL     1       4.660  -1.690  -4.185  0.00  0.00    +0.000 OA
ATOM     57  H   UNL     1       3.862  -2.222  -4.028  0.00  0.00    +0.000 HD
ENDBRANCH  53  56
ENDBRANCH  50  53
ENDBRANCH  48  50
ENDBRANCH  45  48
ENDBRANCH  42  45
ENDBRANCH  39  42
ENDBRANCH  11  39
TORSDOF 8
