REMARK  Name = 
REMARK  7 active torsions:
REMARK  status: ('A' for Active; 'I' for Inactive)
REMARK    1  A    between atoms: S_2  and  C_4
REMARK    2  A    between atoms: S_2  and  N_11
REMARK    3  A    between atoms: C_4  and  C_5
REMARK    4  A    between atoms: C_14  and  O_15
REMARK    5  A    between atoms: C_16  and  O_17
REMARK    6  A    between atoms: C_23  and  O_24
REMARK    7  A    between atoms: C_25  and  O_26
REMARK                            x       y       z     vdW  Elec       q    Type
REMARK                         _______ _______ _______ _____ _____    ______ ____
ROOT
ATOM      1  N   UNL     1      -0.514   0.694   0.386  0.00  0.00    +0.000 N 
ATOM      2  C   UNL     1      -0.124   1.940   0.860  0.00  0.00    +0.000 A 
ATOM      3  C   UNL     1      -0.393   3.257   0.486  0.00  0.00    +0.000 A 
ATOM      4  C   UNL     1      -0.603   4.112   1.554  0.00  0.00    +0.000 A 
ATOM      5  C   UNL     1      -0.546   3.647   2.867  0.00  0.00    +0.000 A 
ATOM      6  C   UNL     1       0.061   2.429   3.180  0.00  0.00    +0.000 A 
ATOM      7  C   UNL     1       0.422   1.611   2.095  0.00  0.00    +0.000 A 
ATOM      8  C   UNL     1       1.115   0.417   1.788  0.00  0.00    +0.000 A 
ATOM      9  C   UNL     1       2.381  -0.165   2.017  0.00  0.00    +0.000 A 
ATOM     10  C   UNL     1       2.577  -1.495   1.639  0.00  0.00    +0.000 A 
ATOM     11  C   UNL     1       1.471  -2.275   1.285  0.00  0.00    +0.000 A 
ATOM     12  C   UNL     1       0.230  -1.687   1.023  0.00  0.00    +0.000 A 
ATOM     13  C   UNL     1       0.190  -0.296   1.036  0.00  0.00    +0.000 A 
ATOM     14  H   UNL     1      -0.606   3.542  -0.538  0.00  0.00    +0.000 HD
ATOM     15  H   UNL     1       0.090   2.063   4.201  0.00  0.00    +0.000 HD
ATOM     16  H   UNL     1       3.213   0.448   2.342  0.00  0.00    +0.000 HD
ATOM     17  H   UNL     1       3.573  -1.924   1.668  0.00  0.00    +0.000 HD
ENDROOT
BRANCH   1  19
ATOM     18  O   UNL     1      -1.778   1.605  -1.542  0.00  0.00    +0.000 OA
ATOM     19  S   UNL     1      -1.914   0.566  -0.553  0.00  0.00    +0.000 S 
ATOM     20  O   UNL     1      -2.984   0.619   0.434  0.00  0.00    +0.000 OA
BRANCH  19  21
ATOM     21  C   UNL     1      -2.059  -0.952  -1.424  0.00  0.00    +0.000 C 
ATOM     22  H   UNL     1      -2.887  -0.764  -2.127  0.00  0.00    +0.000 HD
ATOM     23  H   UNL     1      -2.420  -1.706  -0.721  0.00  0.00    +0.000 HD
BRANCH  21  24
ATOM     24  C   UNL     1      -0.871  -1.432  -2.219  0.00  0.00    +0.000 A 
ATOM     25  C   UNL     1       0.336  -0.758  -2.428  0.00  0.00    +0.000 A 
ATOM     26  C   UNL     1       1.327  -1.312  -3.238  0.00  0.00    +0.000 A 
ATOM     27  C   UNL     1       1.107  -2.540  -3.880  0.00  0.00    +0.000 A 
ATOM     28  C   UNL     1      -0.075  -3.223  -3.675  0.00  0.00    +0.000 A 
ATOM     29  C   UNL     1      -1.058  -2.670  -2.849  0.00  0.00    +0.000 A 
ATOM     30  H   UNL     1       0.556   0.218  -1.995  0.00  0.00    +0.000 HD
ATOM     31  H   UNL     1       2.260  -0.785  -3.404  0.00  0.00    +0.000 HD
ATOM     32  H   UNL     1       1.874  -2.953  -4.535  0.00  0.00    +0.000 HD
ATOM     33  H   UNL     1      -0.254  -4.175  -4.161  0.00  0.00    +0.000 HD
ATOM     34  H   UNL     1      -1.976  -3.228  -2.691  0.00  0.00    +0.000 HD
ENDBRANCH  21  24
ENDBRANCH  19  21
ENDBRANCH   1  19
BRANCH   4  35
ATOM     35  O   UNL     1      -0.984   5.410   1.344  0.00  0.00    +0.000 OA
ATOM     36  H   UNL     1      -0.645   5.662   0.466  0.00  0.00    +0.000 HD
ENDBRANCH   4  35
BRANCH   5  37
ATOM     37  O   UNL     1      -1.142   4.384   3.853  0.00  0.00    +0.000 OA
ATOM     38  H   UNL     1      -1.624   5.086   3.368  0.00  0.00    +0.000 HD
ENDBRANCH   5  37
BRANCH  11  39
ATOM     39  O   UNL     1       1.572  -3.631   1.131  0.00  0.00    +0.000 OA
ATOM     40  H   UNL     1       2.496  -3.887   1.263  0.00  0.00    +0.000 HD
ENDBRANCH  11  39
BRANCH  12  41
ATOM     41  O   UNL     1      -0.845  -2.469   0.748  0.00  0.00    +0.000 OA
ATOM     42  H   UNL     1      -0.550  -3.382   0.948  0.00  0.00    +0.000 HD
ENDBRANCH  12  41
TORSDOF 7
