REMARK  Name = 
REMARK  9 active torsions:
REMARK  status: ('A' for Active; 'I' for Inactive)
REMARK    1  A    between atoms: C_1  and  O_2
REMARK    2  A    between atoms: O_2  and  C_3
REMARK    3  A    between atoms: C_3  and  C_5
REMARK    4  A    between atoms: C_5  and  N_6
REMARK    5  A    between atoms: N_6  and  C_7
REMARK    6  A    between atoms: N_6  and  C_8
REMARK    7  A    between atoms: C_12  and  C_13
REMARK    8  A    between atoms: C_14  and  O_15
REMARK    9  A    between atoms: O_15  and  C_16
REMARK                            x       y       z     vdW  Elec       q    Type
REMARK                         _______ _______ _______ _____ _____    ______ ____
ROOT
ATOM      1  C   UNL     1       2.428  -0.336   0.389  0.00  0.00    +0.000 C 
ATOM      2  C   UNL     1       1.443  -0.129   1.520  0.00  0.00    +0.000 C 
ATOM      3  C   UNL     1       0.369  -1.202   1.520  0.00  0.00    +0.000 C 
ATOM      4  O   UNL     1       0.386  -2.080   0.406  0.00  0.00    +0.000 OA
ATOM      5  C   UNL     1       0.484  -1.472  -0.898  0.00  0.00    +0.000 C 
ATOM      6  C   UNL     1       1.682  -0.438  -0.985  0.00  0.00    +0.000 C 
ATOM      7  N   UNL     1      -0.845  -1.026  -1.273  0.00  0.00    +0.000 N 
ATOM      8  C   UNL     1      -1.473  -1.072  -2.537  0.00  0.00    +0.000 A 
ATOM      9  C   UNL     1      -0.947  -1.070  -3.836  0.00  0.00    +0.000 A 
ATOM     10  C   UNL     1      -1.765  -1.534  -4.870  0.00  0.00    +0.000 A 
ATOM     11  C   UNL     1      -3.045  -2.013  -4.608  0.00  0.00    +0.000 A 
ATOM     12  C   UNL     1      -3.650  -1.768  -3.374  0.00  0.00    +0.000 A 
ATOM     13  C   UNL     1      -2.902  -1.143  -2.363  0.00  0.00    +0.000 A 
ATOM     14  C   UNL     1      -3.160  -0.540  -1.127  0.00  0.00    +0.000 A 
ATOM     15  C   UNL     1      -4.316   0.126  -0.705  0.00  0.00    +0.000 A 
ATOM     16  C   UNL     1      -4.221   0.708   0.583  0.00  0.00    +0.000 A 
ATOM     17  C   UNL     1      -3.008   0.416   1.238  0.00  0.00    +0.000 A 
ATOM     18  C   UNL     1      -2.551   0.872   2.497  0.00  0.00    +0.000 A 
ATOM     19  C   UNL     1      -2.909   1.891   3.404  0.00  0.00    +0.000 A 
ATOM     20  C   UNL     1      -2.251   1.993   4.637  0.00  0.00    +0.000 A 
ATOM     21  C   UNL     1      -1.315   1.042   5.028  0.00  0.00    +0.000 A 
ATOM     22  C   UNL     1      -0.879   0.063   4.139  0.00  0.00    +0.000 A 
ATOM     23  C   UNL     1      -1.406   0.063   2.837  0.00  0.00    +0.000 A 
ATOM     24  N   UNL     1      -0.928  -0.604   1.694  0.00  0.00    +0.000 N 
ATOM     25  C   UNL     1      -1.901  -0.319   0.810  0.00  0.00    +0.000 A 
ATOM     26  C   UNL     1      -1.910  -0.672  -0.513  0.00  0.00    +0.000 A 
ATOM     27  C   UNL     1      -5.430   1.406   0.870  0.00  0.00    +0.000 C 
ATOM     28  O   UNL     1      -5.846   2.011   1.848  0.00  0.00    +0.000 OA
ATOM     29  N   UNL     1      -6.182   1.242  -0.297  0.00  0.00    +0.000 N 
ATOM     30  C   UNL     1      -5.535   0.529  -1.392  0.00  0.00    +0.000 C 
ATOM     31  H   UNL     1       2.817  -1.353   0.554  0.00  0.00    +0.000 HD
ATOM     32  H   UNL     1       1.953  -0.161   2.492  0.00  0.00    +0.000 HD
ATOM     33  H   UNL     1       0.998   0.872   1.469  0.00  0.00    +0.000 HD
ATOM     34  H   UNL     1       0.517  -1.851   2.390  0.00  0.00    +0.000 HD
ATOM     35  H   UNL     1       2.424  -0.933  -1.624  0.00  0.00    +0.000 HD
ATOM     36  H   UNL     1       0.072  -0.751  -4.036  0.00  0.00    +0.000 HD
ATOM     37  H   UNL     1      -1.373  -1.576  -5.884  0.00  0.00    +0.000 HD
ATOM     38  H   UNL     1      -3.593  -2.546  -5.380  0.00  0.00    +0.000 HD
ATOM     39  H   UNL     1      -4.657  -2.121  -3.173  0.00  0.00    +0.000 HD
ATOM     40  H   UNL     1      -3.651   2.635   3.129  0.00  0.00    +0.000 HD
ATOM     41  H   UNL     1      -2.493   2.814   5.306  0.00  0.00    +0.000 HD
ATOM     42  H   UNL     1      -0.886   1.083   6.026  0.00  0.00    +0.000 HD
ATOM     43  H   UNL     1      -0.122  -0.654   4.443  0.00  0.00    +0.000 HD
ATOM     44  H   UNL     1      -7.115   1.624  -0.343  0.00  0.00    +0.000 HD
ATOM     45  H   UNL     1      -5.326   1.248  -2.191  0.00  0.00    +0.000 HD
ATOM     46  H   UNL     1      -6.154  -0.299  -1.734  0.00  0.00    +0.000 HD
ENDROOT
BRANCH   5  47
ATOM     47  C   UNL     1       0.863  -2.711  -1.764  0.00  0.00    +0.000 C 
ATOM     48  H   UNL     1       1.208  -2.435  -2.766  0.00  0.00    +0.000 HD
ATOM     49  H   UNL     1       1.661  -3.289  -1.283  0.00  0.00    +0.000 HD
ATOM     50  H   UNL     1       0.016  -3.400  -1.875  0.00  0.00    +0.000 HD
ENDBRANCH   5  47
BRANCH   1  51
ATOM     51  N   UNL     1       3.636   0.491   0.540  0.00  0.00    +0.000 NA
BRANCH  51  52
ATOM     52  C   UNL     1       3.509   1.843   1.066  0.00  0.00    +0.000 C 
ATOM     53  H   UNL     1       2.921   1.878   1.989  0.00  0.00    +0.000 HD
ATOM     54  H   UNL     1       4.492   2.227   1.365  0.00  0.00    +0.000 HD
ATOM     55  H   UNL     1       3.070   2.537   0.345  0.00  0.00    +0.000 HD
ENDBRANCH  51  52
BRANCH  51  56
ATOM     56  C   UNL     1       4.574   0.401  -0.588  0.00  0.00    +0.000 C 
ATOM     57  H   UNL     1       4.351   1.147  -1.359  0.00  0.00    +0.000 HD
ATOM     58  H   UNL     1       4.545  -0.586  -1.064  0.00  0.00    +0.000 HD
BRANCH  56  59
ATOM     59  C   UNL     1       6.008   0.575  -0.100  0.00  0.00    +0.000 C 
ATOM     60  O   UNL     1       6.770   1.433  -0.505  0.00  0.00    +0.000 OA
BRANCH  59  61
ATOM     61  O   UNL     1       6.312  -0.379   0.828  0.00  0.00    +0.000 OA
BRANCH  61  62
ATOM     62  C   UNL     1       7.619  -0.283   1.390  0.00  0.00    +0.000 C 
ATOM     63  H   UNL     1       7.885  -1.267   1.784  0.00  0.00    +0.000 HD
ATOM     64  H   UNL     1       8.368  -0.000   0.645  0.00  0.00    +0.000 HD
ATOM     65  H   UNL     1       7.607   0.434   2.216  0.00  0.00    +0.000 HD
ENDBRANCH  61  62
ENDBRANCH  59  61
ENDBRANCH  56  59
ENDBRANCH  51  56
ENDBRANCH   1  51
BRANCH   6  66
ATOM     66  O   UNL     1       1.528   0.790  -1.707  0.00  0.00    +0.000 OA
BRANCH  66  67
ATOM     67  C   UNL     1       0.505   1.701  -1.358  0.00  0.00    +0.000 C 
ATOM     68  H   UNL     1       0.323   1.756  -0.287  0.00  0.00    +0.000 HD
ATOM     69  H   UNL     1       0.813   2.694  -1.703  0.00  0.00    +0.000 HD
ATOM     70  H   UNL     1      -0.416   1.471  -1.895  0.00  0.00    +0.000 HD
ENDBRANCH  66  67
ENDBRANCH   6  66
TORSDOF 9
