
 OpenBabel01112422483D

 37 39  0  0  1  0  0  0  0  0999 V2000
    2.0030   -2.2206   -2.5444 C   0  0  0  0  0  0  0  0  0  0  0  0
    2.1100   -1.0280   -1.5909 C   0  0  3  0  0  0  0  0  0  0  0  0
    2.7045    0.2044   -2.3231 C   0  0  0  0  0  0  0  0  0  0  0  0
    4.1272    0.0474   -2.6678 N   0  0  0  0  0  0  0  0  0  0  0  0
    4.8905   -0.2042   -1.4358 C   0  0  0  0  0  0  0  0  0  0  0  0
    4.3898   -1.4277   -0.6422 C   0  0  0  0  0  0  0  0  0  0  0  0
    2.9227   -1.3271   -0.3436 N   0  0  0  0  0  0  0  0  0  0  0  0
    2.3051   -2.5966    0.6319 S   0  0  0  0  0  0  0  0  0  0  0  0
    0.8809   -2.3856    0.7798 O   0  0  0  0  0  0  0  0  0  0  0  0
    2.8179   -3.8316    0.0780 O   0  0  0  0  0  0  0  0  0  0  0  0
    3.0275   -2.2872    2.2444 C   0  0  0  0  0  0  0  0  0  0  0  0
    2.7003   -1.0353    2.8035 C   0  0  0  0  0  0  0  0  0  0  0  0
    3.1652   -0.6802    4.0632 C   0  0  0  0  0  0  0  0  0  0  0  0
    3.9601   -1.5694    4.7766 C   0  0  0  0  0  0  0  0  0  0  0  0
    4.2813   -2.8311    4.2511 C   0  0  0  0  0  0  0  0  0  0  0  0
    5.0580   -3.7218    4.9989 C   0  0  0  0  0  0  0  0  0  0  0  0
    5.4016   -4.9653    4.6102 N   0  0  0  0  0  0  0  0  0  0  0  0
    4.9423   -5.3515    3.4093 C   0  0  0  0  0  0  0  0  0  0  0  0
    4.1719   -4.5477    2.5781 C   0  0  0  0  0  0  0  0  0  0  0  0
    3.8157   -3.2338    2.9723 C   0  0  0  0  0  0  0  0  0  0  0  0
    1.4606   -1.9351   -3.4529 H   0  0  0  0  0  0  0  0  0  0  0  0
    1.4489   -3.0478   -2.0918 H   0  0  0  0  0  0  0  0  0  0  0  0
    2.9824   -2.6006   -2.8494 H   0  0  0  0  0  0  0  0  0  0  0  0
    1.0997   -0.7435   -1.2705 H   0  0  0  0  0  0  0  0  0  0  0  0
    2.5829    1.0974   -1.6967 H   0  0  0  0  0  0  0  0  0  0  0  0
    2.1420    0.3906   -3.2458 H   0  0  0  0  0  0  0  0  0  0  0  0
    4.4648    0.9026   -3.1086 H   0  0  0  0  0  0  0  0  0  0  0  0
    4.8526    0.6888   -0.7999 H   0  0  0  0  0  0  0  0  0  0  0  0
    5.9409   -0.3618   -1.7040 H   0  0  0  0  0  0  0  0  0  0  0  0
    4.9489   -1.4743    0.2982 H   0  0  0  0  0  0  0  0  0  0  0  0
    4.5979   -2.3417   -1.2093 H   0  0  0  0  0  0  0  0  0  0  0  0
    2.0601   -0.3420    2.2593 H   0  0  0  0  0  0  0  0  0  0  0  0
    2.8980    0.2805    4.4971 H   0  0  0  0  0  0  0  0  0  0  0  0
    4.3146   -1.2773    5.7654 H   0  0  0  0  0  0  0  0  0  0  0  0
    5.4325   -3.4499    5.9856 H   0  0  0  0  0  0  0  0  0  0  0  0
    5.2097   -6.3626    3.1128 H   0  0  0  0  0  0  0  0  0  0  0  0
    3.8567   -4.9866    1.6407 H   0  0  0  0  0  0  0  0  0  0  0  0
  1  2  1  0  0  0  0
  1 21  1  0  0  0  0
  1 22  1  0  0  0  0
  1 23  1  0  0  0  0
  2  3  1  0  0  0  0
  2  7  1  0  0  0  0
  2 24  1  0  0  0  0
  3  4  1  0  0  0  0
  3 25  1  0  0  0  0
  3 26  1  0  0  0  0
  4  5  1  0  0  0  0
  4 27  1  0  0  0  0
  5  6  1  0  0  0  0
  5 28  1  0  0  0  0
  5 29  1  0  0  0  0
  6  7  1  0  0  0  0
  6 30  1  0  0  0  0
  6 31  1  0  0  0  0
  7  8  1  0  0  0  0
  8  9  2  0  0  0  0
  8 10  2  0  0  0  0
  8 11  1  0  0  0  0
 11 12  1  0  0  0  0
 11 20  2  0  0  0  0
 12 13  2  0  0  0  0
 12 32  1  0  0  0  0
 13 14  1  0  0  0  0
 13 33  1  0  0  0  0
 14 15  2  0  0  0  0
 14 34  1  0  0  0  0
 15 16  1  0  0  0  0
 15 20  1  0  0  0  0
 16 17  2  0  0  0  0
 16 35  1  0  0  0  0
 17 18  1  0  0  0  0
 18 19  2  0  0  0  0
 18 36  1  0  0  0  0
 19 20  1  0  0  0  0
 19 37  1  0  0  0  0
M  END
$$$$
