MODEL 1
REMARK VINA RESULT:    -8.419      0.000      0.000
REMARK INTER + INTRA:         -10.825
REMARK INTER:                 -10.633
REMARK INTRA:                  -0.192
REMARK UNBOUND:                -0.192
REMARK  Name = 
REMARK  6 active torsions:
REMARK  status: ('A' for Active; 'I' for Inactive)
REMARK    1  A    between atoms: C_1  and  O_2
REMARK    2  A    between atoms: O_2  and  C_3
REMARK    3  A    between atoms: C_4  and  N_5
REMARK    4  A    between atoms: N_5  and  C_6
REMARK    5  A    between atoms: C_7  and  C_9
REMARK    6  A    between atoms: C_16  and  C_17
REMARK                            x       y       z     vdW  Elec       q    Type
REMARK                         _______ _______ _______ _____ _____    ______ ____
ROOT
ATOM      1  C   UNL     1     -10.024  -6.646  16.893  0.00  0.00    +0.000 C 
ATOM      2  C   UNL     1     -10.417  -7.762  17.963  0.00  0.00    +0.000 C 
ATOM      3  C   UNL     1     -10.201  -7.319  19.416  0.00  0.00    +0.000 C 
ATOM      4  C   UNL     1      -9.807  -5.878  19.524  0.00  0.00    +0.000 C 
ATOM      5  O   UNL     1     -10.892  -5.259  18.775  0.00  0.00    +0.000 OA
ATOM      6  C   UNL     1     -10.647  -5.231  17.336  0.00  0.00    +0.000 C 
ATOM      7  N   UNL     1      -9.867  -3.969  17.106  0.00  0.00    +0.000 N 
ATOM      8  C   UNL     1     -10.372  -2.768  16.506  0.00  0.00    +0.000 A 
ATOM      9  C   UNL     1     -10.414  -2.391  15.156  0.00  0.00    +0.000 A 
ATOM     10  C   UNL     1     -10.870  -1.102  14.853  0.00  0.00    +0.000 A 
ATOM     11  C   UNL     1     -11.409  -0.266  15.832  0.00  0.00    +0.000 A 
ATOM     12  C   UNL     1     -11.417  -0.635  17.178  0.00  0.00    +0.000 A 
ATOM     13  C   UNL     1     -10.749  -1.816  17.541  0.00  0.00    +0.000 A 
ATOM     14  C   UNL     1     -10.109  -2.230  18.718  0.00  0.00    +0.000 A 
ATOM     15  C   UNL     1     -10.343  -1.882  20.075  0.00  0.00    +0.000 A 
ATOM     16  C   UNL     1      -9.395  -2.417  20.975  0.00  0.00    +0.000 A 
ATOM     17  C   UNL     1      -8.453  -3.274  20.399  0.00  0.00    +0.000 A 
ATOM     18  C   UNL     1      -7.869  -4.386  21.163  0.00  0.00    +0.000 A 
ATOM     19  C   UNL     1      -7.028  -4.327  22.288  0.00  0.00    +0.000 A 
ATOM     20  C   UNL     1      -5.761  -3.838  22.002  0.00  0.00    +0.000 A 
ATOM     21  C   UNL     1      -5.275  -3.954  20.700  0.00  0.00    +0.000 A 
ATOM     22  C   UNL     1      -5.975  -4.726  19.734  0.00  0.00    +0.000 A 
ATOM     23  C   UNL     1      -7.324  -5.129  20.047  0.00  0.00    +0.000 A 
ATOM     24  N   UNL     1      -8.471  -5.288  19.168  0.00  0.00    +0.000 N 
ATOM     25  C   UNL     1      -8.620  -3.920  19.145  0.00  0.00    +0.000 A 
ATOM     26  C   UNL     1      -9.419  -3.330  18.229  0.00  0.00    +0.000 A 
ATOM     27  C   UNL     1      -9.954  -2.480  22.300  0.00  0.00    +0.000 C 
ATOM     28  O   UNL     1      -9.512  -2.843  23.376  0.00  0.00    +0.000 OA
ATOM     29  N   UNL     1     -11.304  -2.250  22.071  0.00  0.00    +0.000 N 
ATOM     30  C   UNL     1     -11.638  -1.723  20.737  0.00  0.00    +0.000 C 
ATOM     31  H   UNL     1     -10.430  -6.938  15.914  0.00  0.00    +0.000 HD
ATOM     32  H   UNL     1     -11.509  -7.876  17.851  0.00  0.00    +0.000 HD
ATOM     33  H   UNL     1     -11.211  -7.380  19.865  0.00  0.00    +0.000 HD
ATOM     34  H   UNL     1      -9.621  -7.938  20.090  0.00  0.00    +0.000 HD
ATOM     35  H   UNL     1      -9.982  -5.605  20.571  0.00  0.00    +0.000 HD
ATOM     36  H   UNL     1      -9.999  -3.025  14.377  0.00  0.00    +0.000 HD
ATOM     37  H   UNL     1     -10.783  -0.731  13.832  0.00  0.00    +0.000 HD
ATOM     38  H   UNL     1     -11.755   0.729  15.558  0.00  0.00    +0.000 HD
ATOM     39  H   UNL     1     -11.737   0.074  17.935  0.00  0.00    +0.000 HD
ATOM     40  H   UNL     1      -7.418  -4.392  23.295  0.00  0.00    +0.000 HD
ATOM     41  H   UNL     1      -5.177  -3.368  22.787  0.00  0.00    +0.000 HD
ATOM     42  H   UNL     1      -4.365  -3.419  20.431  0.00  0.00    +0.000 HD
ATOM     43  H   UNL     1      -5.614  -4.738  18.706  0.00  0.00    +0.000 HD
ATOM     44  H   UNL     1     -11.822  -3.080  22.382  0.00  0.00    +0.000 HD
ATOM     45  H   UNL     1     -11.943  -0.684  20.841  0.00  0.00    +0.000 HD
ATOM     46  H   UNL     1     -12.418  -2.355  20.296  0.00  0.00    +0.000 HD
ENDROOT
BRANCH   6  47
ATOM     47  C   UNL     1     -12.075  -5.125  16.749  0.00  0.00    +0.000 C 
ATOM     48  H   UNL     1     -12.192  -5.770  15.868  0.00  0.00    +0.000 HD
ATOM     49  H   UNL     1     -12.846  -5.386  17.480  0.00  0.00    +0.000 HD
ATOM     50  H   UNL     1     -12.282  -4.109  16.395  0.00  0.00    +0.000 HD
ENDBRANCH   6  47
BRANCH   2  51
ATOM     51  N   UNL     1      -9.872  -9.125  17.703  0.00  0.00    +0.000 N 
ATOM     52  C   UNL     1     -10.195  -9.732  16.476  0.00  0.00    +0.000 C 
ATOM     53  O   UNL     1     -11.112  -9.261  15.786  0.00  0.00    +0.000 OA
BRANCH  51  54
ATOM     54  C   UNL     1      -8.831  -9.678  18.566  0.00  0.00    +0.000 C 
ATOM     55  H   UNL     1      -8.990 -10.751  18.675  0.00  0.00    +0.000 HD
ATOM     56  H   UNL     1      -8.855  -9.167  19.531  0.00  0.00    +0.000 HD
ATOM     57  H   UNL     1      -7.818  -9.516  18.210  0.00  0.00    +0.000 HD
ENDBRANCH  51  54
BRANCH  52  58
ATOM     58  C   UNL     1      -9.397 -10.979  15.983  0.00  0.00    +0.000 C 
ATOM     59  F   UNL     1      -8.047 -10.817  15.892  0.00  0.00    +0.000 F 
ATOM     60  F   UNL     1      -9.791 -11.352  14.731  0.00  0.00    +0.000 F 
ATOM     61  F   UNL     1      -9.590 -12.061  16.787  0.00  0.00    +0.000 F 
ENDBRANCH  52  58
ENDBRANCH   2  51
BRANCH   1  62
ATOM     62  O   UNL     1      -8.594  -6.688  16.792  0.00  0.00    +0.000 OA
BRANCH  62  63
ATOM     63  C   UNL     1      -8.113  -7.171  15.546  0.00  0.00    +0.000 C 
ATOM     64  H   UNL     1      -7.320  -6.502  15.203  0.00  0.00    +0.000 HD
ATOM     65  H   UNL     1      -7.682  -8.163  15.700  0.00  0.00    +0.000 HD
ATOM     66  H   UNL     1      -8.893  -7.243  14.781  0.00  0.00    +0.000 HD
ENDBRANCH  62  63
ENDBRANCH   1  62
TORSDOF 6
ENDMDL
MODEL 2
REMARK VINA RESULT:    -7.275      4.754      7.786
REMARK INTER + INTRA:          -9.381
REMARK INTER:                  -9.150
REMARK INTRA:                  -0.231
REMARK UNBOUND:                -0.192
REMARK  Name = 
REMARK  6 active torsions:
REMARK  status: ('A' for Active; 'I' for Inactive)
REMARK    1  A    between atoms: C_1  and  O_2
REMARK    2  A    between atoms: O_2  and  C_3
REMARK    3  A    between atoms: C_4  and  N_5
REMARK    4  A    between atoms: N_5  and  C_6
REMARK    5  A    between atoms: C_7  and  C_9
REMARK    6  A    between atoms: C_16  and  C_17
REMARK                            x       y       z     vdW  Elec       q    Type
REMARK                         _______ _______ _______ _____ _____    ______ ____
ROOT
ATOM      1  C   UNL     1     -10.257  -2.002  20.837  0.00  0.00    +0.000 C 
ATOM      2  C   UNL     1     -11.000  -0.900  21.718  0.00  0.00    +0.000 C 
ATOM      3  C   UNL     1     -11.382   0.359  20.929  0.00  0.00    +0.000 C 
ATOM      4  C   UNL     1     -11.108   0.222  19.462  0.00  0.00    +0.000 C 
ATOM      5  O   UNL     1     -11.835  -1.009  19.180  0.00  0.00    +0.000 OA
ATOM      6  C   UNL     1     -11.049  -2.209  19.452  0.00  0.00    +0.000 C 
ATOM      7  N   UNL     1     -10.282  -2.458  18.185  0.00  0.00    +0.000 N 
ATOM      8  C   UNL     1     -10.551  -3.495  17.232  0.00  0.00    +0.000 A 
ATOM      9  C   UNL     1     -10.075  -4.813  17.184  0.00  0.00    +0.000 A 
ATOM     10  C   UNL     1     -10.418  -5.590  16.070  0.00  0.00    +0.000 A 
ATOM     11  C   UNL     1     -11.323  -5.135  15.110  0.00  0.00    +0.000 A 
ATOM     12  C   UNL     1     -11.844  -3.841  15.157  0.00  0.00    +0.000 A 
ATOM     13  C   UNL     1     -11.332  -2.961  16.125  0.00  0.00    +0.000 A 
ATOM     14  C   UNL     1     -11.189  -1.566  16.170  0.00  0.00    +0.000 A 
ATOM     15  C   UNL     1     -11.945  -0.535  15.553  0.00  0.00    +0.000 A 
ATOM     16  C   UNL     1     -11.407   0.758  15.737  0.00  0.00    +0.000 A 
ATOM     17  C   UNL     1     -10.288   0.817  16.573  0.00  0.00    +0.000 A 
ATOM     18  C   UNL     1     -10.013   2.006  17.392  0.00  0.00    +0.000 A 
ATOM     19  C   UNL     1      -9.680   3.304  16.966  0.00  0.00    +0.000 A 
ATOM     20  C   UNL     1      -8.418   3.387  16.394  0.00  0.00    +0.000 A 
ATOM     21  C   UNL     1      -7.459   2.436  16.741  0.00  0.00    +0.000 A 
ATOM     22  C   UNL     1      -7.702   1.520  17.799  0.00  0.00    +0.000 A 
ATOM     23  C   UNL     1      -9.052   1.407  18.294  0.00  0.00    +0.000 A 
ATOM     24  N   UNL     1      -9.760   0.242  18.800  0.00  0.00    +0.000 N 
ATOM     25  C   UNL     1      -9.932  -0.193  17.506  0.00  0.00    +0.000 A 
ATOM     26  C   UNL     1     -10.328  -1.459  17.252  0.00  0.00    +0.000 A 
ATOM     27  C   UNL     1     -12.437   1.749  15.566  0.00  0.00    +0.000 C 
ATOM     28  O   UNL     1     -12.438   2.967  15.611  0.00  0.00    +0.000 OA
ATOM     29  N   UNL     1     -13.597   0.987  15.575  0.00  0.00    +0.000 N 
ATOM     30  C   UNL     1     -13.401  -0.464  15.417  0.00  0.00    +0.000 C 
ATOM     31  H   UNL     1     -10.240  -2.948  21.396  0.00  0.00    +0.000 HD
ATOM     32  H   UNL     1     -11.958  -1.372  21.997  0.00  0.00    +0.000 HD
ATOM     33  H   UNL     1     -12.485   0.403  21.016  0.00  0.00    +0.000 HD
ATOM     34  H   UNL     1     -11.092   1.337  21.294  0.00  0.00    +0.000 HD
ATOM     35  H   UNL     1     -11.687   1.019  18.981  0.00  0.00    +0.000 HD
ATOM     36  H   UNL     1      -9.369  -5.188  17.920  0.00  0.00    +0.000 HD
ATOM     37  H   UNL     1      -9.952  -6.565  15.936  0.00  0.00    +0.000 HD
ATOM     38  H   UNL     1     -11.567  -5.769  14.259  0.00  0.00    +0.000 HD
ATOM     39  H   UNL     1     -12.456  -3.470  14.341  0.00  0.00    +0.000 HD
ATOM     40  H   UNL     1     -10.430   4.074  16.848  0.00  0.00    +0.000 HD
ATOM     41  H   UNL     1      -8.203   4.179  15.684  0.00  0.00    +0.000 HD
ATOM     42  H   UNL     1      -6.534   2.392  16.168  0.00  0.00    +0.000 HD
ATOM     43  H   UNL     1      -6.968   0.740  18.001  0.00  0.00    +0.000 HD
ATOM     44  H   UNL     1     -14.168   1.292  16.371  0.00  0.00    +0.000 HD
ATOM     45  H   UNL     1     -13.756  -0.757  14.431  0.00  0.00    +0.000 HD
ATOM     46  H   UNL     1     -13.926  -0.979  16.230  0.00  0.00    +0.000 HD
ENDROOT
BRANCH   6  47
ATOM     47  C   UNL     1     -12.138  -3.287  19.672  0.00  0.00    +0.000 C 
ATOM     48  H   UNL     1     -12.259  -3.917  18.781  0.00  0.00    +0.000 HD
ATOM     49  H   UNL     1     -11.919  -3.929  20.530  0.00  0.00    +0.000 HD
ATOM     50  H   UNL     1     -13.119  -2.828  19.838  0.00  0.00    +0.000 HD
ENDBRANCH   6  47
BRANCH   2  51
ATOM     51  N   UNL     1     -10.353  -0.573  23.021  0.00  0.00    +0.000 N 
ATOM     52  C   UNL     1     -10.337  -1.573  24.009  0.00  0.00    +0.000 C 
ATOM     53  O   UNL     1     -11.073  -2.564  23.884  0.00  0.00    +0.000 OA
BRANCH  51  54
ATOM     54  C   UNL     1      -9.538   0.633  23.155  0.00  0.00    +0.000 C 
ATOM     55  H   UNL     1      -9.667   1.042  24.157  0.00  0.00    +0.000 HD
ATOM     56  H   UNL     1      -9.829   1.351  22.384  0.00  0.00    +0.000 HD
ATOM     57  H   UNL     1      -8.477   0.479  22.982  0.00  0.00    +0.000 HD
ENDBRANCH  51  54
BRANCH  52  58
ATOM     58  C   UNL     1      -9.392  -1.441  25.244  0.00  0.00    +0.000 C 
ATOM     59  F   UNL     1      -9.219  -0.177  25.722  0.00  0.00    +0.000 F 
ATOM     60  F   UNL     1      -8.134  -1.881  24.949  0.00  0.00    +0.000 F 
ATOM     61  F   UNL     1      -9.823  -2.185  26.300  0.00  0.00    +0.000 F 
ENDBRANCH  52  58
ENDBRANCH   2  51
BRANCH   1  62
ATOM     62  O   UNL     1      -8.900  -1.554  20.712  0.00  0.00    +0.000 OA
BRANCH  62  63
ATOM     63  C   UNL     1      -7.944  -2.427  21.295  0.00  0.00    +0.000 C 
ATOM     64  H   UNL     1      -7.294  -2.801  20.501  0.00  0.00    +0.000 HD
ATOM     65  H   UNL     1      -7.333  -1.855  21.997  0.00  0.00    +0.000 HD
ATOM     66  H   UNL     1      -8.398  -3.268  21.829  0.00  0.00    +0.000 HD
ENDBRANCH  62  63
ENDBRANCH   1  62
TORSDOF 6
ENDMDL
MODEL 3
REMARK VINA RESULT:    -7.192      5.201      8.171
REMARK INTER + INTRA:          -9.277
REMARK INTER:                  -9.124
REMARK INTRA:                  -0.152
REMARK UNBOUND:                -0.192
REMARK  Name = 
REMARK  6 active torsions:
REMARK  status: ('A' for Active; 'I' for Inactive)
REMARK    1  A    between atoms: C_1  and  O_2
REMARK    2  A    between atoms: O_2  and  C_3
REMARK    3  A    between atoms: C_4  and  N_5
REMARK    4  A    between atoms: N_5  and  C_6
REMARK    5  A    between atoms: C_7  and  C_9
REMARK    6  A    between atoms: C_16  and  C_17
REMARK                            x       y       z     vdW  Elec       q    Type
REMARK                         _______ _______ _______ _____ _____    ______ ____
ROOT
ATOM      1  C   UNL     1     -10.702   0.127  21.901  0.00  0.00    +0.000 C 
ATOM      2  C   UNL     1      -9.236  -0.479  22.064  0.00  0.00    +0.000 C 
ATOM      3  C   UNL     1      -8.642  -1.005  20.751  0.00  0.00    +0.000 C 
ATOM      4  C   UNL     1      -9.508  -0.701  19.567  0.00  0.00    +0.000 C 
ATOM      5  O   UNL     1      -9.657   0.740  19.722  0.00  0.00    +0.000 OA
ATOM      6  C   UNL     1     -10.743   1.106  20.625  0.00  0.00    +0.000 C 
ATOM      7  N   UNL     1     -11.966   1.147  19.756  0.00  0.00    +0.000 N 
ATOM      8  C   UNL     1     -12.644   2.332  19.317  0.00  0.00    +0.000 A 
ATOM      9  C   UNL     1     -13.674   3.055  19.934  0.00  0.00    +0.000 A 
ATOM     10  C   UNL     1     -14.233   4.128  19.228  0.00  0.00    +0.000 A 
ATOM     11  C   UNL     1     -13.692   4.570  18.018  0.00  0.00    +0.000 A 
ATOM     12  C   UNL     1     -12.639   3.892  17.403  0.00  0.00    +0.000 A 
ATOM     13  C   UNL     1     -12.220   2.675  17.967  0.00  0.00    +0.000 A 
ATOM     14  C   UNL     1     -11.633   1.522  17.426  0.00  0.00    +0.000 A 
ATOM     15  C   UNL     1     -10.790   1.351  16.296  0.00  0.00    +0.000 A 
ATOM     16  C   UNL     1     -10.505   0.001  15.994  0.00  0.00    +0.000 A 
ATOM     17  C   UNL     1     -11.011  -0.927  16.909  0.00  0.00    +0.000 A 
ATOM     18  C   UNL     1     -10.317  -2.198  17.165  0.00  0.00    +0.000 A 
ATOM     19  C   UNL     1     -10.114  -3.276  16.285  0.00  0.00    +0.000 A 
ATOM     20  C   UNL     1     -11.281  -3.958  15.973  0.00  0.00    +0.000 A 
ATOM     21  C   UNL     1     -12.350  -3.904  16.867  0.00  0.00    +0.000 A 
ATOM     22  C   UNL     1     -12.185  -3.327  18.155  0.00  0.00    +0.000 A 
ATOM     23  C   UNL     1     -10.994  -2.549  18.395  0.00  0.00    +0.000 A 
ATOM     24  N   UNL     1     -10.810  -1.366  19.219  0.00  0.00    +0.000 N 
ATOM     25  C   UNL     1     -11.406  -0.610  18.236  0.00  0.00    +0.000 A 
ATOM     26  C   UNL     1     -11.816   0.651  18.491  0.00  0.00    +0.000 A 
ATOM     27  C   UNL     1      -9.291  -0.086  15.225  0.00  0.00    +0.000 C 
ATOM     28  O   UNL     1      -8.678  -1.019  14.735  0.00  0.00    +0.000 OA
ATOM     29  N   UNL     1      -8.759   1.189  15.354  0.00  0.00    +0.000 N 
ATOM     30  C   UNL     1      -9.680   2.209  15.881  0.00  0.00    +0.000 C 
ATOM     31  H   UNL     1     -10.953   0.693  22.809  0.00  0.00    +0.000 HD
ATOM     32  H   UNL     1      -8.611   0.387  22.342  0.00  0.00    +0.000 HD
ATOM     33  H   UNL     1      -7.729  -0.395  20.609  0.00  0.00    +0.000 HD
ATOM     34  H   UNL     1      -8.245  -2.012  20.701  0.00  0.00    +0.000 HD
ATOM     35  H   UNL     1      -8.862  -0.836  18.691  0.00  0.00    +0.000 HD
ATOM     36  H   UNL     1     -14.111   2.730  20.875  0.00  0.00    +0.000 HD
ATOM     37  H   UNL     1     -15.122   4.619  19.618  0.00  0.00    +0.000 HD
ATOM     38  H   UNL     1     -14.152   5.408  17.499  0.00  0.00    +0.000 HD
ATOM     39  H   UNL     1     -12.309   4.184  16.411  0.00  0.00    +0.000 HD
ATOM     40  H   UNL     1      -9.203  -3.378  15.710  0.00  0.00    +0.000 HD
ATOM     41  H   UNL     1     -11.347  -4.512  15.041  0.00  0.00    +0.000 HD
ATOM     42  H   UNL     1     -13.319  -4.286  16.549  0.00  0.00    +0.000 HD
ATOM     43  H   UNL     1     -13.054  -3.229  18.805  0.00  0.00    +0.000 HD
ATOM     44  H   UNL     1      -7.848   1.105  15.820  0.00  0.00    +0.000 HD
ATOM     45  H   UNL     1      -9.942   2.891  15.075  0.00  0.00    +0.000 HD
ATOM     46  H   UNL     1      -9.199   2.714  16.726  0.00  0.00    +0.000 HD
ENDROOT
BRANCH   6  47
ATOM     47  C   UNL     1     -10.334   2.525  21.091  0.00  0.00    +0.000 C 
ATOM     48  H   UNL     1     -11.195   3.208  21.085  0.00  0.00    +0.000 HD
ATOM     49  H   UNL     1      -9.894   2.523  22.091  0.00  0.00    +0.000 HD
ATOM     50  H   UNL     1      -9.605   2.970  20.405  0.00  0.00    +0.000 HD
ENDBRANCH   6  47
BRANCH   2  51
ATOM     51  N   UNL     1      -9.058  -1.442  23.188  0.00  0.00    +0.000 N 
ATOM     52  C   UNL     1      -9.115  -0.932  24.498  0.00  0.00    +0.000 C 
ATOM     53  O   UNL     1      -9.037   0.293  24.678  0.00  0.00    +0.000 OA
BRANCH  51  54
ATOM     54  C   UNL     1      -9.098  -2.881  22.938  0.00  0.00    +0.000 C 
ATOM     55  H   UNL     1      -9.221  -3.405  23.885  0.00  0.00    +0.000 HD
ATOM     56  H   UNL     1      -8.181  -3.182  22.425  0.00  0.00    +0.000 HD
ATOM     57  H   UNL     1      -9.889  -3.199  22.265  0.00  0.00    +0.000 HD
ENDBRANCH  51  54
BRANCH  52  58
ATOM     58  C   UNL     1      -9.289  -1.899  25.710  0.00  0.00    +0.000 C 
ATOM     59  F   UNL     1      -8.475  -2.991  25.714  0.00  0.00    +0.000 F 
ATOM     60  F   UNL     1     -10.555  -2.404  25.758  0.00  0.00    +0.000 F 
ATOM     61  F   UNL     1      -9.079  -1.272  26.900  0.00  0.00    +0.000 F 
ENDBRANCH  52  58
ENDBRANCH   2  51
BRANCH   1  62
ATOM     62  O   UNL     1     -11.587  -1.001  21.843  0.00  0.00    +0.000 OA
BRANCH  62  63
ATOM     63  C   UNL     1     -12.933  -0.701  22.181  0.00  0.00    +0.000 C 
ATOM     64  H   UNL     1     -13.192   0.262  21.733  0.00  0.00    +0.000 HD
ATOM     65  H   UNL     1     -13.581  -1.466  21.746  0.00  0.00    +0.000 HD
ATOM     66  H   UNL     1     -13.109  -0.665  23.261  0.00  0.00    +0.000 HD
ENDBRANCH  62  63
ENDBRANCH   1  62
TORSDOF 6
ENDMDL
MODEL 4
REMARK VINA RESULT:    -7.148      4.363      7.776
REMARK INTER + INTRA:          -9.220
REMARK INTER:                  -9.148
REMARK INTRA:                  -0.072
REMARK UNBOUND:                -0.192
REMARK  Name = 
REMARK  6 active torsions:
REMARK  status: ('A' for Active; 'I' for Inactive)
REMARK    1  A    between atoms: C_1  and  O_2
REMARK    2  A    between atoms: O_2  and  C_3
REMARK    3  A    between atoms: C_4  and  N_5
REMARK    4  A    between atoms: N_5  and  C_6
REMARK    5  A    between atoms: C_7  and  C_9
REMARK    6  A    between atoms: C_16  and  C_17
REMARK                            x       y       z     vdW  Elec       q    Type
REMARK                         _______ _______ _______ _____ _____    ______ ____
ROOT
ATOM      1  C   UNL     1     -10.112  -1.972  19.982  0.00  0.00    +0.000 C 
ATOM      2  C   UNL     1      -9.512  -1.344  18.644  0.00  0.00    +0.000 C 
ATOM      3  C   UNL     1      -9.497   0.190  18.641  0.00  0.00    +0.000 C 
ATOM      4  C   UNL     1      -9.914   0.770  19.958  0.00  0.00    +0.000 C 
ATOM      5  O   UNL     1      -8.989   0.079  20.846  0.00  0.00    +0.000 OA
ATOM      6  C   UNL     1      -9.470  -1.235  21.259  0.00  0.00    +0.000 C 
ATOM      7  N   UNL     1     -10.318  -0.969  22.470  0.00  0.00    +0.000 N 
ATOM      8  C   UNL     1      -9.959  -1.262  23.826  0.00  0.00    +0.000 A 
ATOM      9  C   UNL     1     -10.154  -2.434  24.571  0.00  0.00    +0.000 A 
ATOM     10  C   UNL     1      -9.796  -2.414  25.925  0.00  0.00    +0.000 A 
ATOM     11  C   UNL     1      -9.128  -1.326  26.491  0.00  0.00    +0.000 A 
ATOM     12  C   UNL     1      -8.885  -0.163  25.759  0.00  0.00    +0.000 A 
ATOM     13  C   UNL     1      -9.445  -0.064  24.475  0.00  0.00    +0.000 A 
ATOM     14  C   UNL     1      -9.867   1.024  23.697  0.00  0.00    +0.000 A 
ATOM     15  C   UNL     1      -9.422   2.372  23.665  0.00  0.00    +0.000 A 
ATOM     16  C   UNL     1     -10.189   3.210  22.826  0.00  0.00    +0.000 A 
ATOM     17  C   UNL     1     -11.186   2.557  22.095  0.00  0.00    +0.000 A 
ATOM     18  C   UNL     1     -11.599   3.043  20.770  0.00  0.00    +0.000 A 
ATOM     19  C   UNL     1     -12.243   4.250  20.444  0.00  0.00    +0.000 A 
ATOM     20  C   UNL     1     -13.554   4.312  20.892  0.00  0.00    +0.000 A 
ATOM     21  C   UNL     1     -14.246   3.121  21.110  0.00  0.00    +0.000 A 
ATOM     22  C   UNL     1     -13.692   1.879  20.699  0.00  0.00    +0.000 A 
ATOM     23  C   UNL     1     -12.297   1.854  20.331  0.00  0.00    +0.000 A 
ATOM     24  N   UNL     1     -11.308   0.806  20.517  0.00  0.00    +0.000 N 
ATOM     25  C   UNL     1     -11.209   1.159  21.844  0.00  0.00    +0.000 A 
ATOM     26  C   UNL     1     -10.593   0.345  22.729  0.00  0.00    +0.000 A 
ATOM     27  C   UNL     1      -9.415   4.360  22.437  0.00  0.00    +0.000 C 
ATOM     28  O   UNL     1      -9.661   5.337  21.751  0.00  0.00    +0.000 OA
ATOM     29  N   UNL     1      -8.131   4.007  22.827  0.00  0.00    +0.000 N 
ATOM     30  C   UNL     1      -8.040   2.850  23.733  0.00  0.00    +0.000 C 
ATOM     31  H   UNL     1      -9.866  -3.043  20.011  0.00  0.00    +0.000 HD
ATOM     32  H   UNL     1      -8.450  -1.647  18.653  0.00  0.00    +0.000 HD
ATOM     33  H   UNL     1      -8.425   0.445  18.536  0.00  0.00    +0.000 HD
ATOM     34  H   UNL     1      -9.937   0.734  17.814  0.00  0.00    +0.000 HD
ATOM     35  H   UNL     1      -9.575   1.813  19.938  0.00  0.00    +0.000 HD
ATOM     36  H   UNL     1     -10.672  -3.292  24.152  0.00  0.00    +0.000 HD
ATOM     37  H   UNL     1     -10.063  -3.257  26.560  0.00  0.00    +0.000 HD
ATOM     38  H   UNL     1      -8.865  -1.348  27.546  0.00  0.00    +0.000 HD
ATOM     39  H   UNL     1      -8.467   0.711  26.249  0.00  0.00    +0.000 HD
ATOM     40  H   UNL     1     -11.688   5.124  20.128  0.00  0.00    +0.000 HD
ATOM     41  H   UNL     1     -14.014   5.279  21.074  0.00  0.00    +0.000 HD
ATOM     42  H   UNL     1     -15.205   3.159  21.626  0.00  0.00    +0.000 HD
ATOM     43  H   UNL     1     -14.218   0.958  20.949  0.00  0.00    +0.000 HD
ATOM     44  H   UNL     1      -7.542   3.983  21.986  0.00  0.00    +0.000 HD
ATOM     45  H   UNL     1      -7.755   3.205  24.721  0.00  0.00    +0.000 HD
ATOM     46  H   UNL     1      -7.325   2.133  23.315  0.00  0.00    +0.000 HD
ENDROOT
BRANCH   6  47
ATOM     47  C   UNL     1      -8.164  -1.973  21.639  0.00  0.00    +0.000 C 
ATOM     48  H   UNL     1      -7.306  -1.287  21.641  0.00  0.00    +0.000 HD
ATOM     49  H   UNL     1      -8.229  -2.458  22.617  0.00  0.00    +0.000 HD
ATOM     50  H   UNL     1      -7.917  -2.743  20.899  0.00  0.00    +0.000 HD
ENDBRANCH   6  47
BRANCH   2  51
ATOM     51  N   UNL     1     -10.048  -1.905  17.371  0.00  0.00    +0.000 N 
ATOM     52  C   UNL     1     -10.108  -3.305  17.251  0.00  0.00    +0.000 C 
ATOM     53  O   UNL     1      -9.482  -4.012  18.055  0.00  0.00    +0.000 OA
BRANCH  51  54
ATOM     54  C   UNL     1     -10.732  -1.036  16.415  0.00  0.00    +0.000 C 
ATOM     55  H   UNL     1     -11.090  -0.147  16.933  0.00  0.00    +0.000 HD
ATOM     56  H   UNL     1     -11.550  -1.589  15.949  0.00  0.00    +0.000 HD
ATOM     57  H   UNL     1     -10.118  -0.720  15.577  0.00  0.00    +0.000 HD
ENDBRANCH  51  54
BRANCH  52  58
ATOM     58  C   UNL     1     -10.964  -3.959  16.122  0.00  0.00    +0.000 C 
ATOM     59  F   UNL     1     -10.599  -3.644  14.848  0.00  0.00    +0.000 F 
ATOM     60  F   UNL     1     -12.272  -3.583  16.217  0.00  0.00    +0.000 F 
ATOM     61  F   UNL     1     -10.948  -5.319  16.190  0.00  0.00    +0.000 F 
ENDBRANCH  52  58
ENDBRANCH   2  51
BRANCH   1  62
ATOM     62  O   UNL     1     -11.538  -1.865  19.858  0.00  0.00    +0.000 OA
BRANCH  62  63
ATOM     63  C   UNL     1     -12.234  -3.080  20.093  0.00  0.00    +0.000 C 
ATOM     64  H   UNL     1     -13.261  -2.836  20.376  0.00  0.00    +0.000 HD
ATOM     65  H   UNL     1     -12.261  -3.652  19.162  0.00  0.00    +0.000 HD
ATOM     66  H   UNL     1     -11.773  -3.698  20.871  0.00  0.00    +0.000 HD
ENDBRANCH  62  63
ENDBRANCH   1  62
TORSDOF 6
ENDMDL
MODEL 5
REMARK VINA RESULT:    -7.059      6.265     10.059
REMARK INTER + INTRA:          -9.109
REMARK INTER:                  -8.796
REMARK INTRA:                  -0.313
REMARK UNBOUND:                -0.192
REMARK  Name = 
REMARK  6 active torsions:
REMARK  status: ('A' for Active; 'I' for Inactive)
REMARK    1  A    between atoms: C_1  and  O_2
REMARK    2  A    between atoms: O_2  and  C_3
REMARK    3  A    between atoms: C_4  and  N_5
REMARK    4  A    between atoms: N_5  and  C_6
REMARK    5  A    between atoms: C_7  and  C_9
REMARK    6  A    between atoms: C_16  and  C_17
REMARK                            x       y       z     vdW  Elec       q    Type
REMARK                         _______ _______ _______ _____ _____    ______ ____
ROOT
ATOM      1  C   UNL     1     -11.067   1.696  22.134  0.00  0.00    +0.000 C 
ATOM      2  C   UNL     1     -12.594   2.060  21.853  0.00  0.00    +0.000 C 
ATOM      3  C   UNL     1     -13.100   1.568  20.490  0.00  0.00    +0.000 C 
ATOM      4  C   UNL     1     -12.092   0.719  19.778  0.00  0.00    +0.000 C 
ATOM      5  O   UNL     1     -11.821  -0.276  20.807  0.00  0.00    +0.000 OA
ATOM      6  C   UNL     1     -10.803   0.154  21.760  0.00  0.00    +0.000 C 
ATOM      7  N   UNL     1      -9.499  -0.247  21.133  0.00  0.00    +0.000 N 
ATOM      8  C   UNL     1      -8.669  -1.340  21.550  0.00  0.00    +0.000 A 
ATOM      9  C   UNL     1      -7.641  -1.370  22.504  0.00  0.00    +0.000 A 
ATOM     10  C   UNL     1      -6.913  -2.559  22.640  0.00  0.00    +0.000 A 
ATOM     11  C   UNL     1      -7.282  -3.726  21.968  0.00  0.00    +0.000 A 
ATOM     12  C   UNL     1      -8.328  -3.732  21.044  0.00  0.00    +0.000 A 
ATOM     13  C   UNL     1      -8.918  -2.502  20.709  0.00  0.00    +0.000 A 
ATOM     14  C   UNL     1      -9.555  -2.030  19.552  0.00  0.00    +0.000 A 
ATOM     15  C   UNL     1     -10.291  -2.717  18.551  0.00  0.00    +0.000 A 
ATOM     16  C   UNL     1     -10.673  -1.903  17.462  0.00  0.00    +0.000 A 
ATOM     17  C   UNL     1     -10.355  -0.549  17.598  0.00  0.00    +0.000 A 
ATOM     18  C   UNL     1     -11.191   0.494  16.984  0.00  0.00    +0.000 A 
ATOM     19  C   UNL     1     -11.406   0.750  15.618  0.00  0.00    +0.000 A 
ATOM     20  C   UNL     1     -10.285   1.245  14.969  0.00  0.00    +0.000 A 
ATOM     21  C   UNL     1      -9.313   1.907  15.717  0.00  0.00    +0.000 A 
ATOM     22  C   UNL     1      -9.551   2.239  17.078  0.00  0.00    +0.000 A 
ATOM     23  C   UNL     1     -10.680   1.622  17.732  0.00  0.00    +0.000 A 
ATOM     24  N   UNL     1     -10.832   1.196  19.113  0.00  0.00    +0.000 N 
ATOM     25  C   UNL     1     -10.068   0.085  18.836  0.00  0.00    +0.000 A 
ATOM     26  C   UNL     1      -9.566  -0.672  19.835  0.00  0.00    +0.000 A 
ATOM     27  C   UNL     1     -11.805  -2.483  16.787  0.00  0.00    +0.000 C 
ATOM     28  O   UNL     1     -12.452  -2.153  15.808  0.00  0.00    +0.000 OA
ATOM     29  N   UNL     1     -12.222  -3.461  17.679  0.00  0.00    +0.000 N 
ATOM     30  C   UNL     1     -11.264  -3.792  18.748  0.00  0.00    +0.000 C 
ATOM     31  H   UNL     1     -10.857   1.858  23.201  0.00  0.00    +0.000 HD
ATOM     32  H   UNL     1     -13.157   1.477  22.602  0.00  0.00    +0.000 HD
ATOM     33  H   UNL     1     -13.930   0.882  20.748  0.00  0.00    +0.000 HD
ATOM     34  H   UNL     1     -13.585   2.258  19.811  0.00  0.00    +0.000 HD
ATOM     35  H   UNL     1     -12.655   0.188  19.000  0.00  0.00    +0.000 HD
ATOM     36  H   UNL     1      -7.336  -0.474  23.038  0.00  0.00    +0.000 HD
ATOM     37  H   UNL     1      -6.024  -2.571  23.269  0.00  0.00    +0.000 HD
ATOM     38  H   UNL     1      -6.693  -4.631  22.100  0.00  0.00    +0.000 HD
ATOM     39  H   UNL     1      -8.525  -4.620  20.451  0.00  0.00    +0.000 HD
ATOM     40  H   UNL     1     -12.259   0.344  15.091  0.00  0.00    +0.000 HD
ATOM     41  H   UNL     1     -10.179   1.102  13.898  0.00  0.00    +0.000 HD
ATOM     42  H   UNL     1      -8.358   2.139  15.248  0.00  0.00    +0.000 HD
ATOM     43  H   UNL     1      -8.748   2.688  17.661  0.00  0.00    +0.000 HD
ATOM     44  H   UNL     1     -13.179  -3.233  17.972  0.00  0.00    +0.000 HD
ATOM     45  H   UNL     1     -10.857  -4.782  18.555  0.00  0.00    +0.000 HD
ATOM     46  H   UNL     1     -11.778  -3.723  19.713  0.00  0.00    +0.000 HD
ENDROOT
BRANCH   6  47
ATOM     47  C   UNL     1     -11.117  -0.708  23.006  0.00  0.00    +0.000 C 
ATOM     48  H   UNL     1     -10.245  -0.779  23.671  0.00  0.00    +0.000 HD
ATOM     49  H   UNL     1     -11.964  -0.319  23.578  0.00  0.00    +0.000 HD
ATOM     50  H   UNL     1     -11.350  -1.741  22.723  0.00  0.00    +0.000 HD
ENDBRANCH   6  47
BRANCH   2  51
ATOM     51  N   UNL     1     -12.978   3.476  22.117  0.00  0.00    +0.000 N 
ATOM     52  C   UNL     1     -12.865   3.946  23.438  0.00  0.00    +0.000 C 
ATOM     53  O   UNL     1     -12.722   3.132  24.363  0.00  0.00    +0.000 OA
BRANCH  51  54
ATOM     54  C   UNL     1     -13.197   4.399  21.006  0.00  0.00    +0.000 C 
ATOM     55  H   UNL     1     -13.447   5.383  21.402  0.00  0.00    +0.000 HD
ATOM     56  H   UNL     1     -13.990   4.008  20.364  0.00  0.00    +0.000 HD
ATOM     57  H   UNL     1     -12.348   4.506  20.336  0.00  0.00    +0.000 HD
ENDBRANCH  51  54
BRANCH  52  58
ATOM     58  C   UNL     1     -12.907   5.477  23.733  0.00  0.00    +0.000 C 
ATOM     59  F   UNL     1     -11.976   6.229  23.081  0.00  0.00    +0.000 F 
ATOM     60  F   UNL     1     -12.696   5.729  25.058  0.00  0.00    +0.000 F 
ATOM     61  F   UNL     1     -14.114   6.026  23.423  0.00  0.00    +0.000 F 
ENDBRANCH  52  58
ENDBRANCH   2  51
BRANCH   1  62
ATOM     62  O   UNL     1     -10.294   2.652  21.396  0.00  0.00    +0.000 OA
BRANCH  62  63
ATOM     63  C   UNL     1      -9.564   3.561  22.208  0.00  0.00    +0.000 C 
ATOM     64  H   UNL     1      -8.662   3.854  21.666  0.00  0.00    +0.000 HD
ATOM     65  H   UNL     1     -10.174   4.454  22.366  0.00  0.00    +0.000 HD
ATOM     66  H   UNL     1      -9.292   3.144  23.183  0.00  0.00    +0.000 HD
ENDBRANCH  62  63
ENDBRANCH   1  62
TORSDOF 6
ENDMDL
MODEL 6
REMARK VINA RESULT:    -6.690      8.051     11.306
REMARK INTER + INTRA:          -8.642
REMARK INTER:                  -8.282
REMARK INTRA:                  -0.361
REMARK UNBOUND:                -0.192
REMARK  Name = 
REMARK  6 active torsions:
REMARK  status: ('A' for Active; 'I' for Inactive)
REMARK    1  A    between atoms: C_1  and  O_2
REMARK    2  A    between atoms: O_2  and  C_3
REMARK    3  A    between atoms: C_4  and  N_5
REMARK    4  A    between atoms: N_5  and  C_6
REMARK    5  A    between atoms: C_7  and  C_9
REMARK    6  A    between atoms: C_16  and  C_17
REMARK                            x       y       z     vdW  Elec       q    Type
REMARK                         _______ _______ _______ _____ _____    ______ ____
ROOT
ATOM      1  C   UNL     1     -12.085   3.051  20.191  0.00  0.00    +0.000 C 
ATOM      2  C   UNL     1     -11.446   4.403  19.634  0.00  0.00    +0.000 C 
ATOM      3  C   UNL     1     -10.747   5.239  20.713  0.00  0.00    +0.000 C 
ATOM      4  C   UNL     1     -10.685   4.534  22.034  0.00  0.00    +0.000 C 
ATOM      5  O   UNL     1     -10.060   3.283  21.628  0.00  0.00    +0.000 OA
ATOM      6  C   UNL     1     -11.021   2.301  21.135  0.00  0.00    +0.000 C 
ATOM      7  N   UNL     1     -11.495   1.580  22.364  0.00  0.00    +0.000 N 
ATOM      8  C   UNL     1     -11.132   0.247  22.747  0.00  0.00    +0.000 A 
ATOM      9  C   UNL     1     -11.733  -0.976  22.412  0.00  0.00    +0.000 A 
ATOM     10  C   UNL     1     -11.232  -2.136  23.016  0.00  0.00    +0.000 A 
ATOM     11  C   UNL     1     -10.081  -2.113  23.806  0.00  0.00    +0.000 A 
ATOM     12  C   UNL     1      -9.440  -0.913  24.120  0.00  0.00    +0.000 A 
ATOM     13  C   UNL     1     -10.058   0.286  23.728  0.00  0.00    +0.000 A 
ATOM     14  C   UNL     1     -10.044   1.585  24.256  0.00  0.00    +0.000 A 
ATOM     15  C   UNL     1      -9.051   2.277  24.998  0.00  0.00    +0.000 A 
ATOM     16  C   UNL     1      -9.463   3.544  25.466  0.00  0.00    +0.000 A 
ATOM     17  C   UNL     1     -10.732   3.945  25.038  0.00  0.00    +0.000 A 
ATOM     18  C   UNL     1     -11.052   5.366  24.834  0.00  0.00    +0.000 A 
ATOM     19  C   UNL     1     -11.123   6.392  25.793  0.00  0.00    +0.000 A 
ATOM     20  C   UNL     1     -12.198   6.259  26.660  0.00  0.00    +0.000 A 
ATOM     21  C   UNL     1     -13.315   5.538  26.241  0.00  0.00    +0.000 A 
ATOM     22  C   UNL     1     -13.435   5.114  24.890  0.00  0.00    +0.000 A 
ATOM     23  C   UNL     1     -12.259   5.187  24.056  0.00  0.00    +0.000 A 
ATOM     24  N   UNL     1     -11.829   4.309  22.981  0.00  0.00    +0.000 N 
ATOM     25  C   UNL     1     -11.411   3.394  23.919  0.00  0.00    +0.000 A 
ATOM     26  C   UNL     1     -11.116   2.126  23.560  0.00  0.00    +0.000 A 
ATOM     27  C   UNL     1      -8.315   4.371  25.727  0.00  0.00    +0.000 C 
ATOM     28  O   UNL     1      -8.183   5.507  26.149  0.00  0.00    +0.000 OA
ATOM     29  N   UNL     1      -7.285   3.659  25.127  0.00  0.00    +0.000 N 
ATOM     30  C   UNL     1      -7.606   2.267  24.767  0.00  0.00    +0.000 C 
ATOM     31  H   UNL     1     -12.342   2.406  19.339  0.00  0.00    +0.000 HD
ATOM     32  H   UNL     1     -10.641   4.066  18.957  0.00  0.00    +0.000 HD
ATOM     33  H   UNL     1      -9.698   5.299  20.365  0.00  0.00    +0.000 HD
ATOM     34  H   UNL     1     -10.999   6.285  20.836  0.00  0.00    +0.000 HD
ATOM     35  H   UNL     1      -9.921   5.067  22.613  0.00  0.00    +0.000 HD
ATOM     36  H   UNL     1     -12.630  -1.018  21.800  0.00  0.00    +0.000 HD
ATOM     37  H   UNL     1     -11.763  -3.077  22.886  0.00  0.00    +0.000 HD
ATOM     38  H   UNL     1      -9.720  -3.035  24.257  0.00  0.00    +0.000 HD
ATOM     39  H   UNL     1      -8.615  -0.906  24.826  0.00  0.00    +0.000 HD
ATOM     40  H   UNL     1     -10.282   7.042  25.995  0.00  0.00    +0.000 HD
ATOM     41  H   UNL     1     -12.148   6.707  27.648  0.00  0.00    +0.000 HD
ATOM     42  H   UNL     1     -14.079   5.283  26.974  0.00  0.00    +0.000 HD
ATOM     43  H   UNL     1     -14.280   4.488  24.606  0.00  0.00    +0.000 HD
ATOM     44  H   UNL     1      -6.885   4.246  24.387  0.00  0.00    +0.000 HD
ATOM     45  H   UNL     1      -7.067   1.602  25.438  0.00  0.00    +0.000 HD
ATOM     46  H   UNL     1      -7.349   2.110  23.713  0.00  0.00    +0.000 HD
ENDROOT
BRANCH   6  47
ATOM     47  C   UNL     1     -10.146   1.384  20.247  0.00  0.00    +0.000 C 
ATOM     48  H   UNL     1      -9.803   0.501  20.803  0.00  0.00    +0.000 HD
ATOM     49  H   UNL     1     -10.673   1.050  19.349  0.00  0.00    +0.000 HD
ATOM     50  H   UNL     1      -9.234   1.899  19.927  0.00  0.00    +0.000 HD
ENDBRANCH   6  47
BRANCH   2  51
ATOM     51  N   UNL     1     -12.337   5.229  18.770  0.00  0.00    +0.000 N 
ATOM     52  C   UNL     1     -12.789   4.659  17.567  0.00  0.00    +0.000 C 
ATOM     53  O   UNL     1     -12.238   3.635  17.134  0.00  0.00    +0.000 OA
BRANCH  51  54
ATOM     54  C   UNL     1     -12.927   6.461  19.289  0.00  0.00    +0.000 C 
ATOM     55  H   UNL     1     -13.351   7.030  18.462  0.00  0.00    +0.000 HD
ATOM     56  H   UNL     1     -12.161   7.031  19.820  0.00  0.00    +0.000 HD
ATOM     57  H   UNL     1     -13.703   6.310  20.033  0.00  0.00    +0.000 HD
ENDBRANCH  51  54
BRANCH  52  58
ATOM     58  C   UNL     1     -13.980   5.303  16.792  0.00  0.00    +0.000 C 
ATOM     59  F   UNL     1     -15.103   5.539  17.527  0.00  0.00    +0.000 F 
ATOM     60  F   UNL     1     -14.392   4.500  15.769  0.00  0.00    +0.000 F 
ATOM     61  F   UNL     1     -13.642   6.497  16.233  0.00  0.00    +0.000 F 
ENDBRANCH  52  58
ENDBRANCH   2  51
BRANCH   1  62
ATOM     62  O   UNL     1     -13.314   3.433  20.825  0.00  0.00    +0.000 OA
BRANCH  62  63
ATOM     63  C   UNL     1     -14.472   2.854  20.242  0.00  0.00    +0.000 C 
ATOM     64  H   UNL     1     -14.242   1.818  19.979  0.00  0.00    +0.000 HD
ATOM     65  H   UNL     1     -15.272   2.848  20.987  0.00  0.00    +0.000 HD
ATOM     66  H   UNL     1     -14.823   3.391  19.355  0.00  0.00    +0.000 HD
ENDBRANCH  62  63
ENDBRANCH   1  62
TORSDOF 6
ENDMDL
MODEL 7
REMARK VINA RESULT:    -6.336      6.878     10.367
REMARK INTER + INTRA:          -8.195
REMARK INTER:                  -9.109
REMARK INTRA:                   0.914
REMARK UNBOUND:                -0.192
REMARK  Name = 
REMARK  6 active torsions:
REMARK  status: ('A' for Active; 'I' for Inactive)
REMARK    1  A    between atoms: C_1  and  O_2
REMARK    2  A    between atoms: O_2  and  C_3
REMARK    3  A    between atoms: C_4  and  N_5
REMARK    4  A    between atoms: N_5  and  C_6
REMARK    5  A    between atoms: C_7  and  C_9
REMARK    6  A    between atoms: C_16  and  C_17
REMARK                            x       y       z     vdW  Elec       q    Type
REMARK                         _______ _______ _______ _____ _____    ______ ____
ROOT
ATOM      1  C   UNL     1     -12.469   4.350  20.498  0.00  0.00    +0.000 C 
ATOM      2  C   UNL     1     -13.848   4.026  19.763  0.00  0.00    +0.000 C 
ATOM      3  C   UNL     1     -13.919   2.603  19.195  0.00  0.00    +0.000 C 
ATOM      4  C   UNL     1     -12.734   1.771  19.581  0.00  0.00    +0.000 C 
ATOM      5  O   UNL     1     -12.769   1.932  21.029  0.00  0.00    +0.000 OA
ATOM      6  C   UNL     1     -12.086   3.138  21.484  0.00  0.00    +0.000 C 
ATOM      7  N   UNL     1     -10.650   2.729  21.639  0.00  0.00    +0.000 N 
ATOM      8  C   UNL     1      -9.968   2.514  22.882  0.00  0.00    +0.000 A 
ATOM      9  C   UNL     1      -9.270   3.424  23.689  0.00  0.00    +0.000 A 
ATOM     10  C   UNL     1      -8.601   2.920  24.812  0.00  0.00    +0.000 A 
ATOM     11  C   UNL     1      -8.739   1.589  25.211  0.00  0.00    +0.000 A 
ATOM     12  C   UNL     1      -9.462   0.672  24.446  0.00  0.00    +0.000 A 
ATOM     13  C   UNL     1      -9.941   1.092  23.194  0.00  0.00    +0.000 A 
ATOM     14  C   UNL     1     -10.211   0.414  21.997  0.00  0.00    +0.000 A 
ATOM     15  C   UNL     1     -10.607  -0.929  21.759  0.00  0.00    +0.000 A 
ATOM     16  C   UNL     1     -10.658  -1.276  20.391  0.00  0.00    +0.000 A 
ATOM     17  C   UNL     1     -10.412  -0.223  19.505  0.00  0.00    +0.000 A 
ATOM     18  C   UNL     1     -11.040  -0.184  18.177  0.00  0.00    +0.000 A 
ATOM     19  C   UNL     1     -10.842  -1.055  17.090  0.00  0.00    +0.000 A 
ATOM     20  C   UNL     1      -9.584  -0.941  16.516  0.00  0.00    +0.000 A 
ATOM     21  C   UNL     1      -8.887   0.258  16.659  0.00  0.00    +0.000 A 
ATOM     22  C   UNL     1      -9.524   1.402  17.211  0.00  0.00    +0.000 A 
ATOM     23  C   UNL     1     -10.789   1.210  17.880  0.00  0.00    +0.000 A 
ATOM     24  N   UNL     1     -11.339   1.896  19.037  0.00  0.00    +0.000 N 
ATOM     25  C   UNL     1     -10.514   1.151  19.848  0.00  0.00    +0.000 A 
ATOM     26  C   UNL     1     -10.323   1.499  21.140  0.00  0.00    +0.000 A 
ATOM     27  C   UNL     1     -11.531  -2.406  20.202  0.00  0.00    +0.000 C 
ATOM     28  O   UNL     1     -11.861  -3.050  19.221  0.00  0.00    +0.000 OA
ATOM     29  N   UNL     1     -12.182  -2.494  21.424  0.00  0.00    +0.000 N 
ATOM     30  C   UNL     1     -11.582  -1.712  22.518  0.00  0.00    +0.000 C 
ATOM     31  H   UNL     1     -12.587   5.276  21.078  0.00  0.00    +0.000 HD
ATOM     32  H   UNL     1     -14.601   4.057  20.569  0.00  0.00    +0.000 HD
ATOM     33  H   UNL     1     -14.779   2.149  19.723  0.00  0.00    +0.000 HD
ATOM     34  H   UNL     1     -14.188   2.447  18.157  0.00  0.00    +0.000 HD
ATOM     35  H   UNL     1     -13.033   0.733  19.395  0.00  0.00    +0.000 HD
ATOM     36  H   UNL     1      -9.149   4.464  23.398  0.00  0.00    +0.000 HD
ATOM     37  H   UNL     1      -7.939   3.574  25.377  0.00  0.00    +0.000 HD
ATOM     38  H   UNL     1      -8.205   1.234  26.090  0.00  0.00    +0.000 HD
ATOM     39  H   UNL     1      -9.463  -0.380  24.715  0.00  0.00    +0.000 HD
ATOM     40  H   UNL     1     -11.495  -1.900  16.912  0.00  0.00    +0.000 HD
ATOM     41  H   UNL     1      -9.162  -1.783  15.976  0.00  0.00    +0.000 HD
ATOM     42  H   UNL     1      -7.839   0.293  16.367  0.00  0.00    +0.000 HD
ATOM     43  H   UNL     1      -8.936   2.303  17.382  0.00  0.00    +0.000 HD
ATOM     44  H   UNL     1     -13.185  -2.358  21.257  0.00  0.00    +0.000 HD
ATOM     45  H   UNL     1     -11.123  -2.401  23.225  0.00  0.00    +0.000 HD
ATOM     46  H   UNL     1     -12.360  -1.090  22.973  0.00  0.00    +0.000 HD
ENDROOT
BRANCH   6  47
ATOM     47  C   UNL     1     -12.746   3.405  22.858  0.00  0.00    +0.000 C 
ATOM     48  H   UNL     1     -12.008   3.360  23.670  0.00  0.00    +0.000 HD
ATOM     49  H   UNL     1     -13.251   4.375  22.896  0.00  0.00    +0.000 HD
ATOM     50  H   UNL     1     -13.487   2.634  23.097  0.00  0.00    +0.000 HD
ENDBRANCH   6  47
BRANCH   2  51
ATOM     51  N   UNL     1     -14.310   5.048  18.782  0.00  0.00    +0.000 N 
ATOM     52  C   UNL     1     -14.882   4.587  17.582  0.00  0.00    +0.000 C 
ATOM     53  O   UNL     1     -14.741   3.398  17.259  0.00  0.00    +0.000 OA
BRANCH  51  54
ATOM     54  C   UNL     1     -14.413   6.452  19.175  0.00  0.00    +0.000 C 
ATOM     55  H   UNL     1     -13.412   6.856  19.321  0.00  0.00    +0.000 HD
ATOM     56  H   UNL     1     -15.016   6.528  20.082  0.00  0.00    +0.000 HD
ATOM     57  H   UNL     1     -14.936   7.082  18.461  0.00  0.00    +0.000 HD
ENDBRANCH  51  54
BRANCH  52  58
ATOM     58  C   UNL     1     -15.696   5.561  16.676  0.00  0.00    +0.000 C 
ATOM     59  F   UNL     1     -16.693   6.251  17.297  0.00  0.00    +0.000 F 
ATOM     60  F   UNL     1     -16.314   4.888  15.662  0.00  0.00    +0.000 F 
ATOM     61  F   UNL     1     -14.903   6.499  16.089  0.00  0.00    +0.000 F 
ENDBRANCH  52  58
ENDBRANCH   2  51
BRANCH   1  62
ATOM     62  O   UNL     1     -11.523   4.618  19.453  0.00  0.00    +0.000 OA
BRANCH  62  63
ATOM     63  C   UNL     1     -10.733   5.779  19.669  0.00  0.00    +0.000 C 
ATOM     64  H   UNL     1      -9.681   5.487  19.629  0.00  0.00    +0.000 HD
ATOM     65  H   UNL     1     -10.924   6.486  18.859  0.00  0.00    +0.000 HD
ATOM     66  H   UNL     1     -10.944   6.272  20.623  0.00  0.00    +0.000 HD
ENDBRANCH  62  63
ENDBRANCH   1  62
TORSDOF 6
ENDMDL
MODEL 8
REMARK VINA RESULT:    -6.279      5.945      9.053
REMARK INTER + INTRA:          -8.123
REMARK INTER:                  -7.729
REMARK INTRA:                  -0.394
REMARK UNBOUND:                -0.192
REMARK  Name = 
REMARK  6 active torsions:
REMARK  status: ('A' for Active; 'I' for Inactive)
REMARK    1  A    between atoms: C_1  and  O_2
REMARK    2  A    between atoms: O_2  and  C_3
REMARK    3  A    between atoms: C_4  and  N_5
REMARK    4  A    between atoms: N_5  and  C_6
REMARK    5  A    between atoms: C_7  and  C_9
REMARK    6  A    between atoms: C_16  and  C_17
REMARK                            x       y       z     vdW  Elec       q    Type
REMARK                         _______ _______ _______ _____ _____    ______ ____
ROOT
ATOM      1  C   UNL     1      -9.510   1.997  15.187  0.00  0.00    +0.000 C 
ATOM      2  C   UNL     1      -7.972   1.595  15.322  0.00  0.00    +0.000 C 
ATOM      3  C   UNL     1      -7.751   0.098  15.571  0.00  0.00    +0.000 C 
ATOM      4  C   UNL     1      -9.021  -0.692  15.485  0.00  0.00    +0.000 C 
ATOM      5  O   UNL     1      -9.491  -0.279  14.169  0.00  0.00    +0.000 OA
ATOM      6  C   UNL     1     -10.252   0.965  14.201  0.00  0.00    +0.000 C 
ATOM      7  N   UNL     1     -11.663   0.542  14.491  0.00  0.00    +0.000 N 
ATOM      8  C   UNL     1     -12.745   0.526  13.550  0.00  0.00    +0.000 A 
ATOM      9  C   UNL     1     -13.652   1.540  13.211  0.00  0.00    +0.000 A 
ATOM     10  C   UNL     1     -14.689   1.218  12.325  0.00  0.00    +0.000 A 
ATOM     11  C   UNL     1     -14.741  -0.017  11.676  0.00  0.00    +0.000 A 
ATOM     12  C   UNL     1     -13.825  -1.029  11.965  0.00  0.00    +0.000 A 
ATOM     13  C   UNL     1     -12.924  -0.819  13.022  0.00  0.00    +0.000 A 
ATOM     14  C   UNL     1     -12.273  -1.687  13.910  0.00  0.00    +0.000 A 
ATOM     15  C   UNL     1     -11.860  -3.037  13.755  0.00  0.00    +0.000 A 
ATOM     16  C   UNL     1     -11.343  -3.617  14.935  0.00  0.00    +0.000 A 
ATOM     17  C   UNL     1     -11.230  -2.744  16.020  0.00  0.00    +0.000 A 
ATOM     18  C   UNL     1     -10.175  -2.917  17.029  0.00  0.00    +0.000 A 
ATOM     19  C   UNL     1     -10.006  -3.971  17.945  0.00  0.00    +0.000 A 
ATOM     20  C   UNL     1     -10.978  -4.000  18.934  0.00  0.00    +0.000 A 
ATOM     21  C   UNL     1     -11.643  -2.818  19.257  0.00  0.00    +0.000 A 
ATOM     22  C   UNL     1     -11.205  -1.575  18.726  0.00  0.00    +0.000 A 
ATOM     23  C   UNL     1     -10.262  -1.606  17.635  0.00  0.00    +0.000 A 
ATOM     24  N   UNL     1     -10.131  -0.711  16.497  0.00  0.00    +0.000 N 
ATOM     25  C   UNL     1     -11.212  -1.328  15.910  0.00  0.00    +0.000 A 
ATOM     26  C   UNL     1     -11.833  -0.766  14.850  0.00  0.00    +0.000 A 
ATOM     27  C   UNL     1     -10.495  -4.733  14.604  0.00  0.00    +0.000 C 
ATOM     28  O   UNL     1      -9.863  -5.528  15.278  0.00  0.00    +0.000 OA
ATOM     29  N   UNL     1     -10.318  -4.584  13.236  0.00  0.00    +0.000 N 
ATOM     30  C   UNL     1     -11.239  -3.644  12.577  0.00  0.00    +0.000 C 
ATOM     31  H   UNL     1      -9.574   3.014  14.774  0.00  0.00    +0.000 HD
ATOM     32  H   UNL     1      -7.549   1.792  14.322  0.00  0.00    +0.000 HD
ATOM     33  H   UNL     1      -7.145  -0.229  14.704  0.00  0.00    +0.000 HD
ATOM     34  H   UNL     1      -7.139  -0.229  16.403  0.00  0.00    +0.000 HD
ATOM     35  H   UNL     1      -8.708  -1.737  15.369  0.00  0.00    +0.000 HD
ATOM     36  H   UNL     1     -13.631   2.508  13.703  0.00  0.00    +0.000 HD
ATOM     37  H   UNL     1     -15.486   1.939  12.152  0.00  0.00    +0.000 HD
ATOM     38  H   UNL     1     -15.561  -0.230  10.992  0.00  0.00    +0.000 HD
ATOM     39  H   UNL     1     -13.951  -2.017  11.533  0.00  0.00    +0.000 HD
ATOM     40  H   UNL     1      -9.359  -4.812  17.732  0.00  0.00    +0.000 HD
ATOM     41  H   UNL     1     -11.210  -4.937  19.431  0.00  0.00    +0.000 HD
ATOM     42  H   UNL     1     -12.521  -2.870  19.900  0.00  0.00    +0.000 HD
ATOM     43  H   UNL     1     -11.787  -0.678  18.934  0.00  0.00    +0.000 HD
ATOM     44  H   UNL     1      -9.315  -4.447  13.062  0.00  0.00    +0.000 HD
ATOM     45  H   UNL     1     -11.937  -4.212  11.967  0.00  0.00    +0.000 HD
ATOM     46  H   UNL     1     -10.650  -2.926  11.995  0.00  0.00    +0.000 HD
ENDROOT
BRANCH   6  47
ATOM     47  C   UNL     1     -10.108   1.490  12.753  0.00  0.00    +0.000 C 
ATOM     48  H   UNL     1     -11.076   1.492  12.232  0.00  0.00    +0.000 HD
ATOM     49  H   UNL     1      -9.687   2.499  12.716  0.00  0.00    +0.000 HD
ATOM     50  H   UNL     1      -9.461   0.836  12.158  0.00  0.00    +0.000 HD
ENDBRANCH   6  47
BRANCH   2  51
ATOM     51  N   UNL     1      -7.163   2.444  16.242  0.00  0.00    +0.000 N 
ATOM     52  C   UNL     1      -6.720   3.689  15.759  0.00  0.00    +0.000 C 
ATOM     53  O   UNL     1      -6.772   3.923  14.542  0.00  0.00    +0.000 OA
BRANCH  51  54
ATOM     54  C   UNL     1      -7.073   2.112  17.662  0.00  0.00    +0.000 C 
ATOM     55  H   UNL     1      -7.591   1.171  17.842  0.00  0.00    +0.000 HD
ATOM     56  H   UNL     1      -7.502   2.928  18.250  0.00  0.00    +0.000 HD
ATOM     57  H   UNL     1      -6.059   2.023  18.040  0.00  0.00    +0.000 HD
ENDBRANCH  51  54
BRANCH  52  58
ATOM     58  C   UNL     1      -6.182   4.768  16.748  0.00  0.00    +0.000 C 
ATOM     59  F   UNL     1      -7.039   5.138  17.741  0.00  0.00    +0.000 F 
ATOM     60  F   UNL     1      -5.880   5.928  16.095  0.00  0.00    +0.000 F 
ATOM     61  F   UNL     1      -5.039   4.368  17.371  0.00  0.00    +0.000 F 
ENDBRANCH  52  58
ENDBRANCH   2  51
BRANCH   1  62
ATOM     62  O   UNL     1     -10.020   2.048  16.527  0.00  0.00    +0.000 OA
BRANCH  62  63
ATOM     63  C   UNL     1     -10.692   3.257  16.847  0.00  0.00    +0.000 C 
ATOM     64  H   UNL     1     -11.616   3.299  16.264  0.00  0.00    +0.000 HD
ATOM     65  H   UNL     1     -10.957   3.239  17.907  0.00  0.00    +0.000 HD
ATOM     66  H   UNL     1     -10.090   4.150  16.651  0.00  0.00    +0.000 HD
ENDBRANCH  62  63
ENDBRANCH   1  62
TORSDOF 6
ENDMDL
MODEL 9
REMARK VINA RESULT:    -6.118      5.138      8.235
REMARK INTER + INTRA:          -7.920
REMARK INTER:                  -7.505
REMARK INTRA:                  -0.415
REMARK UNBOUND:                -0.192
REMARK  Name = 
REMARK  6 active torsions:
REMARK  status: ('A' for Active; 'I' for Inactive)
REMARK    1  A    between atoms: C_1  and  O_2
REMARK    2  A    between atoms: O_2  and  C_3
REMARK    3  A    between atoms: C_4  and  N_5
REMARK    4  A    between atoms: N_5  and  C_6
REMARK    5  A    between atoms: C_7  and  C_9
REMARK    6  A    between atoms: C_16  and  C_17
REMARK                            x       y       z     vdW  Elec       q    Type
REMARK                         _______ _______ _______ _____ _____    ______ ____
ROOT
ATOM      1  C   UNL     1     -11.032  -1.994  12.611  0.00  0.00    +0.000 C 
ATOM      2  C   UNL     1     -10.269  -0.711  12.048  0.00  0.00    +0.000 C 
ATOM      3  C   UNL     1     -10.164   0.434  13.064  0.00  0.00    +0.000 C 
ATOM      4  C   UNL     1     -10.671   0.045  14.419  0.00  0.00    +0.000 C 
ATOM      5  O   UNL     1      -9.878  -1.153  14.656  0.00  0.00    +0.000 OA
ATOM      6  C   UNL     1     -10.474  -2.353  14.076  0.00  0.00    +0.000 C 
ATOM      7  N   UNL     1     -11.417  -2.859  15.129  0.00  0.00    +0.000 N 
ATOM      8  C   UNL     1     -11.208  -4.008  15.960  0.00  0.00    +0.000 A 
ATOM      9  C   UNL     1     -11.542  -5.351  15.732  0.00  0.00    +0.000 A 
ATOM     10  C   UNL     1     -11.317  -6.265  16.770  0.00  0.00    +0.000 A 
ATOM     11  C   UNL     1     -10.644  -5.897  17.937  0.00  0.00    +0.000 A 
ATOM     12  C   UNL     1     -10.263  -4.575  18.170  0.00  0.00    +0.000 A 
ATOM     13  C   UNL     1     -10.690  -3.596  17.257  0.00  0.00    +0.000 A 
ATOM     14  C   UNL     1     -10.970  -2.228  17.383  0.00  0.00    +0.000 A 
ATOM     15  C   UNL     1     -10.446  -1.250  18.270  0.00  0.00    +0.000 A 
ATOM     16  C   UNL     1     -11.078   0.009  18.172  0.00  0.00    +0.000 A 
ATOM     17  C   UNL     1     -12.036   0.111  17.159  0.00  0.00    +0.000 A 
ATOM     18  C   UNL     1     -12.290   1.389  16.478  0.00  0.00    +0.000 A 
ATOM     19  C   UNL     1     -12.828   2.573  17.014  0.00  0.00    +0.000 A 
ATOM     20  C   UNL     1     -14.171   2.465  17.346  0.00  0.00    +0.000 A 
ATOM     21  C   UNL     1     -14.949   1.509  16.696  0.00  0.00    +0.000 A 
ATOM     22  C   UNL     1     -14.432   0.793  15.583  0.00  0.00    +0.000 A 
ATOM     23  C   UNL     1     -13.012   0.866  15.338  0.00  0.00    +0.000 A 
ATOM     24  N   UNL     1     -12.108  -0.145  14.814  0.00  0.00    +0.000 N 
ATOM     25  C   UNL     1     -12.117  -0.764  16.043  0.00  0.00    +0.000 A 
ATOM     26  C   UNL     1     -11.638  -2.019  16.185  0.00  0.00    +0.000 A 
ATOM     27  C   UNL     1     -10.205   1.039  18.670  0.00  0.00    +0.000 C 
ATOM     28  O   UNL     1     -10.325   2.246  18.798  0.00  0.00    +0.000 OA
ATOM     29  N   UNL     1      -8.987   0.382  18.771  0.00  0.00    +0.000 N 
ATOM     30  C   UNL     1      -9.051  -1.087  18.683  0.00  0.00    +0.000 C 
ATOM     31  H   UNL     1     -10.852  -2.838  11.930  0.00  0.00    +0.000 HD
ATOM     32  H   UNL     1      -9.233  -1.057  11.889  0.00  0.00    +0.000 HD
ATOM     33  H   UNL     1      -9.074   0.578  13.190  0.00  0.00    +0.000 HD
ATOM     34  H   UNL     1     -10.490   1.430  12.792  0.00  0.00    +0.000 HD
ATOM     35  H   UNL     1     -10.272   0.800  15.107  0.00  0.00    +0.000 HD
ATOM     36  H   UNL     1     -12.067  -5.660  14.832  0.00  0.00    +0.000 HD
ATOM     37  H   UNL     1     -11.692  -7.282  16.676  0.00  0.00    +0.000 HD
ATOM     38  H   UNL     1     -10.485  -6.635  18.720  0.00  0.00    +0.000 HD
ATOM     39  H   UNL     1      -9.843  -4.290  19.130  0.00  0.00    +0.000 HD
ATOM     40  H   UNL     1     -12.195   3.372  17.377  0.00  0.00    +0.000 HD
ATOM     41  H   UNL     1     -14.589   3.116  18.108  0.00  0.00    +0.000 HD
ATOM     42  H   UNL     1     -15.949   1.301  17.074  0.00  0.00    +0.000 HD
ATOM     43  H   UNL     1     -15.033  -0.001  15.141  0.00  0.00    +0.000 HD
ATOM     44  H   UNL     1      -8.322   0.852  18.146  0.00  0.00    +0.000 HD
ATOM     45  H   UNL     1      -8.843  -1.503  19.667  0.00  0.00    +0.000 HD
ATOM     46  H   UNL     1      -8.343  -1.424  17.919  0.00  0.00    +0.000 HD
ENDROOT
BRANCH   6  47
ATOM     47  C   UNL     1      -9.255  -3.294  13.913  0.00  0.00    +0.000 C 
ATOM     48  H   UNL     1      -9.380  -3.960  13.049  0.00  0.00    +0.000 HD
ATOM     49  H   UNL     1      -8.317  -2.743  13.800  0.00  0.00    +0.000 HD
ATOM     50  H   UNL     1      -9.150  -3.957  14.779  0.00  0.00    +0.000 HD
ENDBRANCH   6  47
BRANCH   2  51
ATOM     51  N   UNL     1     -10.712  -0.235  10.706  0.00  0.00    +0.000 N 
ATOM     52  C   UNL     1     -10.412  -1.044   9.596  0.00  0.00    +0.000 C 
ATOM     53  O   UNL     1      -9.579  -1.955   9.715  0.00  0.00    +0.000 OA
BRANCH  51  54
ATOM     54  C   UNL     1     -11.651   0.880  10.595  0.00  0.00    +0.000 C 
ATOM     55  H   UNL     1     -11.356   1.667  11.288  0.00  0.00    +0.000 HD
ATOM     56  H   UNL     1     -12.662   0.519  10.800  0.00  0.00    +0.000 HD
ATOM     57  H   UNL     1     -11.724   1.309   9.600  0.00  0.00    +0.000 HD
ENDBRANCH  51  54
BRANCH  52  58
ATOM     58  C   UNL     1     -11.130  -0.802   8.232  0.00  0.00    +0.000 C 
ATOM     59  F   UNL     1     -12.489  -0.896   8.257  0.00  0.00    +0.000 F 
ATOM     60  F   UNL     1     -10.732  -1.714   7.299  0.00  0.00    +0.000 F 
ATOM     61  F   UNL     1     -10.850   0.426   7.716  0.00  0.00    +0.000 F 
ENDBRANCH  52  58
ENDBRANCH   2  51
BRANCH   1  62
ATOM     62  O   UNL     1     -12.430  -1.679  12.542  0.00  0.00    +0.000 OA
BRANCH  62  63
ATOM     63  C   UNL     1     -13.179  -2.544  11.701  0.00  0.00    +0.000 C 
ATOM     64  H   UNL     1     -14.240  -2.393  11.915  0.00  0.00    +0.000 HD
ATOM     65  H   UNL     1     -12.996  -2.263  10.661  0.00  0.00    +0.000 HD
ATOM     66  H   UNL     1     -12.922  -3.600  11.830  0.00  0.00    +0.000 HD
ENDBRANCH  62  63
ENDBRANCH   1  62
TORSDOF 6
ENDMDL
