
 OpenBabel01112422363D

 52 54  0  0  1  0  0  0  0  0999 V2000
    3.4816   -1.9515    0.5643 C   0  0  0  0  0  0  0  0  0  0  0  0
    2.6447   -0.6675    0.6020 C   0  0  0  0  0  0  0  0  0  0  0  0
    2.4329   -0.1493   -0.8221 C   0  0  0  0  0  0  0  0  0  0  0  0
    3.2050    0.3890    1.6028 C   0  0  2  0  0  0  0  0  0  0  0  0
    2.2832    1.6323    1.7120 C   0  0  0  0  0  0  0  0  0  0  0  0
    0.9387    1.2805    2.0247 O   0  0  0  0  0  0  0  0  0  0  0  0
    4.5875    0.7808    1.2773 N   0  0  0  0  0  0  0  0  0  0  0  0
    5.2359    1.5506    2.2476 C   0  0  0  0  0  0  0  0  0  0  0  0
    4.8577    1.3941    3.5360 N   0  0  0  0  0  0  0  0  0  0  0  0
    5.4155    2.1503    4.5131 C   0  0  0  0  0  0  0  0  0  0  0  0
    4.9710    1.9510    5.8316 N   0  0  0  0  0  0  0  0  0  0  0  0
    5.7431    2.0368    7.0066 C   0  0  0  0  0  0  0  0  0  0  0  0
    7.1306    1.8147    7.0090 C   0  0  0  0  0  0  0  0  0  0  0  0
    7.8774    1.9339    8.1802 C   0  0  0  0  0  0  0  0  0  0  0  0
    7.2433    2.2600    9.3734 C   0  0  0  0  0  0  0  0  0  0  0  0
    5.8629    2.4522    9.3896 C   0  0  0  0  0  0  0  0  0  0  0  0
    5.0794    2.8549   10.8680 Cl  0  0  0  0  0  0  0  0  0  0  0  0
    5.1123    2.3346    8.2178 C   0  0  0  0  0  0  0  0  0  0  0  0
    6.3661    3.1062    4.1347 C   0  0  0  0  0  0  0  0  0  0  0  0
    7.0792    4.0341    4.8653 N   0  0  0  0  0  0  0  0  0  0  0  0
    7.8482    4.6350    3.9910 C   0  0  0  0  0  0  0  0  0  0  0  0
    7.6485    4.1569    2.7219 N   0  0  0  0  0  0  0  0  0  0  0  0
    8.3581    4.6469    1.5476 C   0  0  0  0  0  0  0  0  0  0  0  0
    8.1107    6.1435    1.3377 C   0  0  0  0  0  0  0  0  0  0  0  0
    9.8592    4.3639    1.6464 C   0  0  0  0  0  0  0  0  0  0  0  0
    6.6894    3.1756    2.7888 C   0  0  0  0  0  0  0  0  0  0  0  0
    6.1582    2.4323    1.7997 N   0  0  0  0  0  0  0  0  0  0  0  0
    2.9265   -2.7470    0.0530 H   0  0  0  0  0  0  0  0  0  0  0  0
    3.7082   -2.3091    1.5737 H   0  0  0  0  0  0  0  0  0  0  0  0
    4.4240   -1.8075    0.0263 H   0  0  0  0  0  0  0  0  0  0  0  0
    1.6558   -0.9647    0.9784 H   0  0  0  0  0  0  0  0  0  0  0  0
    3.3778    0.1354   -1.2941 H   0  0  0  0  0  0  0  0  0  0  0  0
    1.7612    0.7134   -0.8420 H   0  0  0  0  0  0  0  0  0  0  0  0
    1.9691   -0.9251   -1.4428 H   0  0  0  0  0  0  0  0  0  0  0  0
    3.1926   -0.1232    2.5761 H   0  0  0  0  0  0  0  0  0  0  0  0
    2.6277    2.3253    2.4864 H   0  0  0  0  0  0  0  0  0  0  0  0
    2.2790    2.1962    0.7742 H   0  0  0  0  0  0  0  0  0  0  0  0
    0.8970    1.1520    2.9889 H   0  0  0  0  0  0  0  0  0  0  0  0
    4.7278    1.2342    0.3814 H   0  0  0  0  0  0  0  0  0  0  0  0
    4.2871    1.2030    5.8532 H   0  0  0  0  0  0  0  0  0  0  0  0
    7.6502    1.5611    6.0908 H   0  0  0  0  0  0  0  0  0  0  0  0
    8.9554    1.7896    8.1495 H   0  0  0  0  0  0  0  0  0  0  0  0
    7.8268    2.3647   10.2836 H   0  0  0  0  0  0  0  0  0  0  0  0
    4.0422    2.5145    8.2409 H   0  0  0  0  0  0  0  0  0  0  0  0
    8.5593    5.4163    4.2265 H   0  0  0  0  0  0  0  0  0  0  0  0
    7.9606    4.1043    0.6812 H   0  0  0  0  0  0  0  0  0  0  0  0
    8.4812    6.7397    2.1808 H   0  0  0  0  0  0  0  0  0  0  0  0
    7.0412    6.3525    1.2325 H   0  0  0  0  0  0  0  0  0  0  0  0
    8.6194    6.5024    0.4369 H   0  0  0  0  0  0  0  0  0  0  0  0
   10.3174    4.8872    2.4958 H   0  0  0  0  0  0  0  0  0  0  0  0
   10.3800    4.6945    0.7401 H   0  0  0  0  0  0  0  0  0  0  0  0
   10.0538    3.2942    1.7777 H   0  0  0  0  0  0  0  0  0  0  0  0
  1  2  1  0  0  0  0
  1 28  1  0  0  0  0
  1 29  1  0  0  0  0
  1 30  1  0  0  0  0
  2  3  1  0  0  0  0
  2 31  1  0  0  0  0
  3 32  1  0  0  0  0
  3 33  1  0  0  0  0
  3 34  1  0  0  0  0
  4  7  1  0  0  0  0
  4  5  1  0  0  0  0
  4  2  1  0  0  0  0
  4 35  1  1  0  0  0
  5  6  1  0  0  0  0
  5 36  1  0  0  0  0
  5 37  1  0  0  0  0
  6 38  1  0  0  0  0
  7  8  1  0  0  0  0
  7 39  1  0  0  0  0
  8  9  1  0  0  0  0
  8 27  2  0  0  0  0
  9 10  2  0  0  0  0
 10 11  1  0  0  0  0
 10 19  1  0  0  0  0
 11 12  1  0  0  0  0
 11 40  1  0  0  0  0
 12 13  1  0  0  0  0
 12 18  2  0  0  0  0
 13 14  2  0  0  0  0
 13 41  1  0  0  0  0
 14 15  1  0  0  0  0
 14 42  1  0  0  0  0
 15 16  2  0  0  0  0
 15 43  1  0  0  0  0
 16 17  1  0  0  0  0
 16 18  1  0  0  0  0
 18 44  1  0  0  0  0
 19 20  1  0  0  0  0
 19 26  2  0  0  0  0
 20 21  2  0  0  0  0
 21 22  1  0  0  0  0
 21 45  1  0  0  0  0
 22 23  1  0  0  0  0
 22 26  1  0  0  0  0
 23 24  1  0  0  0  0
 23 25  1  0  0  0  0
 23 46  1  0  0  0  0
 24 47  1  0  0  0  0
 24 48  1  0  0  0  0
 24 49  1  0  0  0  0
 25 50  1  0  0  0  0
 25 51  1  0  0  0  0
 25 52  1  0  0  0  0
 26 27  1  0  0  0  0
M  END
$$$$
