REMARK  Name = 
REMARK  4 active torsions:
REMARK  status: ('A' for Active; 'I' for Inactive)
REMARK    1  A    between atoms: O_1  and  C_2
REMARK    2  A    between atoms: C_7  and  O_8
REMARK    3  A    between atoms: C_9  and  O_10
REMARK    4  A    between atoms: C_17  and  O_18
REMARK                            x       y       z     vdW  Elec       q    Type
REMARK                         _______ _______ _______ _____ _____    ______ ____
ROOT
ATOM      1  C   UNL     1      -3.347  -0.517  -0.003  0.00  0.00    +0.000 A 
ATOM      2  C   UNL     1      -2.610   0.670  -0.003  0.00  0.00    +0.000 A 
ATOM      3  C   UNL     1      -1.210   0.561  -0.002  0.00  0.00    +0.000 A 
ATOM      4  N   UNL     1      -0.251   1.545  -0.000  0.00  0.00    +0.000 N 
ATOM      5  C   UNL     1       1.016   1.012   0.001  0.00  0.00    +0.000 A 
ATOM      6  C   UNL     1       2.277   1.624   0.004  0.00  0.00    +0.000 A 
ATOM      7  C   UNL     1       3.412   0.813   0.006  0.00  0.00    +0.000 A 
ATOM      8  C   UNL     1       3.319  -0.565   0.003  0.00  0.00    +0.000 A 
ATOM      9  C   UNL     1       2.058  -1.175  -0.000  0.00  0.00    +0.000 A 
ATOM     10 BR   UNL     1       2.023  -3.072  -0.005  0.00  0.00    +0.000 Br
ATOM     11  C   UNL     1       0.875  -0.387  -0.001  0.00  0.00    +0.000 A 
ATOM     12  C   UNL     1      -0.539  -0.663  -0.002  0.00  0.00    +0.000 A 
ATOM     13  C   UNL     1      -1.318  -1.844  -0.002  0.00  0.00    +0.000 A 
ATOM     14  C   UNL     1      -2.713  -1.755  -0.003  0.00  0.00    +0.000 A 
ATOM     15  H   UNL     1      -3.095   1.639  -0.003  0.00  0.00    +0.000 HD
ATOM     16  H   UNL     1      -0.466   2.532   0.001  0.00  0.00    +0.000 HD
ATOM     17  H   UNL     1       4.227  -1.161   0.004  0.00  0.00    +0.000 HD
ATOM     18  H   UNL     1      -0.838  -2.814  -0.000  0.00  0.00    +0.000 HD
ENDROOT
BRANCH   1  19
ATOM     19  O   UNL     1      -4.715  -0.476  -0.004  0.00  0.00    +0.000 OA
ATOM     20  H   UNL     1      -5.009   0.447  -0.005  0.00  0.00    +0.000 HD
ENDBRANCH   1  19
BRANCH   6  21
ATOM     21  O   UNL     1       2.483   2.986   0.005  0.00  0.00    +0.000 OA
ATOM     22  H   UNL     1       1.622   3.431  -0.009  0.00  0.00    +0.000 HD
ENDBRANCH   6  21
BRANCH   7  23
ATOM     23  O   UNL     1       4.655   1.384   0.011  0.00  0.00    +0.000 OA
ATOM     24  H   UNL     1       4.487   2.347   0.015  0.00  0.00    +0.000 HD
ENDBRANCH   7  23
BRANCH  14  25
ATOM     25  O   UNL     1      -3.467  -2.896  -0.002  0.00  0.00    +0.000 OA
ATOM     26  H   UNL     1      -2.876  -3.665  -0.003  0.00  0.00    +0.000 HD
ENDBRANCH  14  25
TORSDOF 4
