MODEL 1
REMARK VINA RESULT:    -8.222      0.000      0.000
REMARK INTER + INTRA:         -12.314
REMARK INTER:                 -11.826
REMARK INTRA:                  -0.487
REMARK UNBOUND:                -0.487
REMARK  Name = 
REMARK  9 active torsions:
REMARK  status: ('A' for Active; 'I' for Inactive)
REMARK    1  A    between atoms: C_1  and  O_2
REMARK    2  A    between atoms: O_2  and  C_3
REMARK    3  A    between atoms: N_17  and  C_18
REMARK    4  A    between atoms: N_21  and  C_22
REMARK    5  A    between atoms: C_22  and  C_23
REMARK    6  A    between atoms: C_23  and  N_24
REMARK    7  A    between atoms: N_24  and  C_25
REMARK    8  A    between atoms: C_25  and  C_26
REMARK    9  A    between atoms: C_26  and  O_27
REMARK                            x       y       z     vdW  Elec       q    Type
REMARK                         _______ _______ _______ _____ _____    ______ ____
ROOT
ATOM      1  C   UNL     1      -8.403  -9.450  19.473  0.00  0.00    +0.000 A 
ATOM      2  C   UNL     1      -8.080  -8.397  20.320  0.00  0.00    +0.000 A 
ATOM      3  C   UNL     1      -8.547  -7.102  20.061  0.00  0.00    +0.000 A 
ATOM      4  C   UNL     1      -9.343  -6.855  18.919  0.00  0.00    +0.000 A 
ATOM      5  C   UNL     1     -10.045  -5.791  18.357  0.00  0.00    +0.000 A 
ATOM      6  C   UNL     1      -9.972  -4.486  18.870  0.00  0.00    +0.000 A 
ATOM      7  C   UNL     1     -10.856  -3.554  18.305  0.00  0.00    +0.000 A 
ATOM      8  C   UNL     1     -11.449  -3.730  17.053  0.00  0.00    +0.000 A 
ATOM      9  C   UNL     1     -11.349  -5.008  16.445  0.00  0.00    +0.000 A 
ATOM     10  C   UNL     1     -11.584  -5.128  15.064  0.00  0.00    +0.000 A 
ATOM     11  C   UNL     1     -11.338  -4.012  14.252  0.00  0.00    +0.000 A 
ATOM     12  C   UNL     1     -11.043  -2.829  14.922  0.00  0.00    +0.000 A 
ATOM     13  C   UNL     1      -9.856  -1.999  15.031  0.00  0.00    +0.000 A 
ATOM     14  C   UNL     1     -10.105  -1.073  16.034  0.00  0.00    +0.000 A 
ATOM     15  N   UNL     1     -11.470  -1.243  16.247  0.00  0.00    +0.000 N 
ATOM     16  C   UNL     1     -11.638  -2.621  16.178  0.00  0.00    +0.000 A 
ATOM     17  C   UNL     1     -10.730  -6.059  17.181  0.00  0.00    +0.000 A 
ATOM     18  N   UNL     1     -10.371  -7.403  16.969  0.00  0.00    +0.000 N 
ATOM     19  C   UNL     1      -9.623  -7.911  18.046  0.00  0.00    +0.000 A 
ATOM     20  C   UNL     1      -9.156  -9.215  18.319  0.00  0.00    +0.000 A 
ATOM     21  C   UNL     1     -10.705  -2.331  19.035  0.00  0.00    +0.000 C 
ATOM     22  O   UNL     1     -11.412  -1.342  19.175  0.00  0.00    +0.000 OA
ATOM     23  N   UNL     1      -9.513  -2.497  19.676  0.00  0.00    +0.000 N 
ATOM     24  C   UNL     1      -9.028  -3.785  19.681  0.00  0.00    +0.000 C 
ATOM     25  O   UNL     1      -7.932  -4.066  20.147  0.00  0.00    +0.000 OA
ATOM     26  H   UNL     1      -7.478  -8.540  21.212  0.00  0.00    +0.000 HD
ATOM     27  H   UNL     1      -8.297  -6.314  20.760  0.00  0.00    +0.000 HD
ATOM     28  H   UNL     1     -11.677  -6.084  14.564  0.00  0.00    +0.000 HD
ATOM     29  H   UNL     1     -11.127  -4.139  13.196  0.00  0.00    +0.000 HD
ATOM     30  H   UNL     1      -8.904  -2.166  14.552  0.00  0.00    +0.000 HD
ATOM     31  H   UNL     1      -9.543  -0.277  16.505  0.00  0.00    +0.000 HD
ATOM     32  H   UNL     1      -9.380 -10.040  17.653  0.00  0.00    +0.000 HD
ATOM     33  H   UNL     1      -8.824  -1.775  19.560  0.00  0.00    +0.000 HD
ENDROOT
BRANCH  15  34
ATOM     34  C   UNL     1     -12.367  -0.295  15.577  0.00  0.00    +0.000 C 
ATOM     35  H   UNL     1     -13.069   0.119  16.305  0.00  0.00    +0.000 HD
ATOM     36  H   UNL     1     -12.881  -0.796  14.757  0.00  0.00    +0.000 HD
ATOM     37  H   UNL     1     -11.744   0.516  15.174  0.00  0.00    +0.000 HD
ENDBRANCH  15  34
BRANCH  18  38
ATOM     38  C   UNL     1     -10.786  -8.225  15.833  0.00  0.00    +0.000 C 
ATOM     39  H   UNL     1     -11.585  -7.669  15.322  0.00  0.00    +0.000 HD
ATOM     40  H   UNL     1     -11.269  -9.127  16.219  0.00  0.00    +0.000 HD
BRANCH  38  41
ATOM     41  C   UNL     1      -9.665  -8.611  14.853  0.00  0.00    +0.000 C 
ATOM     42  H   UNL     1      -8.691  -8.538  15.346  0.00  0.00    +0.000 HD
ATOM     43  H   UNL     1      -9.684  -7.870  14.048  0.00  0.00    +0.000 HD
BRANCH  41  44
ATOM     44  N   UNL     1      -9.760  -9.951  14.247  0.00  0.00    +0.000 NA
ATOM     45  H   UNL     1      -9.054 -10.047  13.517  0.00  0.00    +0.000 HD
BRANCH  44  46
ATOM     46  C   UNL     1      -9.517 -10.984  15.276  0.00  0.00    +0.000 C 
ATOM     47  H   UNL     1     -10.395 -11.631  15.383  0.00  0.00    +0.000 HD
ATOM     48  H   UNL     1      -9.332 -10.491  16.239  0.00  0.00    +0.000 HD
BRANCH  46  49
ATOM     49  C   UNL     1      -8.307 -11.861  14.938  0.00  0.00    +0.000 C 
ATOM     50  H   UNL     1      -7.462 -11.659  15.605  0.00  0.00    +0.000 HD
ATOM     51  H   UNL     1      -7.980 -11.665  13.911  0.00  0.00    +0.000 HD
BRANCH  49  52
ATOM     52  O   UNL     1      -8.649 -13.241  15.036  0.00  0.00    +0.000 OA
ATOM     53  H   UNL     1      -8.889 -13.386  15.964  0.00  0.00    +0.000 HD
ENDBRANCH  49  52
ENDBRANCH  46  49
ENDBRANCH  44  46
ENDBRANCH  41  44
ENDBRANCH  38  41
ENDBRANCH  18  38
BRANCH   1  54
ATOM     54  O   UNL     1      -8.040 -10.756  19.661  0.00  0.00    +0.000 OA
BRANCH  54  55
ATOM     55  C   UNL     1      -8.358 -11.668  18.616  0.00  0.00    +0.000 C 
ATOM     56  H   UNL     1      -7.506 -11.707  17.929  0.00  0.00    +0.000 HD
ATOM     57  H   UNL     1      -9.229 -11.335  18.040  0.00  0.00    +0.000 HD
ATOM     58  H   UNL     1      -8.512 -12.677  19.016  0.00  0.00    +0.000 HD
ENDBRANCH  54  55
ENDBRANCH   1  54
TORSDOF 9
ENDMDL
MODEL 2
REMARK VINA RESULT:    -7.736      2.791      8.391
REMARK INTER + INTRA:         -11.615
REMARK INTER:                 -10.848
REMARK INTRA:                  -0.767
REMARK UNBOUND:                -0.487
REMARK  Name = 
REMARK  9 active torsions:
REMARK  status: ('A' for Active; 'I' for Inactive)
REMARK    1  A    between atoms: C_1  and  O_2
REMARK    2  A    between atoms: O_2  and  C_3
REMARK    3  A    between atoms: N_17  and  C_18
REMARK    4  A    between atoms: N_21  and  C_22
REMARK    5  A    between atoms: C_22  and  C_23
REMARK    6  A    between atoms: C_23  and  N_24
REMARK    7  A    between atoms: N_24  and  C_25
REMARK    8  A    between atoms: C_25  and  C_26
REMARK    9  A    between atoms: C_26  and  O_27
REMARK                            x       y       z     vdW  Elec       q    Type
REMARK                         _______ _______ _______ _____ _____    ______ ____
ROOT
ATOM      1  C   UNL     1     -12.167   0.788  15.933  0.00  0.00    +0.000 A 
ATOM      2  C   UNL     1     -12.595  -0.245  15.107  0.00  0.00    +0.000 A 
ATOM      3  C   UNL     1     -12.309  -1.578  15.423  0.00  0.00    +0.000 A 
ATOM      4  C   UNL     1     -11.564  -1.883  16.586  0.00  0.00    +0.000 A 
ATOM      5  C   UNL     1     -11.146  -3.016  17.281  0.00  0.00    +0.000 A 
ATOM      6  C   UNL     1     -11.328  -4.316  16.781  0.00  0.00    +0.000 A 
ATOM      7  C   UNL     1     -11.007  -5.362  17.659  0.00  0.00    +0.000 A 
ATOM      8  C   UNL     1     -10.160  -5.199  18.758  0.00  0.00    +0.000 A 
ATOM      9  C   UNL     1      -9.817  -3.877  19.142  0.00  0.00    +0.000 A 
ATOM     10  C   UNL     1      -8.700  -3.675  19.971  0.00  0.00    +0.000 A 
ATOM     11  C   UNL     1      -7.663  -4.618  19.926  0.00  0.00    +0.000 A 
ATOM     12  C   UNL     1      -7.920  -5.765  19.181  0.00  0.00    +0.000 A 
ATOM     13  C   UNL     1      -7.380  -6.311  17.949  0.00  0.00    +0.000 A 
ATOM     14  C   UNL     1      -8.203  -7.365  17.582  0.00  0.00    +0.000 A 
ATOM     15  N   UNL     1      -8.979  -7.531  18.726  0.00  0.00    +0.000 N 
ATOM     16  C   UNL     1      -9.245  -6.227  19.128  0.00  0.00    +0.000 A 
ATOM     17  C   UNL     1     -10.422  -2.793  18.443  0.00  0.00    +0.000 A 
ATOM     18  N   UNL     1     -10.340  -1.388  18.435  0.00  0.00    +0.000 N 
ATOM     19  C   UNL     1     -11.096  -0.835  17.386  0.00  0.00    +0.000 A 
ATOM     20  C   UNL     1     -11.396   0.506  17.064  0.00  0.00    +0.000 A 
ATOM     21  C   UNL     1     -11.367  -6.586  17.009  0.00  0.00    +0.000 C 
ATOM     22  O   UNL     1     -11.594  -7.719  17.414  0.00  0.00    +0.000 OA
ATOM     23  N   UNL     1     -11.489  -6.219  15.702  0.00  0.00    +0.000 N 
ATOM     24  C   UNL     1     -11.539  -4.862  15.479  0.00  0.00    +0.000 C 
ATOM     25  O   UNL     1     -11.564  -4.389  14.351  0.00  0.00    +0.000 OA
ATOM     26  H   UNL     1     -13.175  -0.060  14.208  0.00  0.00    +0.000 HD
ATOM     27  H   UNL     1     -12.683  -2.356  14.770  0.00  0.00    +0.000 HD
ATOM     28  H   UNL     1      -8.470  -2.719  20.426  0.00  0.00    +0.000 HD
ATOM     29  H   UNL     1      -6.658  -4.340  20.221  0.00  0.00    +0.000 HD
ATOM     30  H   UNL     1      -6.597  -5.884  17.342  0.00  0.00    +0.000 HD
ATOM     31  H   UNL     1      -8.246  -8.056  16.750  0.00  0.00    +0.000 HD
ATOM     32  H   UNL     1     -11.047   1.322  17.686  0.00  0.00    +0.000 HD
ATOM     33  H   UNL     1     -10.969  -6.750  15.025  0.00  0.00    +0.000 HD
ENDROOT
BRANCH  15  34
ATOM     34  C   UNL     1      -8.566  -8.586  19.659  0.00  0.00    +0.000 C 
ATOM     35  H   UNL     1      -7.944  -9.313  19.134  0.00  0.00    +0.000 HD
ATOM     36  H   UNL     1      -9.449  -9.049  20.099  0.00  0.00    +0.000 HD
ATOM     37  H   UNL     1      -7.974  -8.107  20.451  0.00  0.00    +0.000 HD
ENDBRANCH  15  34
BRANCH  18  38
ATOM     38  C   UNL     1      -9.647  -0.571  19.431  0.00  0.00    +0.000 C 
ATOM     39  H   UNL     1      -9.290   0.325  18.904  0.00  0.00    +0.000 HD
ATOM     40  H   UNL     1      -8.740  -1.100  19.739  0.00  0.00    +0.000 HD
BRANCH  38  41
ATOM     41  C   UNL     1     -10.478  -0.194  20.670  0.00  0.00    +0.000 C 
ATOM     42  H   UNL     1     -11.543  -0.339  20.468  0.00  0.00    +0.000 HD
ATOM     43  H   UNL     1     -10.316   0.875  20.840  0.00  0.00    +0.000 HD
BRANCH  41  44
ATOM     44  N   UNL     1     -10.157  -0.913  21.914  0.00  0.00    +0.000 NA
ATOM     45  H   UNL     1      -9.986  -0.241  22.663  0.00  0.00    +0.000 HD
BRANCH  44  46
ATOM     46  C   UNL     1     -11.295  -1.772  22.304  0.00  0.00    +0.000 C 
ATOM     47  H   UNL     1     -11.418  -2.592  21.587  0.00  0.00    +0.000 HD
ATOM     48  H   UNL     1     -12.213  -1.170  22.302  0.00  0.00    +0.000 HD
BRANCH  46  49
ATOM     49  C   UNL     1     -11.112  -2.374  23.701  0.00  0.00    +0.000 C 
ATOM     50  H   UNL     1     -11.093  -1.601  24.476  0.00  0.00    +0.000 HD
ATOM     51  H   UNL     1     -10.164  -2.922  23.748  0.00  0.00    +0.000 HD
BRANCH  49  52
ATOM     52  O   UNL     1     -12.165  -3.289  23.991  0.00  0.00    +0.000 OA
ATOM     53  H   UNL     1     -12.863  -3.099  23.346  0.00  0.00    +0.000 HD
ENDBRANCH  49  52
ENDBRANCH  46  49
ENDBRANCH  44  46
ENDBRANCH  41  44
ENDBRANCH  38  41
ENDBRANCH  18  38
BRANCH   1  54
ATOM     54  O   UNL     1     -12.434   2.117  15.740  0.00  0.00    +0.000 OA
BRANCH  54  55
ATOM     55  C   UNL     1     -13.185   2.774  16.755  0.00  0.00    +0.000 C 
ATOM     56  H   UNL     1     -14.005   3.315  16.272  0.00  0.00    +0.000 HD
ATOM     57  H   UNL     1     -12.579   3.511  17.294  0.00  0.00    +0.000 HD
ATOM     58  H   UNL     1     -13.625   2.045  17.444  0.00  0.00    +0.000 HD
ENDBRANCH  54  55
ENDBRANCH   1  54
TORSDOF 9
ENDMDL
MODEL 3
REMARK VINA RESULT:    -7.718      2.257      4.310
REMARK INTER + INTRA:         -11.589
REMARK INTER:                 -10.812
REMARK INTRA:                  -0.777
REMARK UNBOUND:                -0.487
REMARK  Name = 
REMARK  9 active torsions:
REMARK  status: ('A' for Active; 'I' for Inactive)
REMARK    1  A    between atoms: C_1  and  O_2
REMARK    2  A    between atoms: O_2  and  C_3
REMARK    3  A    between atoms: N_17  and  C_18
REMARK    4  A    between atoms: N_21  and  C_22
REMARK    5  A    between atoms: C_22  and  C_23
REMARK    6  A    between atoms: C_23  and  N_24
REMARK    7  A    between atoms: N_24  and  C_25
REMARK    8  A    between atoms: C_25  and  C_26
REMARK    9  A    between atoms: C_26  and  O_27
REMARK                            x       y       z     vdW  Elec       q    Type
REMARK                         _______ _______ _______ _____ _____    ______ ____
ROOT
ATOM      1  C   UNL     1      -8.070  -3.327  21.933  0.00  0.00    +0.000 A 
ATOM      2  C   UNL     1      -8.703  -2.109  21.718  0.00  0.00    +0.000 A 
ATOM      3  C   UNL     1      -9.422  -1.875  20.540  0.00  0.00    +0.000 A 
ATOM      4  C   UNL     1      -9.495  -2.881  19.547  0.00  0.00    +0.000 A 
ATOM      5  C   UNL     1     -10.134  -3.086  18.326  0.00  0.00    +0.000 A 
ATOM      6  C   UNL     1     -10.872  -2.078  17.684  0.00  0.00    +0.000 A 
ATOM      7  C   UNL     1     -11.593  -2.476  16.548  0.00  0.00    +0.000 A 
ATOM      8  C   UNL     1     -11.288  -3.626  15.817  0.00  0.00    +0.000 A 
ATOM      9  C   UNL     1     -10.381  -4.555  16.390  0.00  0.00    +0.000 A 
ATOM     10  C   UNL     1      -9.763  -5.506  15.560  0.00  0.00    +0.000 A 
ATOM     11  C   UNL     1      -9.582  -5.186  14.207  0.00  0.00    +0.000 A 
ATOM     12  C   UNL     1     -10.193  -4.012  13.776  0.00  0.00    +0.000 A 
ATOM     13  C   UNL     1      -9.698  -2.728  13.310  0.00  0.00    +0.000 A 
ATOM     14  C   UNL     1     -10.790  -1.875  13.251  0.00  0.00    +0.000 A 
ATOM     15  N   UNL     1     -11.852  -2.759  13.416  0.00  0.00    +0.000 N 
ATOM     16  C   UNL     1     -11.395  -3.633  14.396  0.00  0.00    +0.000 A 
ATOM     17  C   UNL     1      -9.903  -4.305  17.708  0.00  0.00    +0.000 A 
ATOM     18  N   UNL     1      -8.990  -4.886  18.608  0.00  0.00    +0.000 N 
ATOM     19  C   UNL     1      -8.815  -4.085  19.751  0.00  0.00    +0.000 A 
ATOM     20  C   UNL     1      -8.100  -4.316  20.946  0.00  0.00    +0.000 A 
ATOM     21  C   UNL     1     -12.358  -1.344  16.115  0.00  0.00    +0.000 C 
ATOM     22  O   UNL     1     -13.350  -1.220  15.410  0.00  0.00    +0.000 OA
ATOM     23  N   UNL     1     -11.753  -0.300  16.748  0.00  0.00    +0.000 N 
ATOM     24  C   UNL     1     -10.886  -0.653  17.757  0.00  0.00    +0.000 C 
ATOM     25  O   UNL     1     -10.212   0.176  18.355  0.00  0.00    +0.000 OA
ATOM     26  H   UNL     1      -8.681  -1.311  22.454  0.00  0.00    +0.000 HD
ATOM     27  H   UNL     1      -9.925  -0.924  20.421  0.00  0.00    +0.000 HD
ATOM     28  H   UNL     1      -9.184  -6.336  15.945  0.00  0.00    +0.000 HD
ATOM     29  H   UNL     1      -8.806  -5.673  13.628  0.00  0.00    +0.000 HD
ATOM     30  H   UNL     1      -8.666  -2.437  13.194  0.00  0.00    +0.000 HD
ATOM     31  H   UNL     1     -10.941  -0.833  13.001  0.00  0.00    +0.000 HD
ATOM     32  H   UNL     1      -7.580  -5.252  21.115  0.00  0.00    +0.000 HD
ATOM     33  H   UNL     1     -11.463   0.477  16.180  0.00  0.00    +0.000 HD
ENDROOT
BRANCH  15  34
ATOM     34  C   UNL     1     -12.532  -3.212  12.198  0.00  0.00    +0.000 C 
ATOM     35  H   UNL     1     -12.129  -2.679  11.335  0.00  0.00    +0.000 HD
ATOM     36  H   UNL     1     -13.607  -3.061  12.303  0.00  0.00    +0.000 HD
ATOM     37  H   UNL     1     -12.326  -4.287  12.088  0.00  0.00    +0.000 HD
ENDBRANCH  15  34
BRANCH  18  38
ATOM     38  C   UNL     1      -8.360  -6.197  18.453  0.00  0.00    +0.000 C 
ATOM     39  H   UNL     1      -7.377  -6.129  18.939  0.00  0.00    +0.000 HD
ATOM     40  H   UNL     1      -8.144  -6.352  17.392  0.00  0.00    +0.000 HD
BRANCH  38  41
ATOM     41  C   UNL     1      -9.169  -7.387  19.000  0.00  0.00    +0.000 C 
ATOM     42  H   UNL     1      -9.712  -7.091  19.901  0.00  0.00    +0.000 HD
ATOM     43  H   UNL     1      -8.441  -8.152  19.289  0.00  0.00    +0.000 HD
BRANCH  41  44
ATOM     44  N   UNL     1     -10.137  -7.998  18.074  0.00  0.00    +0.000 NA
ATOM     45  H   UNL     1     -10.618  -7.267  17.550  0.00  0.00    +0.000 HD
BRANCH  44  46
ATOM     46  C   UNL     1      -9.430  -8.875  17.117  0.00  0.00    +0.000 C 
ATOM     47  H   UNL     1      -9.011  -9.746  17.634  0.00  0.00    +0.000 HD
ATOM     48  H   UNL     1      -8.604  -8.313  16.663  0.00  0.00    +0.000 HD
BRANCH  46  49
ATOM     49  C   UNL     1     -10.352  -9.372  15.999  0.00  0.00    +0.000 C 
ATOM     50  H   UNL     1     -10.671 -10.406  16.169  0.00  0.00    +0.000 HD
ATOM     51  H   UNL     1      -9.826  -9.335  15.039  0.00  0.00    +0.000 HD
BRANCH  49  52
ATOM     52  O   UNL     1     -11.508  -8.545  15.902  0.00  0.00    +0.000 OA
ATOM     53  H   UNL     1     -12.017  -8.892  15.153  0.00  0.00    +0.000 HD
ENDBRANCH  49  52
ENDBRANCH  46  49
ENDBRANCH  44  46
ENDBRANCH  41  44
ENDBRANCH  38  41
ENDBRANCH  18  38
BRANCH   1  54
ATOM     54  O   UNL     1      -7.385  -3.673  23.067  0.00  0.00    +0.000 OA
BRANCH  54  55
ATOM     55  C   UNL     1      -8.122  -3.684  24.284  0.00  0.00    +0.000 C 
ATOM     56  H   UNL     1      -7.477  -4.095  25.068  0.00  0.00    +0.000 HD
ATOM     57  H   UNL     1      -9.006  -4.328  24.216  0.00  0.00    +0.000 HD
ATOM     58  H   UNL     1      -8.398  -2.665  24.579  0.00  0.00    +0.000 HD
ENDBRANCH  54  55
ENDBRANCH   1  54
TORSDOF 9
ENDMDL
MODEL 4
REMARK VINA RESULT:    -7.707      2.763      6.010
REMARK INTER + INTRA:         -11.574
REMARK INTER:                 -10.906
REMARK INTRA:                  -0.668
REMARK UNBOUND:                -0.487
REMARK  Name = 
REMARK  9 active torsions:
REMARK  status: ('A' for Active; 'I' for Inactive)
REMARK    1  A    between atoms: C_1  and  O_2
REMARK    2  A    between atoms: O_2  and  C_3
REMARK    3  A    between atoms: N_17  and  C_18
REMARK    4  A    between atoms: N_21  and  C_22
REMARK    5  A    between atoms: C_22  and  C_23
REMARK    6  A    between atoms: C_23  and  N_24
REMARK    7  A    between atoms: N_24  and  C_25
REMARK    8  A    between atoms: C_25  and  C_26
REMARK    9  A    between atoms: C_26  and  O_27
REMARK                            x       y       z     vdW  Elec       q    Type
REMARK                         _______ _______ _______ _____ _____    ______ ____
ROOT
ATOM      1  C   UNL     1      -9.683  -7.078  16.242  0.00  0.00    +0.000 A 
ATOM      2  C   UNL     1     -10.473  -6.126  15.608  0.00  0.00    +0.000 A 
ATOM      3  C   UNL     1     -10.648  -4.855  16.168  0.00  0.00    +0.000 A 
ATOM      4  C   UNL     1     -10.030  -4.535  17.399  0.00  0.00    +0.000 A 
ATOM      5  C   UNL     1      -9.884  -3.423  18.226  0.00  0.00    +0.000 A 
ATOM      6  C   UNL     1     -10.561  -2.216  17.991  0.00  0.00    +0.000 A 
ATOM      7  C   UNL     1     -10.192  -1.136  18.809  0.00  0.00    +0.000 A 
ATOM      8  C   UNL     1      -9.557  -1.299  20.042  0.00  0.00    +0.000 A 
ATOM      9  C   UNL     1      -9.044  -2.583  20.361  0.00  0.00    +0.000 A 
ATOM     10  C   UNL     1      -8.750  -2.887  21.701  0.00  0.00    +0.000 A 
ATOM     11  C   UNL     1      -9.464  -2.216  22.705  0.00  0.00    +0.000 A 
ATOM     12  C   UNL     1     -10.285  -1.179  22.272  0.00  0.00    +0.000 A 
ATOM     13  C   UNL     1     -11.723  -0.976  22.239  0.00  0.00    +0.000 A 
ATOM     14  C   UNL     1     -11.950   0.159  21.475  0.00  0.00    +0.000 A 
ATOM     15  N   UNL     1     -10.665   0.678  21.346  0.00  0.00    +0.000 N 
ATOM     16  C   UNL     1      -9.880  -0.451  21.141  0.00  0.00    +0.000 A 
ATOM     17  C   UNL     1      -9.127  -3.606  19.374  0.00  0.00    +0.000 A 
ATOM     18  N   UNL     1      -8.822  -4.976  19.271  0.00  0.00    +0.000 N 
ATOM     19  C   UNL     1      -9.276  -5.514  18.054  0.00  0.00    +0.000 A 
ATOM     20  C   UNL     1      -9.097  -6.790  17.478  0.00  0.00    +0.000 A 
ATOM     21  C   UNL     1     -10.905   0.013  18.339  0.00  0.00    +0.000 C 
ATOM     22  O   UNL     1     -10.736   1.218  18.467  0.00  0.00    +0.000 OA
ATOM     23  N   UNL     1     -11.901  -0.528  17.580  0.00  0.00    +0.000 N 
ATOM     24  C   UNL     1     -11.738  -1.858  17.268  0.00  0.00    +0.000 C 
ATOM     25  O   UNL     1     -12.593  -2.493  16.664  0.00  0.00    +0.000 OA
ATOM     26  H   UNL     1     -10.961  -6.324  14.659  0.00  0.00    +0.000 HD
ATOM     27  H   UNL     1     -11.248  -4.132  15.630  0.00  0.00    +0.000 HD
ATOM     28  H   UNL     1      -8.217  -3.781  21.998  0.00  0.00    +0.000 HD
ATOM     29  H   UNL     1      -9.569  -2.657  23.689  0.00  0.00    +0.000 HD
ATOM     30  H   UNL     1     -12.480  -1.658  22.592  0.00  0.00    +0.000 HD
ATOM     31  H   UNL     1     -12.826   0.697  21.135  0.00  0.00    +0.000 HD
ATOM     32  H   UNL     1      -8.504  -7.550  17.974  0.00  0.00    +0.000 HD
ATOM     33  H   UNL     1     -12.842  -0.243  17.786  0.00  0.00    +0.000 HD
ENDROOT
BRANCH  15  34
ATOM     34  C   UNL     1     -10.289   1.754  22.270  0.00  0.00    +0.000 C 
ATOM     35  H   UNL     1      -9.374   1.478  22.799  0.00  0.00    +0.000 HD
ATOM     36  H   UNL     1     -11.113   1.948  22.958  0.00  0.00    +0.000 HD
ATOM     37  H   UNL     1     -10.102   2.653  21.666  0.00  0.00    +0.000 HD
ENDBRANCH  15  34
BRANCH  18  38
ATOM     38  C   UNL     1      -8.050  -5.751  20.243  0.00  0.00    +0.000 C 
ATOM     39  H   UNL     1      -8.582  -6.704  20.374  0.00  0.00    +0.000 HD
ATOM     40  H   UNL     1      -8.118  -5.251  21.213  0.00  0.00    +0.000 HD
BRANCH  38  41
ATOM     41  C   UNL     1      -6.574  -5.985  19.878  0.00  0.00    +0.000 C 
ATOM     42  H   UNL     1      -6.497  -6.712  19.065  0.00  0.00    +0.000 HD
ATOM     43  H   UNL     1      -6.100  -6.424  20.761  0.00  0.00    +0.000 HD
BRANCH  41  44
ATOM     44  N   UNL     1      -5.802  -4.793  19.485  0.00  0.00    +0.000 NA
ATOM     45  H   UNL     1      -6.415  -3.978  19.474  0.00  0.00    +0.000 HD
BRANCH  44  46
ATOM     46  C   UNL     1      -4.719  -4.554  20.462  0.00  0.00    +0.000 C 
ATOM     47  H   UNL     1      -3.988  -3.845  20.056  0.00  0.00    +0.000 HD
ATOM     48  H   UNL     1      -4.205  -5.502  20.663  0.00  0.00    +0.000 HD
BRANCH  46  49
ATOM     49  C   UNL     1      -5.249  -3.997  21.787  0.00  0.00    +0.000 C 
ATOM     50  H   UNL     1      -4.575  -4.225  22.620  0.00  0.00    +0.000 HD
ATOM     51  H   UNL     1      -6.226  -4.440  22.013  0.00  0.00    +0.000 HD
BRANCH  49  52
ATOM     52  O   UNL     1      -5.414  -2.584  21.703  0.00  0.00    +0.000 OA
ATOM     53  H   UNL     1      -5.034  -2.326  20.850  0.00  0.00    +0.000 HD
ENDBRANCH  49  52
ENDBRANCH  46  49
ENDBRANCH  44  46
ENDBRANCH  41  44
ENDBRANCH  38  41
ENDBRANCH  18  38
BRANCH   1  54
ATOM     54  O   UNL     1      -9.408  -8.328  15.757  0.00  0.00    +0.000 OA
BRANCH  54  55
ATOM     55  C   UNL     1     -10.344  -9.356  16.064  0.00  0.00    +0.000 C 
ATOM     56  H   UNL     1     -10.186  -9.657  17.104  0.00  0.00    +0.000 HD
ATOM     57  H   UNL     1     -10.191 -10.242  15.438  0.00  0.00    +0.000 HD
ATOM     58  H   UNL     1     -11.370  -8.983  15.975  0.00  0.00    +0.000 HD
ENDBRANCH  54  55
ENDBRANCH   1  54
TORSDOF 9
ENDMDL
MODEL 5
REMARK VINA RESULT:    -7.664      2.252      3.765
REMARK INTER + INTRA:         -11.511
REMARK INTER:                 -10.748
REMARK INTRA:                  -0.763
REMARK UNBOUND:                -0.487
REMARK  Name = 
REMARK  9 active torsions:
REMARK  status: ('A' for Active; 'I' for Inactive)
REMARK    1  A    between atoms: C_1  and  O_2
REMARK    2  A    between atoms: O_2  and  C_3
REMARK    3  A    between atoms: N_17  and  C_18
REMARK    4  A    between atoms: N_21  and  C_22
REMARK    5  A    between atoms: C_22  and  C_23
REMARK    6  A    between atoms: C_23  and  N_24
REMARK    7  A    between atoms: N_24  and  C_25
REMARK    8  A    between atoms: C_25  and  C_26
REMARK    9  A    between atoms: C_26  and  O_27
REMARK                            x       y       z     vdW  Elec       q    Type
REMARK                         _______ _______ _______ _____ _____    ______ ____
ROOT
ATOM      1  C   UNL     1      -8.880  -8.486  18.594  0.00  0.00    +0.000 A 
ATOM      2  C   UNL     1      -8.097  -7.923  19.595  0.00  0.00    +0.000 A 
ATOM      3  C   UNL     1      -8.217  -6.566  19.917  0.00  0.00    +0.000 A 
ATOM      4  C   UNL     1      -9.131  -5.750  19.210  0.00  0.00    +0.000 A 
ATOM      5  C   UNL     1      -9.601  -4.440  19.257  0.00  0.00    +0.000 A 
ATOM      6  C   UNL     1      -9.049  -3.473  20.114  0.00  0.00    +0.000 A 
ATOM      7  C   UNL     1      -9.728  -2.245  20.171  0.00  0.00    +0.000 A 
ATOM      8  C   UNL     1     -10.596  -1.809  19.168  0.00  0.00    +0.000 A 
ATOM      9  C   UNL     1     -10.998  -2.748  18.183  0.00  0.00    +0.000 A 
ATOM     10  C   UNL     1     -11.543  -2.279  16.975  0.00  0.00    +0.000 A 
ATOM     11  C   UNL     1     -11.165  -1.005  16.528  0.00  0.00    +0.000 A 
ATOM     12  C   UNL     1     -10.408  -0.251  17.421  0.00  0.00    +0.000 A 
ATOM     13  C   UNL     1      -9.038   0.231  17.427  0.00  0.00    +0.000 A 
ATOM     14  C   UNL     1      -8.793   0.727  18.699  0.00  0.00    +0.000 A 
ATOM     15  N   UNL     1     -10.072   0.751  19.247  0.00  0.00    +0.000 N 
ATOM     16  C   UNL     1     -10.639  -0.435  18.794  0.00  0.00    +0.000 A 
ATOM     17  C   UNL     1     -10.565  -4.098  18.321  0.00  0.00    +0.000 A 
ATOM     18  N   UNL     1     -10.660  -5.298  17.592  0.00  0.00    +0.000 N 
ATOM     19  C   UNL     1      -9.880  -6.314  18.172  0.00  0.00    +0.000 A 
ATOM     20  C   UNL     1      -9.760  -7.685  17.859  0.00  0.00    +0.000 A 
ATOM     21  C   UNL     1      -9.081  -1.451  21.172  0.00  0.00    +0.000 C 
ATOM     22  O   UNL     1      -9.429  -0.478  21.828  0.00  0.00    +0.000 OA
ATOM     23  N   UNL     1      -7.880  -2.076  21.336  0.00  0.00    +0.000 N 
ATOM     24  C   UNL     1      -7.796  -3.332  20.782  0.00  0.00    +0.000 C 
ATOM     25  O   UNL     1      -6.754  -3.974  20.781  0.00  0.00    +0.000 OA
ATOM     26  H   UNL     1      -7.388  -8.510  20.169  0.00  0.00    +0.000 HD
ATOM     27  H   UNL     1      -7.610  -6.170  20.722  0.00  0.00    +0.000 HD
ATOM     28  H   UNL     1     -12.010  -2.931  16.248  0.00  0.00    +0.000 HD
ATOM     29  H   UNL     1     -11.227  -0.753  15.476  0.00  0.00    +0.000 HD
ATOM     30  H   UNL     1      -8.297   0.084  16.657  0.00  0.00    +0.000 HD
ATOM     31  H   UNL     1      -7.940   1.158  19.208  0.00  0.00    +0.000 HD
ATOM     32  H   UNL     1     -10.346  -8.132  17.064  0.00  0.00    +0.000 HD
ATOM     33  H   UNL     1      -7.053  -1.510  21.256  0.00  0.00    +0.000 HD
ENDROOT
BRANCH  15  34
ATOM     34  C   UNL     1     -10.781   2.036  19.219  0.00  0.00    +0.000 C 
ATOM     35  H   UNL     1     -10.951   2.337  18.183  0.00  0.00    +0.000 HD
ATOM     36  H   UNL     1     -10.206   2.781  19.769  0.00  0.00    +0.000 HD
ATOM     37  H   UNL     1     -11.750   1.886  19.716  0.00  0.00    +0.000 HD
ENDBRANCH  15  34
BRANCH  18  38
ATOM     38  C   UNL     1     -11.524  -5.523  16.434  0.00  0.00    +0.000 C 
ATOM     39  H   UNL     1     -12.391  -4.859  16.558  0.00  0.00    +0.000 HD
ATOM     40  H   UNL     1     -11.930  -6.536  16.499  0.00  0.00    +0.000 HD
BRANCH  38  41
ATOM     41  C   UNL     1     -10.857  -5.316  15.063  0.00  0.00    +0.000 C 
ATOM     42  H   UNL     1     -10.513  -6.273  14.662  0.00  0.00    +0.000 HD
ATOM     43  H   UNL     1      -9.973  -4.693  15.237  0.00  0.00    +0.000 HD
BRANCH  41  44
ATOM     44  N   UNL     1     -11.680  -4.667  14.028  0.00  0.00    +0.000 NA
ATOM     45  H   UNL     1     -12.331  -4.016  14.467  0.00  0.00    +0.000 HD
BRANCH  44  46
ATOM     46  C   UNL     1     -10.813  -3.911  13.099  0.00  0.00    +0.000 C 
ATOM     47  H   UNL     1     -11.398  -3.159  12.557  0.00  0.00    +0.000 HD
ATOM     48  H   UNL     1     -10.382  -4.606  12.368  0.00  0.00    +0.000 HD
BRANCH  46  49
ATOM     49  C   UNL     1      -9.668  -3.201  13.828  0.00  0.00    +0.000 C 
ATOM     50  H   UNL     1      -9.737  -3.331  14.914  0.00  0.00    +0.000 HD
ATOM     51  H   UNL     1      -9.701  -2.126  13.616  0.00  0.00    +0.000 HD
BRANCH  49  52
ATOM     52  O   UNL     1      -8.409  -3.699  13.385  0.00  0.00    +0.000 OA
ATOM     53  H   UNL     1      -7.904  -3.889  14.190  0.00  0.00    +0.000 HD
ENDBRANCH  49  52
ENDBRANCH  46  49
ENDBRANCH  44  46
ENDBRANCH  41  44
ENDBRANCH  38  41
ENDBRANCH  18  38
BRANCH   1  54
ATOM     54  O   UNL     1      -8.876  -9.807  18.235  0.00  0.00    +0.000 OA
BRANCH  54  55
ATOM     55  C   UNL     1      -9.593 -10.155  17.056  0.00  0.00    +0.000 C 
ATOM     56  H   UNL     1      -9.068 -10.986  16.574  0.00  0.00    +0.000 HD
ATOM     57  H   UNL     1      -9.621  -9.325  16.340  0.00  0.00    +0.000 HD
ATOM     58  H   UNL     1     -10.604 -10.497  17.305  0.00  0.00    +0.000 HD
ENDBRANCH  54  55
ENDBRANCH   1  54
TORSDOF 9
ENDMDL
MODEL 6
REMARK VINA RESULT:    -7.609      2.715      5.479
REMARK INTER + INTRA:         -11.433
REMARK INTER:                 -11.236
REMARK INTRA:                  -0.197
REMARK UNBOUND:                -0.487
REMARK  Name = 
REMARK  9 active torsions:
REMARK  status: ('A' for Active; 'I' for Inactive)
REMARK    1  A    between atoms: C_1  and  O_2
REMARK    2  A    between atoms: O_2  and  C_3
REMARK    3  A    between atoms: N_17  and  C_18
REMARK    4  A    between atoms: N_21  and  C_22
REMARK    5  A    between atoms: C_22  and  C_23
REMARK    6  A    between atoms: C_23  and  N_24
REMARK    7  A    between atoms: N_24  and  C_25
REMARK    8  A    between atoms: C_25  and  C_26
REMARK    9  A    between atoms: C_26  and  O_27
REMARK                            x       y       z     vdW  Elec       q    Type
REMARK                         _______ _______ _______ _____ _____    ______ ____
ROOT
ATOM      1  C   UNL     1      -9.413  -6.910  16.122  0.00  0.00    +0.000 A 
ATOM      2  C   UNL     1     -10.342  -5.899  15.909  0.00  0.00    +0.000 A 
ATOM      3  C   UNL     1     -10.417  -4.803  16.778  0.00  0.00    +0.000 A 
ATOM      4  C   UNL     1      -9.552  -4.727  17.894  0.00  0.00    +0.000 A 
ATOM      5  C   UNL     1      -9.251  -3.824  18.912  0.00  0.00    +0.000 A 
ATOM      6  C   UNL     1      -9.989  -2.647  19.115  0.00  0.00    +0.000 A 
ATOM      7  C   UNL     1      -9.472  -1.757  20.070  0.00  0.00    +0.000 A 
ATOM      8  C   UNL     1      -8.580  -2.149  21.071  0.00  0.00    +0.000 A 
ATOM      9  C   UNL     1      -7.983  -3.432  20.963  0.00  0.00    +0.000 A 
ATOM     10  C   UNL     1      -7.397  -4.010  22.102  0.00  0.00    +0.000 A 
ATOM     11  C   UNL     1      -7.888  -3.636  23.361  0.00  0.00    +0.000 A 
ATOM     12  C   UNL     1      -8.806  -2.590  23.366  0.00  0.00    +0.000 A 
ATOM     13  C   UNL     1     -10.219  -2.488  23.682  0.00  0.00    +0.000 A 
ATOM     14  C   UNL     1     -10.632  -1.228  23.272  0.00  0.00    +0.000 A 
ATOM     15  N   UNL     1      -9.417  -0.603  23.006  0.00  0.00    +0.000 N 
ATOM     16  C   UNL     1      -8.673  -1.597  22.381  0.00  0.00    +0.000 A 
ATOM     17  C   UNL     1      -8.258  -4.208  19.801  0.00  0.00    +0.000 A 
ATOM     18  N   UNL     1      -7.955  -5.494  19.316  0.00  0.00    +0.000 N 
ATOM     19  C   UNL     1      -8.652  -5.772  18.127  0.00  0.00    +0.000 A 
ATOM     20  C   UNL     1      -8.577  -6.869  17.241  0.00  0.00    +0.000 A 
ATOM     21  C   UNL     1     -10.295  -0.585  20.044  0.00  0.00    +0.000 C 
ATOM     22  O   UNL     1     -10.127   0.569  20.416  0.00  0.00    +0.000 OA
ATOM     23  N   UNL     1     -11.420  -1.009  19.403  0.00  0.00    +0.000 N 
ATOM     24  C   UNL     1     -11.303  -2.219  18.758  0.00  0.00    +0.000 C 
ATOM     25  O   UNL     1     -12.255  -2.760  18.212  0.00  0.00    +0.000 OA
ATOM     26  H   UNL     1     -11.022  -5.910  15.063  0.00  0.00    +0.000 HD
ATOM     27  H   UNL     1     -11.135  -4.022  16.563  0.00  0.00    +0.000 HD
ATOM     28  H   UNL     1      -6.793  -4.908  22.061  0.00  0.00    +0.000 HD
ATOM     29  H   UNL     1      -7.766  -4.295  24.213  0.00  0.00    +0.000 HD
ATOM     30  H   UNL     1     -10.867  -3.284  24.013  0.00  0.00    +0.000 HD
ATOM     31  H   UNL     1     -11.572  -0.692  23.258  0.00  0.00    +0.000 HD
ATOM     32  H   UNL     1      -7.874  -7.677  17.410  0.00  0.00    +0.000 HD
ATOM     33  H   UNL     1     -12.300  -0.846  19.861  0.00  0.00    +0.000 HD
ENDROOT
BRANCH  15  34
ATOM     34  C   UNL     1      -8.871   0.260  24.060  0.00  0.00    +0.000 C 
ATOM     35  H   UNL     1      -7.921  -0.149  24.410  0.00  0.00    +0.000 HD
ATOM     36  H   UNL     1      -9.597   0.352  24.868  0.00  0.00    +0.000 HD
ATOM     37  H   UNL     1      -8.697   1.249  23.614  0.00  0.00    +0.000 HD
ENDBRANCH  15  34
BRANCH  18  38
ATOM     38  C   UNL     1      -6.973  -6.411  19.894  0.00  0.00    +0.000 C 
ATOM     39  H   UNL     1      -6.770  -6.048  20.912  0.00  0.00    +0.000 HD
ATOM     40  H   UNL     1      -6.030  -6.289  19.355  0.00  0.00    +0.000 HD
BRANCH  38  41
ATOM     41  C   UNL     1      -7.382  -7.895  19.904  0.00  0.00    +0.000 C 
ATOM     42  H   UNL     1      -6.565  -8.508  20.295  0.00  0.00    +0.000 HD
ATOM     43  H   UNL     1      -7.541  -8.182  18.860  0.00  0.00    +0.000 HD
BRANCH  41  44
ATOM     44  N   UNL     1      -8.598  -8.232  20.665  0.00  0.00    +0.000 NA
ATOM     45  H   UNL     1      -9.381  -7.677  20.320  0.00  0.00    +0.000 HD
BRANCH  44  46
ATOM     46  C   UNL     1      -8.919  -9.663  20.486  0.00  0.00    +0.000 C 
ATOM     47  H   UNL     1      -9.982  -9.843  20.683  0.00  0.00    +0.000 HD
ATOM     48  H   UNL     1      -8.331 -10.252  21.200  0.00  0.00    +0.000 HD
BRANCH  46  49
ATOM     49  C   UNL     1      -8.600 -10.154  19.070  0.00  0.00    +0.000 C 
ATOM     50  H   UNL     1      -7.616  -9.808  18.735  0.00  0.00    +0.000 HD
ATOM     51  H   UNL     1      -9.349  -9.773  18.366  0.00  0.00    +0.000 HD
BRANCH  49  52
ATOM     52  O   UNL     1      -8.628 -11.577  19.018  0.00  0.00    +0.000 OA
ATOM     53  H   UNL     1      -7.805 -11.840  18.578  0.00  0.00    +0.000 HD
ENDBRANCH  49  52
ENDBRANCH  46  49
ENDBRANCH  44  46
ENDBRANCH  41  44
ENDBRANCH  38  41
ENDBRANCH  18  38
BRANCH   1  54
ATOM     54  O   UNL     1      -9.225  -7.995  15.308  0.00  0.00    +0.000 OA
BRANCH  54  55
ATOM     55  C   UNL     1      -9.887  -9.199  15.681  0.00  0.00    +0.000 C 
ATOM     56  H   UNL     1     -10.623  -9.434  14.905  0.00  0.00    +0.000 HD
ATOM     57  H   UNL     1     -10.430  -9.086  16.626  0.00  0.00    +0.000 HD
ATOM     58  H   UNL     1      -9.176 -10.031  15.731  0.00  0.00    +0.000 HD
ENDBRANCH  54  55
ENDBRANCH   1  54
TORSDOF 9
ENDMDL
MODEL 7
REMARK VINA RESULT:    -7.484      3.598      7.207
REMARK INTER + INTRA:         -11.252
REMARK INTER:                 -10.462
REMARK INTRA:                  -0.790
REMARK UNBOUND:                -0.487
REMARK  Name = 
REMARK  9 active torsions:
REMARK  status: ('A' for Active; 'I' for Inactive)
REMARK    1  A    between atoms: C_1  and  O_2
REMARK    2  A    between atoms: O_2  and  C_3
REMARK    3  A    between atoms: N_17  and  C_18
REMARK    4  A    between atoms: N_21  and  C_22
REMARK    5  A    between atoms: C_22  and  C_23
REMARK    6  A    between atoms: C_23  and  N_24
REMARK    7  A    between atoms: N_24  and  C_25
REMARK    8  A    between atoms: C_25  and  C_26
REMARK    9  A    between atoms: C_26  and  O_27
REMARK                            x       y       z     vdW  Elec       q    Type
REMARK                         _______ _______ _______ _____ _____    ______ ____
ROOT
ATOM      1  C   UNL     1      -8.226  -6.448  19.602  0.00  0.00    +0.000 A 
ATOM      2  C   UNL     1      -9.072  -6.144  18.542  0.00  0.00    +0.000 A 
ATOM      3  C   UNL     1      -9.602  -4.857  18.398  0.00  0.00    +0.000 A 
ATOM      4  C   UNL     1      -9.290  -3.854  19.346  0.00  0.00    +0.000 A 
ATOM      5  C   UNL     1      -9.524  -2.493  19.529  0.00  0.00    +0.000 A 
ATOM      6  C   UNL     1     -10.385  -1.759  18.697  0.00  0.00    +0.000 A 
ATOM      7  C   UNL     1     -10.397  -0.370  18.900  0.00  0.00    +0.000 A 
ATOM      8  C   UNL     1      -9.969   0.229  20.087  0.00  0.00    +0.000 A 
ATOM      9  C   UNL     1      -9.265  -0.576  21.021  0.00  0.00    +0.000 A 
ATOM     10  C   UNL     1      -9.154  -0.138  22.352  0.00  0.00    +0.000 A 
ATOM     11  C   UNL     1     -10.156   0.701  22.858  0.00  0.00    +0.000 A 
ATOM     12  C   UNL     1     -11.085   1.162  21.930  0.00  0.00    +0.000 A 
ATOM     13  C   UNL     1     -12.505   0.937  21.726  0.00  0.00    +0.000 A 
ATOM     14  C   UNL     1     -12.825   1.486  20.493  0.00  0.00    +0.000 A 
ATOM     15  N   UNL     1     -11.673   2.208  20.195  0.00  0.00    +0.000 N 
ATOM     16  C   UNL     1     -10.648   1.367  20.611  0.00  0.00    +0.000 A 
ATOM     17  C   UNL     1      -8.959  -1.919  20.658  0.00  0.00    +0.000 A 
ATOM     18  N   UNL     1      -8.364  -3.045  21.256  0.00  0.00    +0.000 N 
ATOM     19  C   UNL     1      -8.476  -4.182  20.435  0.00  0.00    +0.000 A 
ATOM     20  C   UNL     1      -7.938  -5.480  20.568  0.00  0.00    +0.000 A 
ATOM     21  C   UNL     1     -11.239   0.197  17.891  0.00  0.00    +0.000 C 
ATOM     22  O   UNL     1     -11.347   1.322  17.421  0.00  0.00    +0.000 OA
ATOM     23  N   UNL     1     -11.951  -0.875  17.442  0.00  0.00    +0.000 N 
ATOM     24  C   UNL     1     -11.465  -2.102  17.830  0.00  0.00    +0.000 C 
ATOM     25  O   UNL     1     -12.050  -3.145  17.570  0.00  0.00    +0.000 OA
ATOM     26  H   UNL     1      -9.334  -6.878  17.787  0.00  0.00    +0.000 HD
ATOM     27  H   UNL     1     -10.235  -4.651  17.544  0.00  0.00    +0.000 HD
ATOM     28  H   UNL     1      -8.508  -0.617  23.077  0.00  0.00    +0.000 HD
ATOM     29  H   UNL     1     -10.339   0.754  23.926  0.00  0.00    +0.000 HD
ATOM     30  H   UNL     1     -13.155   0.320  22.326  0.00  0.00    +0.000 HD
ATOM     31  H   UNL     1     -13.719   1.551  19.886  0.00  0.00    +0.000 HD
ATOM     32  H   UNL     1      -7.297  -5.737  21.404  0.00  0.00    +0.000 HD
ATOM     33  H   UNL     1     -12.953  -0.789  17.431  0.00  0.00    +0.000 HD
ENDROOT
BRANCH  15  34
ATOM     34  C   UNL     1     -11.696   3.645  20.493  0.00  0.00    +0.000 C 
ATOM     35  H   UNL     1     -11.482   4.209  19.582  0.00  0.00    +0.000 HD
ATOM     36  H   UNL     1     -10.981   3.865  21.285  0.00  0.00    +0.000 HD
ATOM     37  H   UNL     1     -12.710   3.890  20.840  0.00  0.00    +0.000 HD
ENDBRANCH  15  34
BRANCH  18  38
ATOM     38  C   UNL     1      -7.631  -3.049  22.522  0.00  0.00    +0.000 C 
ATOM     39  H   UNL     1      -7.224  -2.036  22.648  0.00  0.00    +0.000 HD
ATOM     40  H   UNL     1      -6.757  -3.696  22.411  0.00  0.00    +0.000 HD
BRANCH  38  41
ATOM     41  C   UNL     1      -8.446  -3.479  23.755  0.00  0.00    +0.000 C 
ATOM     42  H   UNL     1      -8.028  -3.027  24.658  0.00  0.00    +0.000 HD
ATOM     43  H   UNL     1      -8.328  -4.564  23.844  0.00  0.00    +0.000 HD
BRANCH  41  44
ATOM     44  N   UNL     1      -9.886  -3.172  23.725  0.00  0.00    +0.000 NA
ATOM     45  H   UNL     1     -10.417  -4.036  23.614  0.00  0.00    +0.000 HD
BRANCH  44  46
ATOM     46  C   UNL     1     -10.288  -2.533  24.996  0.00  0.00    +0.000 C 
ATOM     47  H   UNL     1     -10.693  -3.281  25.688  0.00  0.00    +0.000 HD
ATOM     48  H   UNL     1     -11.072  -1.793  24.790  0.00  0.00    +0.000 HD
BRANCH  46  49
ATOM     49  C   UNL     1      -9.116  -1.823  25.681  0.00  0.00    +0.000 C 
ATOM     50  H   UNL     1      -9.158  -0.739  25.533  0.00  0.00    +0.000 HD
ATOM     51  H   UNL     1      -8.168  -2.183  25.265  0.00  0.00    +0.000 HD
BRANCH  49  52
ATOM     52  O   UNL     1      -9.116  -2.096  27.079  0.00  0.00    +0.000 OA
ATOM     53  H   UNL     1      -9.943  -2.572  27.253  0.00  0.00    +0.000 HD
ENDBRANCH  49  52
ENDBRANCH  46  49
ENDBRANCH  44  46
ENDBRANCH  41  44
ENDBRANCH  38  41
ENDBRANCH  18  38
BRANCH   1  54
ATOM     54  O   UNL     1      -7.617  -7.657  19.806  0.00  0.00    +0.000 OA
BRANCH  54  55
ATOM     55  C   UNL     1      -8.452  -8.735  20.216  0.00  0.00    +0.000 C 
ATOM     56  H   UNL     1      -8.308  -8.886  21.291  0.00  0.00    +0.000 HD
ATOM     57  H   UNL     1      -8.180  -9.671  19.714  0.00  0.00    +0.000 HD
ATOM     58  H   UNL     1      -9.507  -8.492  20.051  0.00  0.00    +0.000 HD
ENDBRANCH  54  55
ENDBRANCH   1  54
TORSDOF 9
ENDMDL
MODEL 8
REMARK VINA RESULT:    -7.272      1.961      2.755
REMARK INTER + INTRA:         -10.948
REMARK INTER:                 -10.558
REMARK INTRA:                  -0.390
REMARK UNBOUND:                -0.487
REMARK  Name = 
REMARK  9 active torsions:
REMARK  status: ('A' for Active; 'I' for Inactive)
REMARK    1  A    between atoms: C_1  and  O_2
REMARK    2  A    between atoms: O_2  and  C_3
REMARK    3  A    between atoms: N_17  and  C_18
REMARK    4  A    between atoms: N_21  and  C_22
REMARK    5  A    between atoms: C_22  and  C_23
REMARK    6  A    between atoms: C_23  and  N_24
REMARK    7  A    between atoms: N_24  and  C_25
REMARK    8  A    between atoms: C_25  and  C_26
REMARK    9  A    between atoms: C_26  and  O_27
REMARK                            x       y       z     vdW  Elec       q    Type
REMARK                         _______ _______ _______ _____ _____    ______ ____
ROOT
ATOM      1  C   UNL     1      -8.225  -6.157  19.719  0.00  0.00    +0.000 A 
ATOM      2  C   UNL     1      -8.193  -4.874  20.252  0.00  0.00    +0.000 A 
ATOM      3  C   UNL     1      -8.886  -3.826  19.635  0.00  0.00    +0.000 A 
ATOM      4  C   UNL     1      -9.616  -4.065  18.448  0.00  0.00    +0.000 A 
ATOM      5  C   UNL     1     -10.467  -3.364  17.596  0.00  0.00    +0.000 A 
ATOM      6  C   UNL     1     -10.700  -1.986  17.732  0.00  0.00    +0.000 A 
ATOM      7  C   UNL     1     -11.702  -1.449  16.909  0.00  0.00    +0.000 A 
ATOM      8  C   UNL     1     -12.139  -2.071  15.738  0.00  0.00    +0.000 A 
ATOM      9  C   UNL     1     -11.734  -3.412  15.508  0.00  0.00    +0.000 A 
ATOM     10  C   UNL     1     -11.823  -3.937  14.208  0.00  0.00    +0.000 A 
ATOM     11  C   UNL     1     -11.737  -3.049  13.127  0.00  0.00    +0.000 A 
ATOM     12  C   UNL     1     -11.743  -1.696  13.454  0.00  0.00    +0.000 A 
ATOM     13  C   UNL     1     -10.760  -0.630  13.363  0.00  0.00    +0.000 A 
ATOM     14  C   UNL     1     -11.274   0.449  14.066  0.00  0.00    +0.000 A 
ATOM     15  N   UNL     1     -12.590   0.051  14.280  0.00  0.00    +0.000 N 
ATOM     16  C   UNL     1     -12.472  -1.299  14.587  0.00  0.00    +0.000 A 
ATOM     17  C   UNL     1     -10.982  -4.072  16.521  0.00  0.00    +0.000 A 
ATOM     18  N   UNL     1     -10.344  -5.315  16.696  0.00  0.00    +0.000 N 
ATOM     19  C   UNL     1      -9.604  -5.348  17.891  0.00  0.00    +0.000 A 
ATOM     20  C   UNL     1      -8.910  -6.402  18.525  0.00  0.00    +0.000 A 
ATOM     21  C   UNL     1     -11.861  -0.074  17.279  0.00  0.00    +0.000 C 
ATOM     22  O   UNL     1     -12.762   0.740  17.123  0.00  0.00    +0.000 OA
ATOM     23  N   UNL     1     -10.719   0.195  17.973  0.00  0.00    +0.000 N 
ATOM     24  C   UNL     1      -9.989  -0.910  18.345  0.00  0.00    +0.000 C 
ATOM     25  O   UNL     1      -8.902  -0.815  18.900  0.00  0.00    +0.000 OA
ATOM     26  H   UNL     1      -7.653  -4.644  21.165  0.00  0.00    +0.000 HD
ATOM     27  H   UNL     1      -8.859  -2.847  20.096  0.00  0.00    +0.000 HD
ATOM     28  H   UNL     1     -11.679  -4.988  13.987  0.00  0.00    +0.000 HD
ATOM     29  H   UNL     1     -11.416  -3.400  12.153  0.00  0.00    +0.000 HD
ATOM     30  H   UNL     1      -9.757  -0.708  12.974  0.00  0.00    +0.000 HD
ATOM     31  H   UNL     1     -10.924   1.444  14.315  0.00  0.00    +0.000 HD
ATOM     32  H   UNL     1      -8.906  -7.401  18.105  0.00  0.00    +0.000 HD
ATOM     33  H   UNL     1     -10.181   0.992  17.682  0.00  0.00    +0.000 HD
ENDROOT
BRANCH  15  34
ATOM     34  C   UNL     1     -13.599   0.573  13.352  0.00  0.00    +0.000 C 
ATOM     35  H   UNL     1     -14.577   0.570  13.837  0.00  0.00    +0.000 HD
ATOM     36  H   UNL     1     -13.598  -0.023  12.438  0.00  0.00    +0.000 HD
ATOM     37  H   UNL     1     -13.318   1.608  13.110  0.00  0.00    +0.000 HD
ENDBRANCH  15  34
BRANCH  18  38
ATOM     38  C   UNL     1     -10.488  -6.476  15.819  0.00  0.00    +0.000 C 
ATOM     39  H   UNL     1      -9.473  -6.755  15.503  0.00  0.00    +0.000 HD
ATOM     40  H   UNL     1     -10.992  -6.154  14.903  0.00  0.00    +0.000 HD
BRANCH  38  41
ATOM     41  C   UNL     1     -11.231  -7.677  16.429  0.00  0.00    +0.000 C 
ATOM     42  H   UNL     1     -12.282  -7.426  16.594  0.00  0.00    +0.000 HD
ATOM     43  H   UNL     1     -10.778  -7.859  17.409  0.00  0.00    +0.000 HD
BRANCH  41  44
ATOM     44  N   UNL     1     -11.186  -8.932  15.660  0.00  0.00    +0.000 NA
ATOM     45  H   UNL     1     -11.339  -8.733  14.672  0.00  0.00    +0.000 HD
BRANCH  44  46
ATOM     46  C   UNL     1      -9.859  -9.565  15.812  0.00  0.00    +0.000 C 
ATOM     47  H   UNL     1      -9.900 -10.363  16.562  0.00  0.00    +0.000 HD
ATOM     48  H   UNL     1      -9.141  -8.808  16.153  0.00  0.00    +0.000 HD
BRANCH  46  49
ATOM     49  C   UNL     1      -9.350 -10.162  14.497  0.00  0.00    +0.000 C 
ATOM     50  H   UNL     1     -10.040 -10.915  14.100  0.00  0.00    +0.000 HD
ATOM     51  H   UNL     1      -8.380 -10.646  14.658  0.00  0.00    +0.000 HD
BRANCH  49  52
ATOM     52  O   UNL     1      -9.175  -9.140  13.520  0.00  0.00    +0.000 OA
ATOM     53  H   UNL     1      -9.542  -8.334  13.915  0.00  0.00    +0.000 HD
ENDBRANCH  49  52
ENDBRANCH  46  49
ENDBRANCH  44  46
ENDBRANCH  41  44
ENDBRANCH  38  41
ENDBRANCH  18  38
BRANCH   1  54
ATOM     54  O   UNL     1      -7.625  -7.257  20.268  0.00  0.00    +0.000 OA
BRANCH  54  55
ATOM     55  C   UNL     1      -8.364  -8.474  20.240  0.00  0.00    +0.000 C 
ATOM     56  H   UNL     1      -8.528  -8.746  19.192  0.00  0.00    +0.000 HD
ATOM     57  H   UNL     1      -9.349  -8.360  20.707  0.00  0.00    +0.000 HD
ATOM     58  H   UNL     1      -7.795  -9.283  20.710  0.00  0.00    +0.000 HD
ENDBRANCH  54  55
ENDBRANCH   1  54
TORSDOF 9
ENDMDL
MODEL 9
REMARK VINA RESULT:    -7.103      3.286      8.130
REMARK INTER + INTRA:         -10.705
REMARK INTER:                  -9.599
REMARK INTRA:                  -1.106
REMARK UNBOUND:                -0.487
REMARK  Name = 
REMARK  9 active torsions:
REMARK  status: ('A' for Active; 'I' for Inactive)
REMARK    1  A    between atoms: C_1  and  O_2
REMARK    2  A    between atoms: O_2  and  C_3
REMARK    3  A    between atoms: N_17  and  C_18
REMARK    4  A    between atoms: N_21  and  C_22
REMARK    5  A    between atoms: C_22  and  C_23
REMARK    6  A    between atoms: C_23  and  N_24
REMARK    7  A    between atoms: N_24  and  C_25
REMARK    8  A    between atoms: C_25  and  C_26
REMARK    9  A    between atoms: C_26  and  O_27
REMARK                            x       y       z     vdW  Elec       q    Type
REMARK                         _______ _______ _______ _____ _____    ______ ____
ROOT
ATOM      1  C   UNL     1      -9.661   0.976  23.666  0.00  0.00    +0.000 A 
ATOM      2  C   UNL     1      -8.693   0.039  24.005  0.00  0.00    +0.000 A 
ATOM      3  C   UNL     1      -8.416  -1.041  23.158  0.00  0.00    +0.000 A 
ATOM      4  C   UNL     1      -9.135  -1.192  21.950  0.00  0.00    +0.000 A 
ATOM      5  C   UNL     1      -9.125  -2.030  20.837  0.00  0.00    +0.000 A 
ATOM      6  C   UNL     1      -8.312  -3.172  20.761  0.00  0.00    +0.000 A 
ATOM      7  C   UNL     1      -8.286  -3.826  19.520  0.00  0.00    +0.000 A 
ATOM      8  C   UNL     1      -9.289  -3.676  18.560  0.00  0.00    +0.000 A 
ATOM      9  C   UNL     1     -10.235  -2.634  18.745  0.00  0.00    +0.000 A 
ATOM     10  C   UNL     1     -11.449  -2.681  18.039  0.00  0.00    +0.000 A 
ATOM     11  C   UNL     1     -11.946  -3.936  17.658  0.00  0.00    +0.000 A 
ATOM     12  C   UNL     1     -11.092  -5.014  17.871  0.00  0.00    +0.000 A 
ATOM     13  C   UNL     1     -11.124  -6.170  18.751  0.00  0.00    +0.000 A 
ATOM     14  C   UNL     1      -9.874  -6.766  18.675  0.00  0.00    +0.000 A 
ATOM     15  N   UNL     1      -9.307  -6.104  17.590  0.00  0.00    +0.000 N 
ATOM     16  C   UNL     1      -9.710  -4.785  17.771  0.00  0.00    +0.000 A 
ATOM     17  C   UNL     1     -10.057  -1.751  19.848  0.00  0.00    +0.000 A 
ATOM     18  N   UNL     1     -10.743  -0.669  20.432  0.00  0.00    +0.000 N 
ATOM     19  C   UNL     1     -10.141  -0.271  21.639  0.00  0.00    +0.000 A 
ATOM     20  C   UNL     1     -10.408   0.819  22.495  0.00  0.00    +0.000 A 
ATOM     21  C   UNL     1      -7.323  -4.882  19.618  0.00  0.00    +0.000 C 
ATOM     22  O   UNL     1      -6.696  -5.528  18.789  0.00  0.00    +0.000 OA
ATOM     23  N   UNL     1      -7.157  -5.027  20.964  0.00  0.00    +0.000 N 
ATOM     24  C   UNL     1      -7.669  -4.003  21.728  0.00  0.00    +0.000 C 
ATOM     25  O   UNL     1      -7.665  -4.040  22.951  0.00  0.00    +0.000 OA
ATOM     26  H   UNL     1      -8.110   0.118  24.917  0.00  0.00    +0.000 HD
ATOM     27  H   UNL     1      -7.635  -1.734  23.443  0.00  0.00    +0.000 HD
ATOM     28  H   UNL     1     -12.146  -1.853  18.012  0.00  0.00    +0.000 HD
ATOM     29  H   UNL     1     -13.005  -4.072  17.473  0.00  0.00    +0.000 HD
ATOM     30  H   UNL     1     -11.901  -6.424  19.455  0.00  0.00    +0.000 HD
ATOM     31  H   UNL     1      -9.394  -7.613  19.149  0.00  0.00    +0.000 HD
ATOM     32  H   UNL     1     -11.178   1.544  22.255  0.00  0.00    +0.000 HD
ATOM     33  H   UNL     1      -7.270  -5.950  21.344  0.00  0.00    +0.000 HD
ENDROOT
BRANCH  15  34
ATOM     34  C   UNL     1      -9.367  -6.786  16.293  0.00  0.00    +0.000 C 
ATOM     35  H   UNL     1      -9.397  -6.044  15.492  0.00  0.00    +0.000 HD
ATOM     36  H   UNL     1     -10.235  -7.446  16.268  0.00  0.00    +0.000 HD
ATOM     37  H   UNL     1      -8.452  -7.387  16.197  0.00  0.00    +0.000 HD
ENDBRANCH  15  34
BRANCH  18  38
ATOM     38  C   UNL     1     -11.879   0.037  19.841  0.00  0.00    +0.000 C 
ATOM     39  H   UNL     1     -12.496   0.391  20.679  0.00  0.00    +0.000 HD
ATOM     40  H   UNL     1     -12.503  -0.694  19.318  0.00  0.00    +0.000 HD
BRANCH  38  41
ATOM     41  C   UNL     1     -11.517   1.191  18.890  0.00  0.00    +0.000 C 
ATOM     42  H   UNL     1     -10.606   1.690  19.232  0.00  0.00    +0.000 HD
ATOM     43  H   UNL     1     -12.335   1.916  18.954  0.00  0.00    +0.000 HD
BRANCH  41  44
ATOM     44  N   UNL     1     -11.328   0.835  17.474  0.00  0.00    +0.000 NA
ATOM     45  H   UNL     1     -11.850   1.484  16.885  0.00  0.00    +0.000 HD
BRANCH  44  46
ATOM     46  C   UNL     1      -9.895   0.929  17.121  0.00  0.00    +0.000 C 
ATOM     47  H   UNL     1      -9.774   1.389  16.134  0.00  0.00    +0.000 HD
ATOM     48  H   UNL     1      -9.470  -0.082  17.085  0.00  0.00    +0.000 HD
BRANCH  46  49
ATOM     49  C   UNL     1      -9.103   1.753  18.141  0.00  0.00    +0.000 C 
ATOM     50  H   UNL     1      -9.756   2.187  18.906  0.00  0.00    +0.000 HD
ATOM     51  H   UNL     1      -8.587   2.576  17.633  0.00  0.00    +0.000 HD
BRANCH  49  52
ATOM     52  O   UNL     1      -8.120   0.944  18.781  0.00  0.00    +0.000 OA
ATOM     53  H   UNL     1      -7.335   0.987  18.214  0.00  0.00    +0.000 HD
ENDBRANCH  49  52
ENDBRANCH  46  49
ENDBRANCH  44  46
ENDBRANCH  41  44
ENDBRANCH  38  41
ENDBRANCH  18  38
BRANCH   1  54
ATOM     54  O   UNL     1      -9.974   2.090  24.398  0.00  0.00    +0.000 OA
BRANCH  54  55
ATOM     55  C   UNL     1      -9.178   2.347  25.549  0.00  0.00    +0.000 C 
ATOM     56  H   UNL     1      -9.058   1.405  26.094  0.00  0.00    +0.000 HD
ATOM     57  H   UNL     1      -9.663   3.058  26.226  0.00  0.00    +0.000 HD
ATOM     58  H   UNL     1      -8.180   2.695  25.260  0.00  0.00    +0.000 HD
ENDBRANCH  54  55
ENDBRANCH   1  54
TORSDOF 9
ENDMDL
