
 OpenBabel01112422353D

 64 70  0  0  0  0  0  0  0  0999 V2000
    1.5874   -0.0929    0.6317 C   0  0  0  0  0  0  0  0  0  0  0  0
    2.3359   -0.8379   -0.3570 N   0  0  0  0  0  0  0  0  0  0  0  0
    1.6095   -1.5099   -1.3681 C   0  0  0  0  0  0  0  0  0  0  0  0
    2.6111   -1.7917   -2.2809 C   0  0  0  0  0  0  0  0  0  0  0  0
    3.5385   -2.3663   -1.3647 C   0  0  0  0  0  0  0  0  0  0  0  0
    4.2694   -3.5591   -1.3863 C   0  0  0  0  0  0  0  0  0  0  0  0
    4.9797   -3.9133   -0.2447 C   0  0  0  0  0  0  0  0  0  0  0  0
    5.0974   -3.0086    0.8203 C   0  0  0  0  0  0  0  0  0  0  0  0
    5.8586   -3.3434    1.9538 C   0  0  0  0  0  0  0  0  0  0  0  0
    6.7369   -4.3710    2.1748 N   0  0  0  0  0  0  0  0  0  0  0  0
    7.6213   -4.0355    3.1851 C   0  0  0  0  0  0  0  0  0  0  0  0
    8.8419   -4.6577    3.5021 C   0  0  0  0  0  0  0  0  0  0  0  0
    9.3284   -5.8712    2.7314 C   0  0  0  0  0  0  0  0  0  0  0  0
   10.1811   -6.8604    3.5364 C   0  0  0  0  0  0  0  0  0  0  0  0
   10.5939   -8.1037    2.8292 N   0  0  0  0  0  0  0  0  0  0  0  0
   11.3870   -8.9080    3.7501 C   0  0  0  0  0  0  0  0  0  0  0  0
   11.8483  -10.2197    3.1261 C   0  0  0  0  0  0  0  0  0  0  0  0
   10.6610  -11.0471    2.6214 C   0  0  0  0  0  0  0  0  0  0  0  0
    9.8102  -11.6096    3.7585 C   0  0  0  0  0  0  0  0  0  0  0  0
   10.4692  -12.4047    4.6480 N   0  0  0  0  0  0  0  0  0  0  0  0
    8.6071  -11.4147    3.8898 O   0  0  0  0  0  0  0  0  0  0  0  0
    9.8300  -10.1844    1.6744 C   0  0  0  0  0  0  0  0  0  0  0  0
    9.4247   -8.8492    2.3073 C   0  0  0  0  0  0  0  0  0  0  0  0
    9.6007   -4.0289    4.4987 C   0  0  0  0  0  0  0  0  0  0  0  0
    9.1304   -2.9103    5.1821 C   0  0  0  0  0  0  0  0  0  0  0  0
    7.8869   -2.3514    4.8760 C   0  0  0  0  0  0  0  0  0  0  0  0
    7.1192   -2.8960    3.8325 C   0  0  0  0  0  0  0  0  0  0  0  0
    5.9680   -2.5769    3.0862 C   0  0  0  0  0  0  0  0  0  0  0  0
    5.4206   -1.2560    3.0869 C   0  0  0  0  0  0  0  0  0  0  0  0
    5.0149   -0.8520    1.7804 C   0  0  0  0  0  0  0  0  0  0  0  0
    4.5223   -1.7138    0.7910 C   0  0  0  0  0  0  0  0  0  0  0  0
    3.5525   -1.5236   -0.2267 C   0  0  0  0  0  0  0  0  0  0  0  0
    5.9585    0.2563    1.5598 C   0  0  0  0  0  0  0  0  0  0  0  0
    6.6414    0.5652    0.5844 O   0  0  0  0  0  0  0  0  0  0  0  0
    6.2486    0.7171    2.8277 N   0  0  0  0  0  0  0  0  0  0  0  0
    5.8674   -0.1178    3.8344 C   0  0  0  0  0  0  0  0  0  0  0  0
    5.9467    0.1299    5.0222 O   0  0  0  0  0  0  0  0  0  0  0  0
    2.0595    0.8784    0.7656 H   0  0  0  0  0  0  0  0  0  0  0  0
    1.5184   -0.6689    1.5548 H   0  0  0  0  0  0  0  0  0  0  0  0
    0.5726    0.0633    0.2361 H   0  0  0  0  0  0  0  0  0  0  0  0
    0.8376   -2.1821   -0.9928 H   0  0  0  0  0  0  0  0  0  0  0  0
    2.9405   -0.9760   -2.9265 H   0  0  0  0  0  0  0  0  0  0  0  0
    4.1757   -4.2452   -2.2207 H   0  0  0  0  0  0  0  0  0  0  0  0
    5.4340   -4.8962   -0.2115 H   0  0  0  0  0  0  0  0  0  0  0  0
    6.9088   -5.0991    1.4972 H   0  0  0  0  0  0  0  0  0  0  0  0
    9.8735   -5.5300    1.8424 H   0  0  0  0  0  0  0  0  0  0  0  0
    8.4351   -6.3985    2.3781 H   0  0  0  0  0  0  0  0  0  0  0  0
    9.6463   -7.1160    4.4611 H   0  0  0  0  0  0  0  0  0  0  0  0
   11.1039   -6.3425    3.8331 H   0  0  0  0  0  0  0  0  0  0  0  0
   10.8296   -9.1189    4.6745 H   0  0  0  0  0  0  0  0  0  0  0  0
   12.2881   -8.3483    4.0436 H   0  0  0  0  0  0  0  0  0  0  0  0
   12.4399  -10.7826    3.8540 H   0  0  0  0  0  0  0  0  0  0  0  0
   12.5247  -10.0147    2.2884 H   0  0  0  0  0  0  0  0  0  0  0  0
   11.0376  -11.9141    2.0624 H   0  0  0  0  0  0  0  0  0  0  0  0
   11.3892  -12.7788    4.4653 H   0  0  0  0  0  0  0  0  0  0  0  0
    9.9076  -12.8474    5.3653 H   0  0  0  0  0  0  0  0  0  0  0  0
    8.9275  -10.7166    1.3533 H   0  0  0  0  0  0  0  0  0  0  0  0
   10.4144   -9.9833    0.7664 H   0  0  0  0  0  0  0  0  0  0  0  0
    8.6888   -9.0068    3.1008 H   0  0  0  0  0  0  0  0  0  0  0  0
    8.9350   -8.2705    1.5210 H   0  0  0  0  0  0  0  0  0  0  0  0
   10.5870   -4.4019    4.7603 H   0  0  0  0  0  0  0  0  0  0  0  0
    9.7461   -2.4522    5.9534 H   0  0  0  0  0  0  0  0  0  0  0  0
    7.5736   -1.4731    5.4289 H   0  0  0  0  0  0  0  0  0  0  0  0
    7.0618    1.2952    2.9922 H   0  0  0  0  0  0  0  0  0  0  0  0
  1  2  1  0  0  0  0
  1 38  1  0  0  0  0
  1 39  1  0  0  0  0
  1 40  1  0  0  0  0
  2  3  1  0  0  0  0
  2 32  1  0  0  0  0
  3  4  2  0  0  0  0
  3 41  1  0  0  0  0
  4  5  1  0  0  0  0
  4 42  1  0  0  0  0
  5  6  1  0  0  0  0
  5 32  2  0  0  0  0
  6  7  2  0  0  0  0
  6 43  1  0  0  0  0
  7  8  1  0  0  0  0
  7 44  1  0  0  0  0
  8  9  1  0  0  0  0
  8 31  2  0  0  0  0
  9 10  1  0  0  0  0
  9 28  2  0  0  0  0
 10 11  1  0  0  0  0
 10 45  1  0  0  0  0
 11 12  1  0  0  0  0
 11 27  2  0  0  0  0
 12 13  1  0  0  0  0
 12 24  2  0  0  0  0
 13 14  1  0  0  0  0
 13 46  1  0  0  0  0
 13 47  1  0  0  0  0
 14 15  1  0  0  0  0
 14 48  1  0  0  0  0
 14 49  1  0  0  0  0
 15 16  1  0  0  0  0
 15 23  1  0  0  0  0
 16 17  1  0  0  0  0
 16 50  1  0  0  0  0
 16 51  1  0  0  0  0
 17 18  1  0  0  0  0
 17 52  1  0  0  0  0
 17 53  1  0  0  0  0
 18 19  1  0  0  0  0
 18 22  1  0  0  0  0
 18 54  1  0  0  0  0
 19 20  1  0  0  0  0
 19 21  2  0  0  0  0
 20 55  1  0  0  0  0
 20 56  1  0  0  0  0
 22 23  1  0  0  0  0
 22 57  1  0  0  0  0
 22 58  1  0  0  0  0
 23 59  1  0  0  0  0
 23 60  1  0  0  0  0
 24 25  1  0  0  0  0
 24 61  1  0  0  0  0
 25 26  2  0  0  0  0
 25 62  1  0  0  0  0
 26 27  1  0  0  0  0
 26 63  1  0  0  0  0
 27 28  1  0  0  0  0
 28 29  1  0  0  0  0
 29 30  2  0  0  0  0
 29 36  1  0  0  0  0
 30 31  1  0  0  0  0
 30 33  1  0  0  0  0
 31 32  1  0  0  0  0
 33 34  2  0  0  0  0
 33 35  1  0  0  0  0
 35 36  1  0  0  0  0
 35 64  1  0  0  0  0
 36 37  2  0  0  0  0
M  END
$$$$
