
 OpenBabel01112422223D

 79 87  0  0  1  0  0  0  0  0999 V2000
   -0.6179    3.7382   -1.0643 C   0  0  0  0  0  0  0  0  0  0  0  0
    0.5267    2.9611   -1.3577 O   0  0  0  0  0  0  0  0  0  0  0  0
    1.0464    2.0675   -0.3580 C   0  0  1  0  0  0  0  0  0  0  0  0
    1.4004    2.6628    1.0474 C   0  0  1  0  0  0  0  0  0  0  0  0
    2.1010    3.9710    1.0188 N   0  0  0  0  0  0  0  0  0  0  0  0
    1.6864    5.0097    1.9604 C   0  0  0  0  0  0  0  0  0  0  0  0
    3.4166    3.9395    0.5245 C   0  0  0  0  0  0  0  0  0  0  0  0
    3.9402    2.8826    0.1652 O   0  0  0  0  0  0  0  0  0  0  0  0
    4.1723    5.2696    0.4333 C   0  0  0  0  0  0  0  0  0  0  0  0
    3.4906    6.1566   -0.6186 C   0  0  0  0  0  0  0  0  0  0  0  0
    4.2318    7.4720   -0.8127 C   0  0  0  0  0  0  0  0  0  0  0  0
    5.6831    7.2197   -1.1990 C   0  0  0  0  0  0  0  0  0  0  0  0
    6.3886    6.3689   -0.1481 C   0  0  0  0  0  0  0  0  0  0  0  0
    5.6557    5.0512    0.0996 C   0  0  0  0  0  0  0  0  0  0  0  0
    0.1781    2.5876    1.9438 C   0  0  0  0  0  0  0  0  0  0  0  0
   -0.2403    1.1195    2.1384 C   0  0  2  0  0  0  0  0  0  0  0  0
    0.2847    0.2264    1.1579 O   0  0  0  0  0  0  0  0  0  0  0  0
    0.2981    0.6877   -0.2184 C   0  0  2  0  0  0  0  0  0  0  0  0
    1.1198   -0.4043   -0.9246 C   0  0  0  0  0  0  0  0  0  0  0  0
   -1.0701    0.6048   -0.7420 N   0  0  0  0  0  0  0  0  0  0  0  0
   -1.5425    0.3842   -2.0435 C   0  0  0  0  0  0  0  0  0  0  0  0
   -0.9915    0.6267   -3.3087 C   0  0  0  0  0  0  0  0  0  0  0  0
   -1.5511   -0.0577   -4.3956 C   0  0  0  0  0  0  0  0  0  0  0  0
   -2.5590   -1.0008   -4.2098 C   0  0  0  0  0  0  0  0  0  0  0  0
   -3.2655   -1.0334   -3.0113 C   0  0  0  0  0  0  0  0  0  0  0  0
   -2.8749   -0.1541   -1.9893 C   0  0  0  0  0  0  0  0  0  0  0  0
   -3.4461    0.3267   -0.7959 C   0  0  0  0  0  0  0  0  0  0  0  0
   -4.5661    1.2069   -0.8225 C   0  0  0  0  0  0  0  0  0  0  0  0
   -4.6619    2.1149    0.2651 C   0  0  0  0  0  0  0  0  0  0  0  0
   -3.6752    1.8946    1.2410 C   0  0  0  0  0  0  0  0  0  0  0  0
   -3.5921    2.3219    2.5857 C   0  0  0  0  0  0  0  0  0  0  0  0
   -4.2932    3.2064    3.4245 C   0  0  0  0  0  0  0  0  0  0  0  0
   -4.0856    3.1496    4.8093 C   0  0  0  0  0  0  0  0  0  0  0  0
   -3.2378    2.1987    5.3711 C   0  0  0  0  0  0  0  0  0  0  0  0
   -2.4209    1.4065    4.5694 C   0  0  0  0  0  0  0  0  0  0  0  0
   -2.5138    1.5511    3.1817 C   0  0  0  0  0  0  0  0  0  0  0  0
   -1.6777    1.0065    2.1870 N   0  0  0  0  0  0  0  0  0  0  0  0
   -2.4968    1.1705    1.1365 C   0  0  0  0  0  0  0  0  0  0  0  0
   -2.2744    0.5720   -0.0743 C   0  0  0  0  0  0  0  0  0  0  0  0
   -5.7591    2.9926    0.0646 C   0  0  0  0  0  0  0  0  0  0  0  0
   -6.2154    3.9309    0.7011 O   0  0  0  0  0  0  0  0  0  0  0  0
   -6.2991    2.5496   -1.1431 N   0  0  0  0  0  0  0  0  0  0  0  0
   -5.5685    1.4919   -1.8402 C   0  0  0  0  0  0  0  0  0  0  0  0
   -1.4120    3.1642   -0.5945 H   0  0  0  0  0  0  0  0  0  0  0  0
   -0.3541    4.5927   -0.4385 H   0  0  0  0  0  0  0  0  0  0  0  0
   -1.0137    4.1231   -2.0098 H   0  0  0  0  0  0  0  0  0  0  0  0
    2.0162    1.8143   -0.7955 H   0  0  0  0  0  0  0  0  0  0  0  0
    2.1296    1.9784    1.5049 H   0  0  0  0  0  0  0  0  0  0  0  0
    2.1261    5.9836    1.7500 H   0  0  0  0  0  0  0  0  0  0  0  0
    2.0150    4.7085    2.9604 H   0  0  0  0  0  0  0  0  0  0  0  0
    0.6015    5.1414    1.9348 H   0  0  0  0  0  0  0  0  0  0  0  0
    4.1472    5.7558    1.4175 H   0  0  0  0  0  0  0  0  0  0  0  0
    2.4513    6.3799   -0.3468 H   0  0  0  0  0  0  0  0  0  0  0  0
    3.4342    5.6208   -1.5751 H   0  0  0  0  0  0  0  0  0  0  0  0
    3.7361    8.0643   -1.5897 H   0  0  0  0  0  0  0  0  0  0  0  0
    4.1904    8.0587    0.1138 H   0  0  0  0  0  0  0  0  0  0  0  0
    5.7181    6.7074   -2.1684 H   0  0  0  0  0  0  0  0  0  0  0  0
    6.2059    8.1745   -1.3192 H   0  0  0  0  0  0  0  0  0  0  0  0
    6.4578    6.9329    0.7910 H   0  0  0  0  0  0  0  0  0  0  0  0
    7.4158    6.1629   -0.4705 H   0  0  0  0  0  0  0  0  0  0  0  0
    6.1422    4.5220    0.9291 H   0  0  0  0  0  0  0  0  0  0  0  0
    5.7622    4.4109   -0.7826 H   0  0  0  0  0  0  0  0  0  0  0  0
    0.3617    3.0214    2.9356 H   0  0  0  0  0  0  0  0  0  0  0  0
   -0.6283    3.2036    1.5256 H   0  0  0  0  0  0  0  0  0  0  0  0
    0.1265    0.7750    3.0976 H   0  0  0  0  0  0  0  0  0  0  0  0
    2.0766   -0.5554   -0.4145 H   0  0  0  0  0  0  0  0  0  0  0  0
    0.5981   -1.3700   -0.9023 H   0  0  0  0  0  0  0  0  0  0  0  0
    1.3228   -0.1527   -1.9682 H   0  0  0  0  0  0  0  0  0  0  0  0
   -0.1621    1.3108   -3.4457 H   0  0  0  0  0  0  0  0  0  0  0  0
   -1.1487    0.1027   -5.3920 H   0  0  0  0  0  0  0  0  0  0  0  0
   -2.8293   -1.6801   -5.0138 H   0  0  0  0  0  0  0  0  0  0  0  0
   -4.0690   -1.7483   -2.8523 H   0  0  0  0  0  0  0  0  0  0  0  0
   -5.0048    3.9219    3.0133 H   0  0  0  0  0  0  0  0  0  0  0  0
   -4.6324    3.8259    5.4616 H   0  0  0  0  0  0  0  0  0  0  0  0
   -3.1907    2.0819    6.4518 H   0  0  0  0  0  0  0  0  0  0  0  0
   -1.7558    0.6680    5.0040 H   0  0  0  0  0  0  0  0  0  0  0  0
   -7.2435    2.8217   -1.3707 H   0  0  0  0  0  0  0  0  0  0  0  0
   -5.1239    1.9112   -2.7493 H   0  0  0  0  0  0  0  0  0  0  0  0
   -6.2318    0.6552   -2.0498 H   0  0  0  0  0  0  0  0  0  0  0  0
  1  2  1  0  0  0  0
  1 44  1  0  0  0  0
  1 45  1  0  0  0  0
  1 46  1  0  0  0  0
  2  3  1  0  0  0  0
  3  4  1  0  0  0  0
  3 18  1  0  0  0  0
  3 47  1  6  0  0  0
  4  5  1  0  0  0  0
  4 15  1  0  0  0  0
  4 48  1  1  0  0  0
  5  6  1  0  0  0  0
  5  7  1  0  0  0  0
  6 49  1  0  0  0  0
  6 50  1  0  0  0  0
  6 51  1  0  0  0  0
  7  8  2  0  0  0  0
  7  9  1  0  0  0  0
  9 10  1  0  0  0  0
  9 14  1  0  0  0  0
  9 52  1  0  0  0  0
 10 11  1  0  0  0  0
 10 53  1  0  0  0  0
 10 54  1  0  0  0  0
 11 12  1  0  0  0  0
 11 55  1  0  0  0  0
 11 56  1  0  0  0  0
 12 13  1  0  0  0  0
 12 57  1  0  0  0  0
 12 58  1  0  0  0  0
 13 14  1  0  0  0  0
 13 59  1  0  0  0  0
 13 60  1  0  0  0  0
 14 61  1  0  0  0  0
 14 62  1  0  0  0  0
 15 16  1  0  0  0  0
 15 63  1  0  0  0  0
 15 64  1  0  0  0  0
 16 17  1  0  0  0  0
 16 37  1  0  0  0  0
 16 65  1  1  0  0  0
 17 18  1  0  0  0  0
 18 19  1  6  0  0  0
 18 20  1  0  0  0  0
 19 66  1  0  0  0  0
 19 67  1  0  0  0  0
 19 68  1  0  0  0  0
 20 21  1  0  0  0  0
 20 39  1  0  0  0  0
 21 22  1  0  0  0  0
 21 26  2  0  0  0  0
 22 23  2  0  0  0  0
 22 69  1  0  0  0  0
 23 24  1  0  0  0  0
 23 70  1  0  0  0  0
 24 25  2  0  0  0  0
 24 71  1  0  0  0  0
 25 26  1  0  0  0  0
 25 72  1  0  0  0  0
 26 27  1  0  0  0  0
 27 28  1  0  0  0  0
 27 39  2  0  0  0  0
 28 29  2  0  0  0  0
 28 43  1  0  0  0  0
 29 30  1  0  0  0  0
 29 40  1  0  0  0  0
 30 31  1  0  0  0  0
 30 38  2  0  0  0  0
 31 32  1  0  0  0  0
 31 36  2  0  0  0  0
 32 33  2  0  0  0  0
 32 73  1  0  0  0  0
 33 34  1  0  0  0  0
 33 74  1  0  0  0  0
 34 35  2  0  0  0  0
 34 75  1  0  0  0  0
 35 36  1  0  0  0  0
 35 76  1  0  0  0  0
 36 37  1  0  0  0  0
 37 38  1  0  0  0  0
 38 39  1  0  0  0  0
 40 41  2  0  0  0  0
 40 42  1  0  0  0  0
 42 43  1  0  0  0  0
 42 77  1  0  0  0  0
 43 78  1  0  0  0  0
 43 79  1  0  0  0  0
M  END
$$$$
