MODEL 1
REMARK VINA RESULT:   -11.776      0.000      0.000
REMARK INTER + INTRA:         -14.496
REMARK INTER:                 -14.874
REMARK INTRA:                   0.378
REMARK UNBOUND:                 0.378
REMARK  Name = 
REMARK  5 active torsions:
REMARK  status: ('A' for Active; 'I' for Inactive)
REMARK    1  A    between atoms: C_1  and  N_2
REMARK    2  A    between atoms: N_2  and  C_3
REMARK    3  A    between atoms: C_3  and  C_4
REMARK    4  A    between atoms: C_11  and  C_12
REMARK    5  A    between atoms: C_13  and  C_14
REMARK                            x       y       z     vdW  Elec       q    Type
REMARK                         _______ _______ _______ _____ _____    ______ ____
ROOT
ATOM      1  C   UNL     1      -7.368  -2.972  22.322  0.00  0.00    +0.000 C 
ATOM      2  C   UNL     1      -5.979  -3.242  21.680  0.00  0.00    +0.000 C 
ATOM      3  C   UNL     1      -6.075  -4.345  20.671  0.00  0.00    +0.000 A 
ATOM      4  C   UNL     1      -5.001  -5.120  20.232  0.00  0.00    +0.000 A 
ATOM      5  C   UNL     1      -5.176  -6.062  19.215  0.00  0.00    +0.000 A 
ATOM      6  C   UNL     1      -6.430  -6.254  18.603  0.00  0.00    +0.000 A 
ATOM      7  C   UNL     1      -7.521  -5.467  19.021  0.00  0.00    +0.000 A 
ATOM      8  C   UNL     1      -8.896  -5.311  18.659  0.00  0.00    +0.000 A 
ATOM      9  C   UNL     1      -9.448  -4.319  19.453  0.00  0.00    +0.000 A 
ATOM     10  N   UNL     1      -8.458  -3.866  20.270  0.00  0.00    +0.000 N 
ATOM     11  C   UNL     1      -7.295  -4.552  20.032  0.00  0.00    +0.000 A 
ATOM     12  C   UNL     1      -8.490  -2.794  21.259  0.00  0.00    +0.000 C 
ATOM     13  H   UNL     1      -7.613  -3.871  22.906  0.00  0.00    +0.000 HD
ATOM     14  H   UNL     1      -5.256  -3.505  22.461  0.00  0.00    +0.000 HD
ATOM     15  H   UNL     1      -5.617  -2.347  21.160  0.00  0.00    +0.000 HD
ATOM     16  H   UNL     1      -4.016  -4.976  20.668  0.00  0.00    +0.000 HD
ATOM     17  H   UNL     1      -4.322  -6.643  18.875  0.00  0.00    +0.000 HD
ATOM     18  H   UNL     1      -6.537  -6.979  17.804  0.00  0.00    +0.000 HD
ATOM     19  H   UNL     1     -10.445  -3.896  19.483  0.00  0.00    +0.000 HD
ATOM     20  H   UNL     1      -9.483  -2.817  21.722  0.00  0.00    +0.000 HD
ATOM     21  H   UNL     1      -8.376  -1.855  20.708  0.00  0.00    +0.000 HD
ENDROOT
BRANCH   8  22
ATOM     22  C   UNL     1      -9.592  -6.006  17.644  0.00  0.00    +0.000 C 
ATOM     23  C   UNL     1      -9.793  -7.326  17.508  0.00  0.00    +0.000 C 
ATOM     24  C   UNL     1     -10.548  -7.526  16.250  0.00  0.00    +0.000 C 
ATOM     25  O   UNL     1     -10.895  -8.589  15.770  0.00  0.00    +0.000 OA
ATOM     26  N   UNL     1     -10.777  -6.305  15.721  0.00  0.00    +0.000 N 
ATOM     27  C   UNL     1     -10.242  -5.340  16.496  0.00  0.00    +0.000 C 
ATOM     28  O   UNL     1     -10.301  -4.141  16.281  0.00  0.00    +0.000 OA
ATOM     29  H   UNL     1     -11.272  -6.139  14.861  0.00  0.00    +0.000 HD
BRANCH  23  30
ATOM     30  C   UNL     1      -9.393  -8.389  18.352  0.00  0.00    +0.000 A 
ATOM     31  C   UNL     1      -9.200  -8.279  19.711  0.00  0.00    +0.000 A 
ATOM     32  N   UNL     1      -8.780  -9.499  20.171  0.00  0.00    +0.000 N 
ATOM     33  C   UNL     1      -8.696 -10.399  19.131  0.00  0.00    +0.000 A 
ATOM     34  C   UNL     1      -8.288 -11.738  19.129  0.00  0.00    +0.000 A 
ATOM     35  C   UNL     1      -8.301 -12.406  17.906  0.00  0.00    +0.000 A 
ATOM     36  F   UNL     1      -7.904 -13.686  17.862  0.00  0.00    +0.000 F 
ATOM     37  C   UNL     1      -8.710 -11.785  16.735  0.00  0.00    +0.000 A 
ATOM     38  C   UNL     1      -9.115 -10.445  16.751  0.00  0.00    +0.000 A 
ATOM     39  C   UNL     1      -9.098  -9.731  17.970  0.00  0.00    +0.000 A 
ATOM     40  H   UNL     1      -9.309  -7.444  20.390  0.00  0.00    +0.000 HD
ATOM     41  H   UNL     1      -8.544  -9.710  21.130  0.00  0.00    +0.000 HD
ATOM     42  H   UNL     1      -7.961 -12.244  20.030  0.00  0.00    +0.000 HD
ATOM     43  H   UNL     1      -8.704 -12.344  15.803  0.00  0.00    +0.000 HD
ATOM     44  H   UNL     1      -9.429  -9.962  15.830  0.00  0.00    +0.000 HD
ENDBRANCH  23  30
ENDBRANCH   8  22
BRANCH   1  45
ATOM     45  C   UNL     1      -7.283  -1.774  23.282  0.00  0.00    +0.000 C 
ATOM     46  H   UNL     1      -7.583  -2.084  24.292  0.00  0.00    +0.000 HD
ATOM     47  H   UNL     1      -6.240  -1.446  23.363  0.00  0.00    +0.000 HD
BRANCH  45  48
ATOM     48  N   UNL     1      -8.089  -0.621  22.870  0.00  0.00    +0.000 NA
ATOM     49  H   UNL     1      -7.514  -0.011  22.284  0.00  0.00    +0.000 HD
BRANCH  48  50
ATOM     50  C   UNL     1      -8.579   0.160  24.000  0.00  0.00    +0.000 C 
ATOM     51  H   UNL     1      -8.016  -0.110  24.898  0.00  0.00    +0.000 HD
ATOM     52  H   UNL     1      -9.640  -0.030  24.188  0.00  0.00    +0.000 HD
ATOM     53  H   UNL     1      -8.427   1.233  23.852  0.00  0.00    +0.000 HD
ENDBRANCH  48  50
ENDBRANCH  45  48
ENDBRANCH   1  45
TORSDOF 5
ENDMDL
MODEL 2
REMARK VINA RESULT:   -11.263      3.712      8.114
REMARK INTER + INTRA:         -13.848
REMARK INTER:                 -12.167
REMARK INTRA:                  -1.681
REMARK UNBOUND:                 0.378
REMARK  Name = 
REMARK  5 active torsions:
REMARK  status: ('A' for Active; 'I' for Inactive)
REMARK    1  A    between atoms: C_1  and  N_2
REMARK    2  A    between atoms: N_2  and  C_3
REMARK    3  A    between atoms: C_3  and  C_4
REMARK    4  A    between atoms: C_11  and  C_12
REMARK    5  A    between atoms: C_13  and  C_14
REMARK                            x       y       z     vdW  Elec       q    Type
REMARK                         _______ _______ _______ _____ _____    ______ ____
ROOT
ATOM      1  C   UNL     1     -10.216  -7.599  16.824  0.00  0.00    +0.000 C 
ATOM      2  C   UNL     1      -9.611  -7.887  18.226  0.00  0.00    +0.000 C 
ATOM      3  C   UNL     1      -8.998  -6.644  18.796  0.00  0.00    +0.000 A 
ATOM      4  C   UNL     1      -8.025  -6.621  19.794  0.00  0.00    +0.000 A 
ATOM      5  C   UNL     1      -7.586  -5.406  20.328  0.00  0.00    +0.000 A 
ATOM      6  C   UNL     1      -8.113  -4.179  19.883  0.00  0.00    +0.000 A 
ATOM      7  C   UNL     1      -9.111  -4.184  18.889  0.00  0.00    +0.000 A 
ATOM      8  C   UNL     1      -9.913  -3.216  18.207  0.00  0.00    +0.000 A 
ATOM      9  C   UNL     1     -10.756  -3.881  17.332  0.00  0.00    +0.000 A 
ATOM     10  N   UNL     1     -10.501  -5.211  17.469  0.00  0.00    +0.000 N 
ATOM     11  C   UNL     1      -9.507  -5.412  18.393  0.00  0.00    +0.000 A 
ATOM     12  C   UNL     1     -11.143  -6.350  16.822  0.00  0.00    +0.000 C 
ATOM     13  H   UNL     1      -9.364  -7.374  16.166  0.00  0.00    +0.000 HD
ATOM     14  H   UNL     1      -8.857  -8.678  18.147  0.00  0.00    +0.000 HD
ATOM     15  H   UNL     1     -10.392  -8.221  18.919  0.00  0.00    +0.000 HD
ATOM     16  H   UNL     1      -7.619  -7.554  20.177  0.00  0.00    +0.000 HD
ATOM     17  H   UNL     1      -6.840  -5.411  21.119  0.00  0.00    +0.000 HD
ATOM     18  H   UNL     1      -7.770  -3.249  20.325  0.00  0.00    +0.000 HD
ATOM     19  H   UNL     1     -11.517  -3.518  16.653  0.00  0.00    +0.000 HD
ATOM     20  H   UNL     1     -11.388  -6.039  15.800  0.00  0.00    +0.000 HD
ATOM     21  H   UNL     1     -12.073  -6.538  17.369  0.00  0.00    +0.000 HD
ENDROOT
BRANCH   8  22
ATOM     22  C   UNL     1      -9.898  -1.815  18.397  0.00  0.00    +0.000 C 
ATOM     23  C   UNL     1     -10.232  -1.105  19.486  0.00  0.00    +0.000 C 
ATOM     24  C   UNL     1     -10.076   0.326  19.140  0.00  0.00    +0.000 C 
ATOM     25  O   UNL     1     -10.311   1.279  19.859  0.00  0.00    +0.000 OA
ATOM     26  N   UNL     1      -9.632   0.385  17.866  0.00  0.00    +0.000 N 
ATOM     27  C   UNL     1      -9.494  -0.853  17.351  0.00  0.00    +0.000 C 
ATOM     28  O   UNL     1      -9.097  -1.115  16.227  0.00  0.00    +0.000 OA
ATOM     29  H   UNL     1      -9.438   1.237  17.368  0.00  0.00    +0.000 HD
BRANCH  23  30
ATOM     30  C   UNL     1     -10.662  -1.555  20.756  0.00  0.00    +0.000 A 
ATOM     31  C   UNL     1     -11.917  -2.053  21.026  0.00  0.00    +0.000 A 
ATOM     32  N   UNL     1     -11.971  -2.344  22.364  0.00  0.00    +0.000 N 
ATOM     33  C   UNL     1     -10.769  -2.042  22.966  0.00  0.00    +0.000 A 
ATOM     34  C   UNL     1     -10.382  -2.149  24.307  0.00  0.00    +0.000 A 
ATOM     35  C   UNL     1      -9.083  -1.758  24.628  0.00  0.00    +0.000 A 
ATOM     36  F   UNL     1      -8.680  -1.832  25.905  0.00  0.00    +0.000 F 
ATOM     37  C   UNL     1      -8.198  -1.292  23.667  0.00  0.00    +0.000 A 
ATOM     38  C   UNL     1      -8.599  -1.191  22.329  0.00  0.00    +0.000 A 
ATOM     39  C   UNL     1      -9.914  -1.561  21.970  0.00  0.00    +0.000 A 
ATOM     40  H   UNL     1     -12.781  -2.212  20.395  0.00  0.00    +0.000 HD
ATOM     41  H   UNL     1     -12.778  -2.708  22.849  0.00  0.00    +0.000 HD
ATOM     42  H   UNL     1     -11.056  -2.506  25.077  0.00  0.00    +0.000 HD
ATOM     43  H   UNL     1      -7.195  -0.998  23.962  0.00  0.00    +0.000 HD
ATOM     44  H   UNL     1      -7.903  -0.820  21.581  0.00  0.00    +0.000 HD
ENDBRANCH  23  30
ENDBRANCH   8  22
BRANCH   1  45
ATOM     45  C   UNL     1     -10.928  -8.852  16.289  0.00  0.00    +0.000 C 
ATOM     46  H   UNL     1     -10.930  -9.636  17.058  0.00  0.00    +0.000 HD
ATOM     47  H   UNL     1     -11.981  -8.617  16.092  0.00  0.00    +0.000 HD
BRANCH  45  48
ATOM     48  N   UNL     1     -10.346  -9.388  15.054  0.00  0.00    +0.000 NA
ATOM     49  H   UNL     1     -11.102  -9.733  14.457  0.00  0.00    +0.000 HD
BRANCH  48  50
ATOM     50  C   UNL     1      -9.417 -10.485  15.296  0.00  0.00    +0.000 C 
ATOM     51  H   UNL     1      -8.404 -10.165  15.037  0.00  0.00    +0.000 HD
ATOM     52  H   UNL     1      -9.667 -11.362  14.690  0.00  0.00    +0.000 HD
ATOM     53  H   UNL     1      -9.389 -10.773  16.351  0.00  0.00    +0.000 HD
ENDBRANCH  48  50
ENDBRANCH  45  48
ENDBRANCH   1  45
TORSDOF 5
ENDMDL
MODEL 3
REMARK VINA RESULT:   -11.146      2.976      7.901
REMARK INTER + INTRA:         -13.701
REMARK INTER:                 -13.514
REMARK INTRA:                  -0.187
REMARK UNBOUND:                 0.378
REMARK  Name = 
REMARK  5 active torsions:
REMARK  status: ('A' for Active; 'I' for Inactive)
REMARK    1  A    between atoms: C_1  and  N_2
REMARK    2  A    between atoms: N_2  and  C_3
REMARK    3  A    between atoms: C_3  and  C_4
REMARK    4  A    between atoms: C_11  and  C_12
REMARK    5  A    between atoms: C_13  and  C_14
REMARK                            x       y       z     vdW  Elec       q    Type
REMARK                         _______ _______ _______ _____ _____    ______ ____
ROOT
ATOM      1  C   UNL     1      -8.682 -12.675  18.102  0.00  0.00    +0.000 C 
ATOM      2  C   UNL     1      -8.153 -12.490  16.653  0.00  0.00    +0.000 C 
ATOM      3  C   UNL     1      -8.641 -11.195  16.080  0.00  0.00    +0.000 A 
ATOM      4  C   UNL     1      -8.726 -10.907  14.718  0.00  0.00    +0.000 A 
ATOM      5  C   UNL     1      -9.103  -9.633  14.285  0.00  0.00    +0.000 A 
ATOM      6  C   UNL     1      -9.400  -8.606  15.202  0.00  0.00    +0.000 A 
ATOM      7  C   UNL     1      -9.300  -8.873  16.582  0.00  0.00    +0.000 A 
ATOM      8  C   UNL     1      -9.463  -8.145  17.801  0.00  0.00    +0.000 A 
ATOM      9  C   UNL     1      -9.186  -8.995  18.860  0.00  0.00    +0.000 A 
ATOM     10  N   UNL     1      -8.853 -10.201  18.324  0.00  0.00    +0.000 N 
ATOM     11  C   UNL     1      -8.926 -10.150  16.956  0.00  0.00    +0.000 A 
ATOM     12  C   UNL     1      -8.425 -11.426  18.992  0.00  0.00    +0.000 C 
ATOM     13  H   UNL     1      -9.772 -12.795  18.015  0.00  0.00    +0.000 HD
ATOM     14  H   UNL     1      -8.485 -13.328  16.029  0.00  0.00    +0.000 HD
ATOM     15  H   UNL     1      -7.057 -12.465  16.645  0.00  0.00    +0.000 HD
ATOM     16  H   UNL     1      -8.477 -11.671  13.986  0.00  0.00    +0.000 HD
ATOM     17  H   UNL     1      -9.145  -9.424  13.219  0.00  0.00    +0.000 HD
ATOM     18  H   UNL     1      -9.673  -7.620  14.842  0.00  0.00    +0.000 HD
ATOM     19  H   UNL     1      -9.180  -8.830  19.930  0.00  0.00    +0.000 HD
ATOM     20  H   UNL     1      -8.983 -11.487  19.933  0.00  0.00    +0.000 HD
ATOM     21  H   UNL     1      -7.360 -11.305  19.218  0.00  0.00    +0.000 HD
ENDROOT
BRANCH   8  22
ATOM     22  C   UNL     1      -9.809  -6.782  17.937  0.00  0.00    +0.000 C 
ATOM     23  C   UNL     1      -9.026  -5.736  18.247  0.00  0.00    +0.000 C 
ATOM     24  C   UNL     1      -9.896  -4.539  18.299  0.00  0.00    +0.000 C 
ATOM     25  O   UNL     1      -9.557  -3.404  18.576  0.00  0.00    +0.000 OA
ATOM     26  N   UNL     1     -11.149  -4.939  17.991  0.00  0.00    +0.000 N 
ATOM     27  C   UNL     1     -11.182  -6.266  17.755  0.00  0.00    +0.000 C 
ATOM     28  O   UNL     1     -12.171  -6.907  17.441  0.00  0.00    +0.000 OA
ATOM     29  H   UNL     1     -11.948  -4.330  17.950  0.00  0.00    +0.000 HD
BRANCH  23  30
ATOM     30  C   UNL     1      -7.634  -5.697  18.494  0.00  0.00    +0.000 A 
ATOM     31  C   UNL     1      -6.685  -6.330  17.723  0.00  0.00    +0.000 A 
ATOM     32  N   UNL     1      -5.462  -6.097  18.296  0.00  0.00    +0.000 N 
ATOM     33  C   UNL     1      -5.604  -5.323  19.427  0.00  0.00    +0.000 A 
ATOM     34  C   UNL     1      -4.640  -4.868  20.335  0.00  0.00    +0.000 A 
ATOM     35  C   UNL     1      -5.086  -4.095  21.405  0.00  0.00    +0.000 A 
ATOM     36  F   UNL     1      -4.194  -3.653  22.302  0.00  0.00    +0.000 F 
ATOM     37  C   UNL     1      -6.426  -3.774  21.569  0.00  0.00    +0.000 A 
ATOM     38  C   UNL     1      -7.380  -4.236  20.654  0.00  0.00    +0.000 A 
ATOM     39  C   UNL     1      -6.965  -5.037  19.567  0.00  0.00    +0.000 A 
ATOM     40  H   UNL     1      -6.766  -6.935  16.831  0.00  0.00    +0.000 HD
ATOM     41  H   UNL     1      -4.581  -6.455  17.955  0.00  0.00    +0.000 HD
ATOM     42  H   UNL     1      -3.588  -5.109  20.229  0.00  0.00    +0.000 HD
ATOM     43  H   UNL     1      -6.730  -3.169  22.419  0.00  0.00    +0.000 HD
ATOM     44  H   UNL     1      -8.428  -3.986  20.790  0.00  0.00    +0.000 HD
ENDBRANCH  23  30
ENDBRANCH   8  22
BRANCH   1  45
ATOM     45  C   UNL     1      -8.098 -13.958  18.718  0.00  0.00    +0.000 C 
ATOM     46  H   UNL     1      -7.067 -14.102  18.367  0.00  0.00    +0.000 HD
ATOM     47  H   UNL     1      -8.036 -13.843  19.806  0.00  0.00    +0.000 HD
BRANCH  45  48
ATOM     48  N   UNL     1      -8.880 -15.165  18.433  0.00  0.00    +0.000 NA
ATOM     49  H   UNL     1      -8.315 -15.985  18.667  0.00  0.00    +0.000 HD
BRANCH  48  50
ATOM     50  C   UNL     1      -9.274 -15.267  17.033  0.00  0.00    +0.000 C 
ATOM     51  H   UNL     1      -9.444 -14.264  16.631  0.00  0.00    +0.000 HD
ATOM     52  H   UNL     1     -10.196 -15.846  16.917  0.00  0.00    +0.000 HD
ATOM     53  H   UNL     1      -8.489 -15.715  16.418  0.00  0.00    +0.000 HD
ENDBRANCH  48  50
ENDBRANCH  45  48
ENDBRANCH   1  45
TORSDOF 5
ENDMDL
MODEL 4
REMARK VINA RESULT:   -10.856      3.570      7.761
REMARK INTER + INTRA:         -13.334
REMARK INTER:                 -12.113
REMARK INTRA:                  -1.221
REMARK UNBOUND:                 0.378
REMARK  Name = 
REMARK  5 active torsions:
REMARK  status: ('A' for Active; 'I' for Inactive)
REMARK    1  A    between atoms: C_1  and  N_2
REMARK    2  A    between atoms: N_2  and  C_3
REMARK    3  A    between atoms: C_3  and  C_4
REMARK    4  A    between atoms: C_11  and  C_12
REMARK    5  A    between atoms: C_13  and  C_14
REMARK                            x       y       z     vdW  Elec       q    Type
REMARK                         _______ _______ _______ _____ _____    ______ ____
ROOT
ATOM      1  C   UNL     1      -9.150  -9.844  17.470  0.00  0.00    +0.000 C 
ATOM      2  C   UNL     1      -8.875  -9.338  18.913  0.00  0.00    +0.000 C 
ATOM      3  C   UNL     1      -8.721  -7.847  18.924  0.00  0.00    +0.000 A 
ATOM      4  C   UNL     1      -8.066  -7.120  19.917  0.00  0.00    +0.000 A 
ATOM      5  C   UNL     1      -8.060  -5.723  19.886  0.00  0.00    +0.000 A 
ATOM      6  C   UNL     1      -8.715  -5.011  18.863  0.00  0.00    +0.000 A 
ATOM      7  C   UNL     1      -9.398  -5.729  17.862  0.00  0.00    +0.000 A 
ATOM      8  C   UNL     1     -10.194  -5.422  16.714  0.00  0.00    +0.000 A 
ATOM      9  C   UNL     1     -10.616  -6.610  16.141  0.00  0.00    +0.000 A 
ATOM     10  N   UNL     1     -10.114  -7.619  16.905  0.00  0.00    +0.000 N 
ATOM     11  C   UNL     1      -9.371  -7.109  17.938  0.00  0.00    +0.000 A 
ATOM     12  C   UNL     1     -10.300  -9.061  16.775  0.00  0.00    +0.000 C 
ATOM     13  H   UNL     1      -8.231  -9.649  16.899  0.00  0.00    +0.000 HD
ATOM     14  H   UNL     1      -7.970  -9.814  19.306  0.00  0.00    +0.000 HD
ATOM     15  H   UNL     1      -9.713  -9.590  19.574  0.00  0.00    +0.000 HD
ATOM     16  H   UNL     1      -7.574  -7.642  20.734  0.00  0.00    +0.000 HD
ATOM     17  H   UNL     1      -7.559  -5.175  20.680  0.00  0.00    +0.000 HD
ATOM     18  H   UNL     1      -8.711  -3.926  18.869  0.00  0.00    +0.000 HD
ATOM     19  H   UNL     1     -11.239  -6.809  15.278  0.00  0.00    +0.000 HD
ATOM     20  H   UNL     1     -10.339  -9.281  15.703  0.00  0.00    +0.000 HD
ATOM     21  H   UNL     1     -11.273  -9.292  17.221  0.00  0.00    +0.000 HD
ENDROOT
BRANCH   8  22
ATOM     22  C   UNL     1     -10.540  -4.136  16.240  0.00  0.00    +0.000 C 
ATOM     23  C   UNL     1     -11.066  -3.099  16.912  0.00  0.00    +0.000 C 
ATOM     24  C   UNL     1     -11.272  -2.005  15.935  0.00  0.00    +0.000 C 
ATOM     25  O   UNL     1     -11.757  -0.912  16.159  0.00  0.00    +0.000 OA
ATOM     26  N   UNL     1     -10.833  -2.447  14.738  0.00  0.00    +0.000 N 
ATOM     27  C   UNL     1     -10.373  -3.711  14.834  0.00  0.00    +0.000 C 
ATOM     28  O   UNL     1      -9.900  -4.367  13.921  0.00  0.00    +0.000 OA
ATOM     29  H   UNL     1     -10.852  -1.909  13.888  0.00  0.00    +0.000 HD
BRANCH  23  30
ATOM     30  C   UNL     1     -11.392  -2.989  18.283  0.00  0.00    +0.000 A 
ATOM     31  C   UNL     1     -12.387  -3.706  18.911  0.00  0.00    +0.000 A 
ATOM     32  N   UNL     1     -12.430  -3.300  20.219  0.00  0.00    +0.000 N 
ATOM     33  C   UNL     1     -11.479  -2.330  20.449  0.00  0.00    +0.000 A 
ATOM     34  C   UNL     1     -11.185  -1.616  21.617  0.00  0.00    +0.000 A 
ATOM     35  C   UNL     1     -10.157  -0.678  21.548  0.00  0.00    +0.000 A 
ATOM     36  F   UNL     1      -9.855   0.035  22.643  0.00  0.00    +0.000 F 
ATOM     37  C   UNL     1      -9.439  -0.460  20.381  0.00  0.00    +0.000 A 
ATOM     38  C   UNL     1      -9.744  -1.181  19.220  0.00  0.00    +0.000 A 
ATOM     39  C   UNL     1     -10.792  -2.127  19.248  0.00  0.00    +0.000 A 
ATOM     40  H   UNL     1     -13.076  -4.455  18.546  0.00  0.00    +0.000 HD
ATOM     41  H   UNL     1     -13.077  -3.643  20.914  0.00  0.00    +0.000 HD
ATOM     42  H   UNL     1     -11.733  -1.767  22.540  0.00  0.00    +0.000 HD
ATOM     43  H   UNL     1      -8.645   0.282  20.373  0.00  0.00    +0.000 HD
ATOM     44  H   UNL     1      -9.183  -1.002  18.307  0.00  0.00    +0.000 HD
ENDBRANCH  23  30
ENDBRANCH   8  22
BRANCH   1  45
ATOM     45  C   UNL     1      -9.405 -11.360  17.483  0.00  0.00    +0.000 C 
ATOM     46  H   UNL     1     -10.485 -11.556  17.464  0.00  0.00    +0.000 HD
ATOM     47  H   UNL     1      -8.999 -11.805  16.567  0.00  0.00    +0.000 HD
BRANCH  45  48
ATOM     48  N   UNL     1      -8.807 -12.056  18.627  0.00  0.00    +0.000 NA
ATOM     49  H   UNL     1      -7.834 -11.756  18.721  0.00  0.00    +0.000 HD
BRANCH  48  50
ATOM     50  C   UNL     1      -8.825 -13.507  18.480  0.00  0.00    +0.000 C 
ATOM     51  H   UNL     1      -7.800 -13.872  18.367  0.00  0.00    +0.000 HD
ATOM     52  H   UNL     1      -9.399 -13.813  17.600  0.00  0.00    +0.000 HD
ATOM     53  H   UNL     1      -9.232 -14.003  19.366  0.00  0.00    +0.000 HD
ENDBRANCH  48  50
ENDBRANCH  45  48
ENDBRANCH   1  45
TORSDOF 5
ENDMDL
MODEL 5
REMARK VINA RESULT:   -10.847      2.955      7.834
REMARK INTER + INTRA:         -13.323
REMARK INTER:                 -13.053
REMARK INTRA:                  -0.270
REMARK UNBOUND:                 0.378
REMARK  Name = 
REMARK  5 active torsions:
REMARK  status: ('A' for Active; 'I' for Inactive)
REMARK    1  A    between atoms: C_1  and  N_2
REMARK    2  A    between atoms: N_2  and  C_3
REMARK    3  A    between atoms: C_3  and  C_4
REMARK    4  A    between atoms: C_11  and  C_12
REMARK    5  A    between atoms: C_13  and  C_14
REMARK                            x       y       z     vdW  Elec       q    Type
REMARK                         _______ _______ _______ _____ _____    ______ ____
ROOT
ATOM      1  C   UNL     1      -8.682 -11.653  15.901  0.00  0.00    +0.000 C 
ATOM      2  C   UNL     1      -8.845 -12.011  17.404  0.00  0.00    +0.000 C 
ATOM      3  C   UNL     1      -8.788 -10.772  18.246  0.00  0.00    +0.000 A 
ATOM      4  C   UNL     1      -8.475 -10.745  19.604  0.00  0.00    +0.000 A 
ATOM      5  C   UNL     1      -8.542  -9.548  20.323  0.00  0.00    +0.000 A 
ATOM      6  C   UNL     1      -8.931  -8.344  19.705  0.00  0.00    +0.000 A 
ATOM      7  C   UNL     1      -9.269  -8.357  18.337  0.00  0.00    +0.000 A 
ATOM      8  C   UNL     1      -9.735  -7.415  17.367  0.00  0.00    +0.000 A 
ATOM      9  C   UNL     1      -9.912  -8.077  16.163  0.00  0.00    +0.000 A 
ATOM     10  N   UNL     1      -9.582  -9.381  16.374  0.00  0.00    +0.000 N 
ATOM     11  C   UNL     1      -9.183  -9.566  17.673  0.00  0.00    +0.000 A 
ATOM     12  C   UNL     1      -9.639 -10.512  15.454  0.00  0.00    +0.000 C 
ATOM     13  H   UNL     1      -7.654 -11.280  15.787  0.00  0.00    +0.000 HD
ATOM     14  H   UNL     1      -8.056 -12.709  17.706  0.00  0.00    +0.000 HD
ATOM     15  H   UNL     1      -9.816 -12.488  17.582  0.00  0.00    +0.000 HD
ATOM     16  H   UNL     1      -8.197 -11.663  20.115  0.00  0.00    +0.000 HD
ATOM     17  H   UNL     1      -8.313  -9.552  21.386  0.00  0.00    +0.000 HD
ATOM     18  H   UNL     1      -8.993  -7.431  20.287  0.00  0.00    +0.000 HD
ATOM     19  H   UNL     1     -10.261  -7.730  15.198  0.00  0.00    +0.000 HD
ATOM     20  H   UNL     1      -9.369 -10.131  14.464  0.00  0.00    +0.000 HD
ATOM     21  H   UNL     1     -10.682 -10.846  15.434  0.00  0.00    +0.000 HD
ENDROOT
BRANCH   8  22
ATOM     22  C   UNL     1     -10.013  -6.045  17.577  0.00  0.00    +0.000 C 
ATOM     23  C   UNL     1      -9.241  -5.102  18.141  0.00  0.00    +0.000 C 
ATOM     24  C   UNL     1     -10.025  -3.846  18.150  0.00  0.00    +0.000 C 
ATOM     25  O   UNL     1      -9.675  -2.773  18.606  0.00  0.00    +0.000 OA
ATOM     26  N   UNL     1     -11.214  -4.109  17.567  0.00  0.00    +0.000 N 
ATOM     27  C   UNL     1     -11.285  -5.401  17.190  0.00  0.00    +0.000 C 
ATOM     28  O   UNL     1     -12.231  -5.926  16.625  0.00  0.00    +0.000 OA
ATOM     29  H   UNL     1     -11.948  -3.434  17.438  0.00  0.00    +0.000 HD
BRANCH  23  30
ATOM     30  C   UNL     1      -7.928  -5.203  18.654  0.00  0.00    +0.000 A 
ATOM     31  C   UNL     1      -6.896  -5.876  18.038  0.00  0.00    +0.000 A 
ATOM     32  N   UNL     1      -5.797  -5.787  18.851  0.00  0.00    +0.000 N 
ATOM     33  C   UNL     1      -6.100  -5.066  19.986  0.00  0.00    +0.000 A 
ATOM     34  C   UNL     1      -5.302  -4.751  21.092  0.00  0.00    +0.000 A 
ATOM     35  C   UNL     1      -5.890  -4.001  22.108  0.00  0.00    +0.000 A 
ATOM     36  F   UNL     1      -5.162  -3.691  23.191  0.00  0.00    +0.000 F 
ATOM     37  C   UNL     1      -7.207  -3.569  22.034  0.00  0.00    +0.000 A 
ATOM     38  C   UNL     1      -7.993  -3.891  20.921  0.00  0.00    +0.000 A 
ATOM     39  C   UNL     1      -7.435  -4.666  19.880  0.00  0.00    +0.000 A 
ATOM     40  H   UNL     1      -6.846  -6.422  17.105  0.00  0.00    +0.000 HD
ATOM     41  H   UNL     1      -4.897  -6.204  18.661  0.00  0.00    +0.000 HD
ATOM     42  H   UNL     1      -4.273  -5.080  21.175  0.00  0.00    +0.000 HD
ATOM     43  H   UNL     1      -7.625  -2.986  22.850  0.00  0.00    +0.000 HD
ATOM     44  H   UNL     1      -9.025  -3.555  20.870  0.00  0.00    +0.000 HD
ENDBRANCH  23  30
ENDBRANCH   8  22
BRANCH   1  45
ATOM     45  C   UNL     1      -8.840 -12.916  15.038  0.00  0.00    +0.000 C 
ATOM     46  H   UNL     1      -9.899 -13.205  14.993  0.00  0.00    +0.000 HD
ATOM     47  H   UNL     1      -8.542 -12.693  14.007  0.00  0.00    +0.000 HD
BRANCH  45  48
ATOM     48  N   UNL     1      -8.046 -14.058  15.501  0.00  0.00    +0.000 NA
ATOM     49  H   UNL     1      -7.364 -14.299  14.778  0.00  0.00    +0.000 HD
BRANCH  48  50
ATOM     50  C   UNL     1      -8.857 -15.239  15.774  0.00  0.00    +0.000 C 
ATOM     51  H   UNL     1      -9.508 -15.040  16.631  0.00  0.00    +0.000 HD
ATOM     52  H   UNL     1      -8.235 -16.108  16.007  0.00  0.00    +0.000 HD
ATOM     53  H   UNL     1      -9.518 -15.484  14.937  0.00  0.00    +0.000 HD
ENDBRANCH  48  50
ENDBRANCH  45  48
ENDBRANCH   1  45
TORSDOF 5
ENDMDL
MODEL 6
REMARK VINA RESULT:   -10.792      3.703      8.154
REMARK INTER + INTRA:         -13.254
REMARK INTER:                 -13.938
REMARK INTRA:                   0.685
REMARK UNBOUND:                 0.378
REMARK  Name = 
REMARK  5 active torsions:
REMARK  status: ('A' for Active; 'I' for Inactive)
REMARK    1  A    between atoms: C_1  and  N_2
REMARK    2  A    between atoms: N_2  and  C_3
REMARK    3  A    between atoms: C_3  and  C_4
REMARK    4  A    between atoms: C_11  and  C_12
REMARK    5  A    between atoms: C_13  and  C_14
REMARK                            x       y       z     vdW  Elec       q    Type
REMARK                         _______ _______ _______ _____ _____    ______ ____
ROOT
ATOM      1  C   UNL     1      -8.486 -10.964  16.050  0.00  0.00    +0.000 C 
ATOM      2  C   UNL     1      -8.857 -11.413  17.490  0.00  0.00    +0.000 C 
ATOM      3  C   UNL     1      -8.743 -10.262  18.443  0.00  0.00    +0.000 A 
ATOM      4  C   UNL     1      -8.581 -10.381  19.823  0.00  0.00    +0.000 A 
ATOM      5  C   UNL     1      -8.582  -9.245  20.637  0.00  0.00    +0.000 A 
ATOM      6  C   UNL     1      -8.751  -7.957  20.096  0.00  0.00    +0.000 A 
ATOM      7  C   UNL     1      -8.935  -7.819  18.706  0.00  0.00    +0.000 A 
ATOM      8  C   UNL     1      -9.172  -6.752  17.784  0.00  0.00    +0.000 A 
ATOM      9  C   UNL     1      -9.294  -7.289  16.513  0.00  0.00    +0.000 A 
ATOM     10  N   UNL     1      -9.150  -8.637  16.636  0.00  0.00    +0.000 N 
ATOM     11  C   UNL     1      -8.923  -8.973  17.946  0.00  0.00    +0.000 A 
ATOM     12  C   UNL     1      -9.243  -9.676  15.616  0.00  0.00    +0.000 C 
ATOM     13  H   UNL     1      -7.415 -10.720  16.074  0.00  0.00    +0.000 HD
ATOM     14  H   UNL     1      -8.196 -12.229  17.804  0.00  0.00    +0.000 HD
ATOM     15  H   UNL     1      -9.893 -11.772  17.526  0.00  0.00    +0.000 HD
ATOM     16  H   UNL     1      -8.475 -11.365  20.272  0.00  0.00    +0.000 HD
ATOM     17  H   UNL     1      -8.473  -9.362  21.713  0.00  0.00    +0.000 HD
ATOM     18  H   UNL     1      -8.766  -7.091  20.750  0.00  0.00    +0.000 HD
ATOM     19  H   UNL     1      -9.490  -6.826  15.554  0.00  0.00    +0.000 HD
ATOM     20  H   UNL     1      -8.820  -9.258  14.696  0.00  0.00    +0.000 HD
ATOM     21  H   UNL     1     -10.310  -9.869  15.461  0.00  0.00    +0.000 HD
ENDROOT
BRANCH   8  22
ATOM     22  C   UNL     1      -9.303  -5.378  18.090  0.00  0.00    +0.000 C 
ATOM     23  C   UNL     1      -9.964  -4.421  17.420  0.00  0.00    +0.000 C 
ATOM     24  C   UNL     1      -9.748  -3.149  18.147  0.00  0.00    +0.000 C 
ATOM     25  O   UNL     1     -10.165  -2.051  17.832  0.00  0.00    +0.000 OA
ATOM     26  N   UNL     1      -8.987  -3.429  19.227  0.00  0.00    +0.000 N 
ATOM     27  C   UNL     1      -8.682  -4.741  19.270  0.00  0.00    +0.000 C 
ATOM     28  O   UNL     1      -8.021  -5.289  20.137  0.00  0.00    +0.000 OA
ATOM     29  H   UNL     1      -8.684  -2.748  19.903  0.00  0.00    +0.000 HD
BRANCH  23  30
ATOM     30  C   UNL     1     -10.738  -4.520  16.240  0.00  0.00    +0.000 A 
ATOM     31  C   UNL     1     -11.832  -5.342  16.089  0.00  0.00    +0.000 A 
ATOM     32  N   UNL     1     -12.290  -5.194  14.806  0.00  0.00    +0.000 N 
ATOM     33  C   UNL     1     -11.508  -4.288  14.122  0.00  0.00    +0.000 A 
ATOM     34  C   UNL     1     -11.587  -3.853  12.794  0.00  0.00    +0.000 A 
ATOM     35  C   UNL     1     -10.642  -2.920  12.373  0.00  0.00    +0.000 A 
ATOM     36  F   UNL     1     -10.676  -2.490  11.103  0.00  0.00    +0.000 F 
ATOM     37  C   UNL     1      -9.667  -2.425  13.227  0.00  0.00    +0.000 A 
ATOM     38  C   UNL     1      -9.600  -2.869  14.554  0.00  0.00    +0.000 A 
ATOM     39  C   UNL     1     -10.531  -3.829  15.010  0.00  0.00    +0.000 A 
ATOM     40  H   UNL     1     -12.319  -6.028  16.769  0.00  0.00    +0.000 HD
ATOM     41  H   UNL     1     -13.074  -5.689  14.406  0.00  0.00    +0.000 HD
ATOM     42  H   UNL     1     -12.337  -4.227  12.107  0.00  0.00    +0.000 HD
ATOM     43  H   UNL     1      -8.949  -1.699  12.855  0.00  0.00    +0.000 HD
ATOM     44  H   UNL     1      -8.831  -2.483  15.217  0.00  0.00    +0.000 HD
ENDBRANCH  23  30
ENDBRANCH   8  22
BRANCH   1  45
ATOM     45  C   UNL     1      -8.701 -12.124  15.064  0.00  0.00    +0.000 C 
ATOM     46  H   UNL     1      -9.723 -12.089  14.665  0.00  0.00    +0.000 HD
ATOM     47  H   UNL     1      -8.034 -11.998  14.203  0.00  0.00    +0.000 HD
BRANCH  45  48
ATOM     48  N   UNL     1      -8.451 -13.449  15.639  0.00  0.00    +0.000 NA
ATOM     49  H   UNL     1      -7.453 -13.534  15.847  0.00  0.00    +0.000 HD
BRANCH  48  50
ATOM     50  C   UNL     1      -8.824 -14.536  14.741  0.00  0.00    +0.000 C 
ATOM     51  H   UNL     1      -8.679 -14.215  13.705  0.00  0.00    +0.000 HD
ATOM     52  H   UNL     1      -9.873 -14.820  14.870  0.00  0.00    +0.000 HD
ATOM     53  H   UNL     1      -8.192 -15.418  14.881  0.00  0.00    +0.000 HD
ENDBRANCH  48  50
ENDBRANCH  45  48
ENDBRANCH   1  45
TORSDOF 5
ENDMDL
MODEL 7
REMARK VINA RESULT:   -10.762      2.785      4.664
REMARK INTER + INTRA:         -13.215
REMARK INTER:                 -11.683
REMARK INTRA:                  -1.532
REMARK UNBOUND:                 0.378
REMARK  Name = 
REMARK  5 active torsions:
REMARK  status: ('A' for Active; 'I' for Inactive)
REMARK    1  A    between atoms: C_1  and  N_2
REMARK    2  A    between atoms: N_2  and  C_3
REMARK    3  A    between atoms: C_3  and  C_4
REMARK    4  A    between atoms: C_11  and  C_12
REMARK    5  A    between atoms: C_13  and  C_14
REMARK                            x       y       z     vdW  Elec       q    Type
REMARK                         _______ _______ _______ _____ _____    ______ ____
ROOT
ATOM      1  C   UNL     1      -7.269  -2.879  22.383  0.00  0.00    +0.000 C 
ATOM      2  C   UNL     1      -5.908  -2.885  21.633  0.00  0.00    +0.000 C 
ATOM      3  C   UNL     1      -5.682  -4.211  20.973  0.00  0.00    +0.000 A 
ATOM      4  C   UNL     1      -4.436  -4.712  20.595  0.00  0.00    +0.000 A 
ATOM      5  C   UNL     1      -4.339  -5.918  19.896  0.00  0.00    +0.000 A 
ATOM      6  C   UNL     1      -5.486  -6.657  19.549  0.00  0.00    +0.000 A 
ATOM      7  C   UNL     1      -6.754  -6.157  19.906  0.00  0.00    +0.000 A 
ATOM      8  C   UNL     1      -8.119  -6.544  19.726  0.00  0.00    +0.000 A 
ATOM      9  C   UNL     1      -8.929  -5.582  20.308  0.00  0.00    +0.000 A 
ATOM     10  N   UNL     1      -8.105  -4.628  20.821  0.00  0.00    +0.000 N 
ATOM     11  C   UNL     1      -6.794  -4.961  20.599  0.00  0.00    +0.000 A 
ATOM     12  C   UNL     1      -8.442  -3.376  21.491  0.00  0.00    +0.000 C 
ATOM     13  H   UNL     1      -7.163  -3.595  23.211  0.00  0.00    +0.000 HD
ATOM     14  H   UNL     1      -5.097  -2.671  22.338  0.00  0.00    +0.000 HD
ATOM     15  H   UNL     1      -5.898  -2.118  20.850  0.00  0.00    +0.000 HD
ATOM     16  H   UNL     1      -3.534  -4.150  20.825  0.00  0.00    +0.000 HD
ATOM     17  H   UNL     1      -3.360  -6.281  19.594  0.00  0.00    +0.000 HD
ATOM     18  H   UNL     1      -5.387  -7.582  18.992  0.00  0.00    +0.000 HD
ATOM     19  H   UNL     1     -10.006  -5.496  20.375  0.00  0.00    +0.000 HD
ATOM     20  H   UNL     1      -9.341  -3.565  22.086  0.00  0.00    +0.000 HD
ATOM     21  H   UNL     1      -8.682  -2.654  20.703  0.00  0.00    +0.000 HD
ENDROOT
BRANCH   8  22
ATOM     22  C   UNL     1      -8.595  -7.687  19.043  0.00  0.00    +0.000 C 
ATOM     23  C   UNL     1      -9.117  -7.779  17.810  0.00  0.00    +0.000 C 
ATOM     24  C   UNL     1      -9.492  -9.196  17.600  0.00  0.00    +0.000 C 
ATOM     25  O   UNL     1     -10.022  -9.670  16.613  0.00  0.00    +0.000 OA
ATOM     26  N   UNL     1      -9.148  -9.873  18.716  0.00  0.00    +0.000 N 
ATOM     27  C   UNL     1      -8.599  -9.044  19.627  0.00  0.00    +0.000 C 
ATOM     28  O   UNL     1      -8.179  -9.372  20.725  0.00  0.00    +0.000 OA
ATOM     29  H   UNL     1      -9.288 -10.860  18.852  0.00  0.00    +0.000 HD
BRANCH  23  30
ATOM     30  C   UNL     1      -9.310  -6.771  16.837  0.00  0.00    +0.000 A 
ATOM     31  C   UNL     1      -8.569  -6.646  15.683  0.00  0.00    +0.000 A 
ATOM     32  N   UNL     1      -9.019  -5.535  15.018  0.00  0.00    +0.000 N 
ATOM     33  C   UNL     1     -10.041  -4.938  15.724  0.00  0.00    +0.000 A 
ATOM     34  C   UNL     1     -10.772  -3.778  15.442  0.00  0.00    +0.000 A 
ATOM     35  C   UNL     1     -11.757  -3.409  16.356  0.00  0.00    +0.000 A 
ATOM     36  F   UNL     1     -12.469  -2.296  16.128  0.00  0.00    +0.000 F 
ATOM     37  C   UNL     1     -12.020  -4.157  17.495  0.00  0.00    +0.000 A 
ATOM     38  C   UNL     1     -11.280  -5.315  17.765  0.00  0.00    +0.000 A 
ATOM     39  C   UNL     1     -10.262  -5.710  16.869  0.00  0.00    +0.000 A 
ATOM     40  H   UNL     1      -7.754  -7.233  15.281  0.00  0.00    +0.000 HD
ATOM     41  H   UNL     1      -8.646  -5.187  14.147  0.00  0.00    +0.000 HD
ATOM     42  H   UNL     1     -10.584  -3.176  14.561  0.00  0.00    +0.000 HD
ATOM     43  H   UNL     1     -12.797  -3.831  18.181  0.00  0.00    +0.000 HD
ATOM     44  H   UNL     1     -11.486  -5.894  18.661  0.00  0.00    +0.000 HD
ENDBRANCH  23  30
ENDBRANCH   8  22
BRANCH   1  45
ATOM     45  C   UNL     1      -7.539  -1.485  22.975  0.00  0.00    +0.000 C 
ATOM     46  H   UNL     1      -7.993  -1.585  23.969  0.00  0.00    +0.000 HD
ATOM     47  H   UNL     1      -6.587  -0.963  23.126  0.00  0.00    +0.000 HD
BRANCH  45  48
ATOM     48  N   UNL     1      -8.392  -0.637  22.136  0.00  0.00    +0.000 NA
ATOM     49  H   UNL     1      -7.814   0.092  21.712  0.00  0.00    +0.000 HD
BRANCH  48  50
ATOM     50  C   UNL     1      -9.462   0.008  22.888  0.00  0.00    +0.000 C 
ATOM     51  H   UNL     1      -9.654  -0.559  23.803  0.00  0.00    +0.000 HD
ATOM     52  H   UNL     1     -10.389   0.052  22.308  0.00  0.00    +0.000 HD
ATOM     53  H   UNL     1      -9.188   1.019  23.204  0.00  0.00    +0.000 HD
ENDBRANCH  48  50
ENDBRANCH  45  48
ENDBRANCH   1  45
TORSDOF 5
ENDMDL
MODEL 8
REMARK VINA RESULT:   -10.425      3.962      8.241
REMARK INTER + INTRA:         -12.790
REMARK INTER:                 -11.239
REMARK INTRA:                  -1.550
REMARK UNBOUND:                 0.378
REMARK  Name = 
REMARK  5 active torsions:
REMARK  status: ('A' for Active; 'I' for Inactive)
REMARK    1  A    between atoms: C_1  and  N_2
REMARK    2  A    between atoms: N_2  and  C_3
REMARK    3  A    between atoms: C_3  and  C_4
REMARK    4  A    between atoms: C_11  and  C_12
REMARK    5  A    between atoms: C_13  and  C_14
REMARK                            x       y       z     vdW  Elec       q    Type
REMARK                         _______ _______ _______ _____ _____    ______ ____
ROOT
ATOM      1  C   UNL     1      -8.830  -6.350  17.009  0.00  0.00    +0.000 C 
ATOM      2  C   UNL     1      -8.293  -6.727  18.417  0.00  0.00    +0.000 C 
ATOM      3  C   UNL     1      -8.105  -5.497  19.252  0.00  0.00    +0.000 A 
ATOM      4  C   UNL     1      -7.268  -5.408  20.364  0.00  0.00    +0.000 A 
ATOM      5  C   UNL     1      -7.235  -4.243  21.135  0.00  0.00    +0.000 A 
ATOM      6  C   UNL     1      -8.045  -3.135  20.821  0.00  0.00    +0.000 A 
ATOM      7  C   UNL     1      -8.911  -3.214  19.713  0.00  0.00    +0.000 A 
ATOM      8  C   UNL     1      -9.890  -2.379  19.090  0.00  0.00    +0.000 A 
ATOM      9  C   UNL     1     -10.434  -3.066  18.016  0.00  0.00    +0.000 A 
ATOM     10  N   UNL     1      -9.828  -4.284  17.976  0.00  0.00    +0.000 N 
ATOM     11  C   UNL     1      -8.902  -4.387  18.982  0.00  0.00    +0.000 A 
ATOM     12  C   UNL     1     -10.067  -5.409  17.078  0.00  0.00    +0.000 C 
ATOM     13  H   UNL     1      -8.023  -5.791  16.515  0.00  0.00    +0.000 HD
ATOM     14  H   UNL     1      -7.343  -7.265  18.318  0.00  0.00    +0.000 HD
ATOM     15  H   UNL     1      -9.006  -7.377  18.939  0.00  0.00    +0.000 HD
ATOM     16  H   UNL     1      -6.651  -6.257  20.647  0.00  0.00    +0.000 HD
ATOM     17  H   UNL     1      -6.590  -4.201  22.009  0.00  0.00    +0.000 HD
ATOM     18  H   UNL     1      -8.016  -2.248  21.445  0.00  0.00    +0.000 HD
ATOM     19  H   UNL     1     -11.205  -2.793  17.306  0.00  0.00    +0.000 HD
ATOM     20  H   UNL     1     -10.300  -4.987  16.094  0.00  0.00    +0.000 HD
ATOM     21  H   UNL     1     -10.950  -5.932  17.459  0.00  0.00    +0.000 HD
ENDROOT
BRANCH   8  22
ATOM     22  C   UNL     1     -10.286  -1.084  19.497  0.00  0.00    +0.000 C 
ATOM     23  C   UNL     1     -10.786  -0.684  20.676  0.00  0.00    +0.000 C 
ATOM     24  C   UNL     1     -11.070   0.765  20.561  0.00  0.00    +0.000 C 
ATOM     25  O   UNL     1     -11.558   1.481  21.415  0.00  0.00    +0.000 OA
ATOM     26  N   UNL     1     -10.697   1.150  19.322  0.00  0.00    +0.000 N 
ATOM     27  C   UNL     1     -10.212   0.105  18.622  0.00  0.00    +0.000 C 
ATOM     28  O   UNL     1      -9.786   0.150  17.480  0.00  0.00    +0.000 OA
ATOM     29  H   UNL     1     -10.778   2.088  18.968  0.00  0.00    +0.000 HD
BRANCH  23  30
ATOM     30  C   UNL     1     -11.030  -1.433  21.850  0.00  0.00    +0.000 A 
ATOM     31  C   UNL     1     -12.073  -2.317  22.012  0.00  0.00    +0.000 A 
ATOM     32  N   UNL     1     -12.003  -2.815  23.287  0.00  0.00    +0.000 N 
ATOM     33  C   UNL     1     -10.930  -2.267  23.955  0.00  0.00    +0.000 A 
ATOM     34  C   UNL     1     -10.494  -2.460  25.271  0.00  0.00    +0.000 A 
ATOM     35  C   UNL     1      -9.362  -1.756  25.677  0.00  0.00    +0.000 A 
ATOM     36  F   UNL     1      -8.923  -1.904  26.935  0.00  0.00    +0.000 F 
ATOM     37  C   UNL     1      -8.681  -0.904  24.820  0.00  0.00    +0.000 A 
ATOM     38  C   UNL     1      -9.128  -0.720  23.505  0.00  0.00    +0.000 A 
ATOM     39  C   UNL     1     -10.283  -1.405  23.065  0.00  0.00    +0.000 A 
ATOM     40  H   UNL     1     -12.867  -2.626  21.345  0.00  0.00    +0.000 HD
ATOM     41  H   UNL     1     -12.653  -3.473  23.692  0.00  0.00    +0.000 HD
ATOM     42  H   UNL     1     -11.011  -3.117  25.961  0.00  0.00    +0.000 HD
ATOM     43  H   UNL     1      -7.803  -0.374  25.179  0.00  0.00    +0.000 HD
ATOM     44  H   UNL     1      -8.594  -0.048  22.840  0.00  0.00    +0.000 HD
ENDBRANCH  23  30
ENDBRANCH   8  22
BRANCH   1  45
ATOM     45  C   UNL     1      -9.113  -7.622  16.194  0.00  0.00    +0.000 C 
ATOM     46  H   UNL     1      -8.680  -7.525  15.190  0.00  0.00    +0.000 HD
ATOM     47  H   UNL     1      -8.607  -8.475  16.662  0.00  0.00    +0.000 HD
BRANCH  45  48
ATOM     48  N   UNL     1     -10.538  -7.951  16.077  0.00  0.00    +0.000 NA
ATOM     49  H   UNL     1     -10.996  -7.743  16.967  0.00  0.00    +0.000 HD
BRANCH  48  50
ATOM     50  C   UNL     1     -10.770  -9.355  15.761  0.00  0.00    +0.000 C 
ATOM     51  H   UNL     1     -10.207  -9.981  16.459  0.00  0.00    +0.000 HD
ATOM     52  H   UNL     1     -10.447  -9.596  14.743  0.00  0.00    +0.000 HD
ATOM     53  H   UNL     1     -11.822  -9.633  15.879  0.00  0.00    +0.000 HD
ENDBRANCH  48  50
ENDBRANCH  45  48
ENDBRANCH   1  45
TORSDOF 5
ENDMDL
MODEL 9
REMARK VINA RESULT:   -10.412      3.643      8.118
REMARK INTER + INTRA:         -12.773
REMARK INTER:                 -11.388
REMARK INTRA:                  -1.385
REMARK UNBOUND:                 0.378
REMARK  Name = 
REMARK  5 active torsions:
REMARK  status: ('A' for Active; 'I' for Inactive)
REMARK    1  A    between atoms: C_1  and  N_2
REMARK    2  A    between atoms: N_2  and  C_3
REMARK    3  A    between atoms: C_3  and  C_4
REMARK    4  A    between atoms: C_11  and  C_12
REMARK    5  A    between atoms: C_13  and  C_14
REMARK                            x       y       z     vdW  Elec       q    Type
REMARK                         _______ _______ _______ _____ _____    ______ ____
ROOT
ATOM      1  C   UNL     1      -9.483  -7.655  18.982  0.00  0.00    +0.000 C 
ATOM      2  C   UNL     1      -9.957  -7.566  17.505  0.00  0.00    +0.000 C 
ATOM      3  C   UNL     1     -10.549  -6.218  17.226  0.00  0.00    +0.000 A 
ATOM      4  C   UNL     1     -11.433  -5.935  16.185  0.00  0.00    +0.000 A 
ATOM      5  C   UNL     1     -11.853  -4.623  15.950  0.00  0.00    +0.000 A 
ATOM      6  C   UNL     1     -11.396  -3.554  16.744  0.00  0.00    +0.000 A 
ATOM      7  C   UNL     1     -10.487  -3.819  17.788  0.00  0.00    +0.000 A 
ATOM      8  C   UNL     1      -9.771  -3.062  18.767  0.00  0.00    +0.000 A 
ATOM      9  C   UNL     1      -8.990  -3.933  19.509  0.00  0.00    +0.000 A 
ATOM     10  N   UNL     1      -9.201  -5.181  19.009  0.00  0.00    +0.000 N 
ATOM     11  C   UNL     1     -10.106  -5.134  17.980  0.00  0.00    +0.000 A 
ATOM     12  C   UNL     1      -8.589  -6.449  19.392  0.00  0.00    +0.000 C 
ATOM     13  H   UNL     1     -10.392  -7.610  19.597  0.00  0.00    +0.000 HD
ATOM     14  H   UNL     1     -10.697  -8.351  17.307  0.00  0.00    +0.000 HD
ATOM     15  H   UNL     1      -9.112  -7.706  16.821  0.00  0.00    +0.000 HD
ATOM     16  H   UNL     1     -11.782  -6.735  15.539  0.00  0.00    +0.000 HD
ATOM     17  H   UNL     1     -12.528  -4.421  15.121  0.00  0.00    +0.000 HD
ATOM     18  H   UNL     1     -11.722  -2.542  16.531  0.00  0.00    +0.000 HD
ATOM     19  H   UNL     1      -8.299  -3.760  20.325  0.00  0.00    +0.000 HD
ATOM     20  H   UNL     1      -8.440  -6.416  20.476  0.00  0.00    +0.000 HD
ATOM     21  H   UNL     1      -7.612  -6.487  18.899  0.00  0.00    +0.000 HD
ENDROOT
BRANCH   8  22
ATOM     22  C   UNL     1      -9.802  -1.661  18.948  0.00  0.00    +0.000 C 
ATOM     23  C   UNL     1     -10.213  -0.954  20.012  0.00  0.00    +0.000 C 
ATOM     24  C   UNL     1     -10.075   0.479  19.665  0.00  0.00    +0.000 C 
ATOM     25  O   UNL     1     -10.373   1.429  20.363  0.00  0.00    +0.000 OA
ATOM     26  N   UNL     1      -9.563   0.542  18.417  0.00  0.00    +0.000 N 
ATOM     27  C   UNL     1      -9.365  -0.695  17.918  0.00  0.00    +0.000 C 
ATOM     28  O   UNL     1      -8.900  -0.952  16.820  0.00  0.00    +0.000 OA
ATOM     29  H   UNL     1      -9.363   1.396  17.925  0.00  0.00    +0.000 HD
BRANCH  23  30
ATOM     30  C   UNL     1     -10.701  -1.408  21.259  0.00  0.00    +0.000 A 
ATOM     31  C   UNL     1     -12.034  -1.558  21.570  0.00  0.00    +0.000 A 
ATOM     32  N   UNL     1     -12.113  -1.975  22.873  0.00  0.00    +0.000 N 
ATOM     33  C   UNL     1     -10.851  -2.098  23.412  0.00  0.00    +0.000 A 
ATOM     34  C   UNL     1     -10.455  -2.464  24.704  0.00  0.00    +0.000 A 
ATOM     35  C   UNL     1      -9.087  -2.496  24.965  0.00  0.00    +0.000 A 
ATOM     36  F   UNL     1      -8.669  -2.829  26.195  0.00  0.00    +0.000 F 
ATOM     37  C   UNL     1      -8.146  -2.192  23.992  0.00  0.00    +0.000 A 
ATOM     38  C   UNL     1      -8.556  -1.827  22.704  0.00  0.00    +0.000 A 
ATOM     39  C   UNL     1      -9.936  -1.766  22.408  0.00  0.00    +0.000 A 
ATOM     40  H   UNL     1     -12.933  -1.392  20.992  0.00  0.00    +0.000 HD
ATOM     41  H   UNL     1     -12.970  -2.149  23.378  0.00  0.00    +0.000 HD
ATOM     42  H   UNL     1     -11.171  -2.703  25.482  0.00  0.00    +0.000 HD
ATOM     43  H   UNL     1      -7.089  -2.230  24.241  0.00  0.00    +0.000 HD
ATOM     44  H   UNL     1      -7.816  -1.584  21.947  0.00  0.00    +0.000 HD
ENDBRANCH  23  30
ENDBRANCH   8  22
BRANCH   1  45
ATOM     45  C   UNL     1      -8.789  -9.004  19.233  0.00  0.00    +0.000 C 
ATOM     46  H   UNL     1      -7.739  -8.837  19.507  0.00  0.00    +0.000 HD
ATOM     47  H   UNL     1      -9.253  -9.498  20.095  0.00  0.00    +0.000 HD
BRANCH  45  48
ATOM     48  N   UNL     1      -8.851  -9.927  18.095  0.00  0.00    +0.000 NA
ATOM     49  H   UNL     1      -9.810  -9.947  17.741  0.00  0.00    +0.000 HD
BRANCH  48  50
ATOM     50  C   UNL     1      -8.465 -11.288  18.449  0.00  0.00    +0.000 C 
ATOM     51  H   UNL     1      -8.286 -11.862  17.535  0.00  0.00    +0.000 HD
ATOM     52  H   UNL     1      -9.250 -11.790  19.023  0.00  0.00    +0.000 HD
ATOM     53  H   UNL     1      -7.531 -11.315  19.017  0.00  0.00    +0.000 HD
ENDBRANCH  48  50
ENDBRANCH  45  48
ENDBRANCH   1  45
TORSDOF 5
ENDMDL
