
 OpenBabel01112422573D

 67 70  0  0  0  0  0  0  0  0999 V2000
   13.1373   -9.2995    0.9277 C   0  0  0  0  0  0  0  0  0  0  0  0
   12.3749   -8.1198    0.6677 O   0  0  0  0  0  0  0  0  0  0  0  0
   12.7451   -7.4624   -0.4735 C   0  0  0  0  0  0  0  0  0  0  0  0
   13.6202   -7.8398   -1.2402 O   0  0  0  0  0  0  0  0  0  0  0  0
   11.9174   -6.1936   -0.6067 C   0  0  0  0  0  0  0  0  0  0  0  0
   12.3005   -5.4693   -1.7711 O   0  0  0  0  0  0  0  0  0  0  0  0
   11.5948   -4.3257   -2.0219 C   0  0  0  0  0  0  0  0  0  0  0  0
   10.9597   -3.5428   -1.0582 C   0  0  0  0  0  0  0  0  0  0  0  0
   10.2727   -2.3904   -1.4410 C   0  0  0  0  0  0  0  0  0  0  0  0
   10.2161   -2.0182   -2.7853 C   0  0  0  0  0  0  0  0  0  0  0  0
   10.8713   -2.7793   -3.7523 C   0  0  0  0  0  0  0  0  0  0  0  0
   10.9110   -2.4415   -5.1157 N   0  0  0  0  0  0  0  0  0  0  0  0
   10.2270   -1.4325   -5.7557 C   0  0  0  0  0  0  0  0  0  0  0  0
    9.3081   -0.7889   -5.2521 O   0  0  0  0  0  0  0  0  0  0  0  0
   10.6311   -1.2141   -7.2293 C   0  0  0  0  0  0  0  0  0  0  0  0
   12.1844   -1.4211   -7.4391 C   0  0  0  0  0  0  0  0  0  0  0  0
   12.8218   -2.7234   -7.0895 N   0  0  0  0  0  0  0  0  0  0  0  0
   12.4613   -3.8573   -7.9480 C   0  0  0  0  0  0  0  0  0  0  0  0
   14.2902   -2.5803   -7.1798 C   0  0  0  0  0  0  0  0  0  0  0  0
   10.3335    0.2927   -7.5453 C   0  0  0  0  0  0  0  0  0  0  0  0
    8.8742    0.5804   -7.9169 C   0  0  0  0  0  0  0  0  0  0  0  0
    8.5599   -0.3178   -9.0112 N   0  0  0  0  0  0  0  0  0  0  0  0
    7.8643    0.0978  -10.1360 C   0  0  0  0  0  0  0  0  0  0  0  0
    6.9286   -0.7672  -10.6365 N   0  0  0  0  0  0  0  0  0  0  0  0
    6.2703   -0.4775  -11.7675 C   0  0  0  0  0  0  0  0  0  0  0  0
    6.4019    0.6088  -12.5318 N   0  0  0  0  0  0  0  0  0  0  0  0
    7.3307    1.4412  -12.0421 C   0  0  0  0  0  0  0  0  0  0  0  0
    7.6761    2.6004  -12.6663 N   0  0  0  0  0  0  0  0  0  0  0  0
    8.6795    3.2111  -11.9842 C   0  0  0  0  0  0  0  0  0  0  0  0
    9.0075    2.4249  -10.8933 C   0  0  0  0  0  0  0  0  0  0  0  0
   10.1347    2.7613   -9.9869 C   0  0  0  0  0  0  0  0  0  0  0  0
    8.1050    1.2795  -10.8927 C   0  0  0  0  0  0  0  0  0  0  0  0
    8.4270   -1.6909   -8.5511 C   0  0  0  0  0  0  0  0  0  0  0  0
    9.8219   -2.1684   -8.1467 C   0  0  0  0  0  0  0  0  0  0  0  0
   11.5722   -3.9238   -3.3585 C   0  0  0  0  0  0  0  0  0  0  0  0
   12.7356   -9.7697    1.8294 H   0  0  0  0  0  0  0  0  0  0  0  0
   14.1849   -9.0397    1.1099 H   0  0  0  0  0  0  0  0  0  0  0  0
   13.0507  -10.0088    0.0990 H   0  0  0  0  0  0  0  0  0  0  0  0
   12.1085   -5.6006    0.2927 H   0  0  0  0  0  0  0  0  0  0  0  0
   10.8618   -6.4832   -0.6802 H   0  0  0  0  0  0  0  0  0  0  0  0
   10.9977   -3.7829   -0.0028 H   0  0  0  0  0  0  0  0  0  0  0  0
    9.7895   -1.7692   -0.6922 H   0  0  0  0  0  0  0  0  0  0  0  0
    9.6839   -1.1074   -3.0379 H   0  0  0  0  0  0  0  0  0  0  0  0
   11.6126   -2.9317   -5.6750 H   0  0  0  0  0  0  0  0  0  0  0  0
   12.6677   -0.6625   -6.8039 H   0  0  0  0  0  0  0  0  0  0  0  0
   12.4471   -1.1609   -8.4741 H   0  0  0  0  0  0  0  0  0  0  0  0
   11.3998   -4.0864   -7.9262 H   0  0  0  0  0  0  0  0  0  0  0  0
   12.9339   -4.7692   -7.5627 H   0  0  0  0  0  0  0  0  0  0  0  0
   12.7715   -3.7178   -8.9887 H   0  0  0  0  0  0  0  0  0  0  0  0
   14.6544   -1.7587   -6.5549 H   0  0  0  0  0  0  0  0  0  0  0  0
   14.6180   -2.4003   -8.2118 H   0  0  0  0  0  0  0  0  0  0  0  0
   14.7827   -3.4918   -6.8212 H   0  0  0  0  0  0  0  0  0  0  0  0
   10.9705    0.5826   -8.3837 H   0  0  0  0  0  0  0  0  0  0  0  0
   10.6240    0.9367   -6.7059 H   0  0  0  0  0  0  0  0  0  0  0  0
    8.7148    1.6283   -8.1582 H   0  0  0  0  0  0  0  0  0  0  0  0
    8.2023    0.3968   -7.0705 H   0  0  0  0  0  0  0  0  0  0  0  0
    5.5516   -1.2186  -12.1081 H   0  0  0  0  0  0  0  0  0  0  0  0
    7.2563    2.9129  -13.5282 H   0  0  0  0  0  0  0  0  0  0  0  0
    9.1114    4.1377  -12.3423 H   0  0  0  0  0  0  0  0  0  0  0  0
   10.7468    3.5679  -10.4004 H   0  0  0  0  0  0  0  0  0  0  0  0
   10.7938    1.9037   -9.8720 H   0  0  0  0  0  0  0  0  0  0  0  0
    9.7794    3.1145   -9.0142 H   0  0  0  0  0  0  0  0  0  0  0  0
    8.0567   -2.3797   -9.3194 H   0  0  0  0  0  0  0  0  0  0  0  0
    7.7360   -1.7587   -7.7014 H   0  0  0  0  0  0  0  0  0  0  0  0
   10.3843   -2.3072   -9.0828 H   0  0  0  0  0  0  0  0  0  0  0  0
    9.6897   -3.1411   -7.6765 H   0  0  0  0  0  0  0  0  0  0  0  0
   12.0934   -4.5307   -4.0965 H   0  0  0  0  0  0  0  0  0  0  0  0
  1  2  1  0  0  0  0
  1 36  1  0  0  0  0
  1 37  1  0  0  0  0
  1 38  1  0  0  0  0
  2  3  1  0  0  0  0
  3  4  2  0  0  0  0
  3  5  1  0  0  0  0
  5  6  1  0  0  0  0
  5 39  1  0  0  0  0
  5 40  1  0  0  0  0
  6  7  1  0  0  0  0
  7  8  1  0  0  0  0
  7 35  2  0  0  0  0
  8  9  2  0  0  0  0
  8 41  1  0  0  0  0
  9 10  1  0  0  0  0
  9 42  1  0  0  0  0
 10 11  2  0  0  0  0
 10 43  1  0  0  0  0
 11 12  1  0  0  0  0
 11 35  1  0  0  0  0
 12 13  1  0  0  0  0
 12 44  1  0  0  0  0
 13 14  2  0  0  0  0
 13 15  1  0  0  0  0
 15 16  1  0  0  0  0
 15 20  1  0  0  0  0
 15 34  1  0  0  0  0
 16 17  1  0  0  0  0
 16 45  1  0  0  0  0
 16 46  1  0  0  0  0
 17 18  1  0  0  0  0
 17 19  1  0  0  0  0
 18 47  1  0  0  0  0
 18 48  1  0  0  0  0
 18 49  1  0  0  0  0
 19 50  1  0  0  0  0
 19 51  1  0  0  0  0
 19 52  1  0  0  0  0
 20 21  1  0  0  0  0
 20 53  1  0  0  0  0
 20 54  1  0  0  0  0
 21 22  1  0  0  0  0
 21 55  1  0  0  0  0
 21 56  1  0  0  0  0
 22 23  1  0  0  0  0
 22 33  1  0  0  0  0
 23 24  1  0  0  0  0
 23 32  2  0  0  0  0
 24 25  2  0  0  0  0
 25 26  1  0  0  0  0
 25 57  1  0  0  0  0
 26 27  2  0  0  0  0
 27 28  1  0  0  0  0
 27 32  1  0  0  0  0
 28 29  1  0  0  0  0
 28 58  1  0  0  0  0
 29 30  2  0  0  0  0
 29 59  1  0  0  0  0
 30 31  1  0  0  0  0
 30 32  1  0  0  0  0
 31 60  1  0  0  0  0
 31 61  1  0  0  0  0
 31 62  1  0  0  0  0
 33 34  1  0  0  0  0
 33 63  1  0  0  0  0
 33 64  1  0  0  0  0
 34 65  1  0  0  0  0
 34 66  1  0  0  0  0
 35 67  1  0  0  0  0
M  END
$$$$
