REMARK  Name = 
REMARK  1 active torsions:
REMARK  status: ('A' for Active; 'I' for Inactive)
REMARK    1  A    between atoms: C_6  and  C_7
REMARK                            x       y       z     vdW  Elec       q    Type
REMARK                         _______ _______ _______ _____ _____    ______ ____
ROOT
ATOM      1  C   UNL     1      -0.317   0.520   0.652  0.00  0.00    +0.000 A 
ATOM      2  C   UNL     1      -0.406   1.516   1.612  0.00  0.00    +0.000 A 
ATOM      3  N   UNL     1       0.433   2.540   1.254  0.00  0.00    +0.000 N 
ATOM      4  C   UNL     1       1.064   2.243   0.068  0.00  0.00    +0.000 A 
ATOM      5  C   UNL     1       1.995   2.994  -0.664  0.00  0.00    +0.000 A 
ATOM      6  C   UNL     1       2.481   2.441  -1.852  0.00  0.00    +0.000 A 
ATOM      7  C   UNL     1       2.048   1.190  -2.282  0.00  0.00    +0.000 A 
ATOM      8 BR   UNL     1       2.717   0.479  -3.903  0.00  0.00    +0.000 Br
ATOM      9  C   UNL     1       1.123   0.448  -1.539  0.00  0.00    +0.000 A 
ATOM     10  C   UNL     1       0.618   0.982  -0.333  0.00  0.00    +0.000 A 
ATOM     11  H   UNL     1      -0.973   1.581   2.530  0.00  0.00    +0.000 HD
ATOM     12  H   UNL     1       0.568   3.392   1.775  0.00  0.00    +0.000 HD
ATOM     13  H   UNL     1       2.330   3.969  -0.326  0.00  0.00    +0.000 HD
ATOM     14  H   UNL     1       3.199   3.003  -2.441  0.00  0.00    +0.000 HD
ATOM     15  H   UNL     1       0.792  -0.529  -1.877  0.00  0.00    +0.000 HD
ENDROOT
BRANCH   1  21
ATOM     16  N   UNL     1      -0.423  -4.121  -0.129  0.00  0.00    +0.000 N 
ATOM     17  C   UNL     1      -1.067  -2.995   0.316  0.00  0.00    +0.000 A 
ATOM     18  N   UNL     1      -2.268  -3.162   0.879  0.00  0.00    +0.000 NA
ATOM     19  C   UNL     1      -2.852  -2.062   1.384  0.00  0.00    +0.000 A 
ATOM     20  C   UNL     1      -2.282  -0.816   1.343  0.00  0.00    +0.000 A 
ATOM     21  C   UNL     1      -1.050  -0.742   0.729  0.00  0.00    +0.000 A 
ATOM     22  N   UNL     1      -0.439  -1.821   0.195  0.00  0.00    +0.000 NA
ATOM     23  H   UNL     1      -1.025  -4.922  -0.242  0.00  0.00    +0.000 HD
ATOM     24  H   UNL     1       0.336  -3.949  -0.768  0.00  0.00    +0.000 HD
ATOM     25  H   UNL     1      -3.819  -2.223   1.850  0.00  0.00    +0.000 HD
ATOM     26  H   UNL     1      -2.782   0.044   1.769  0.00  0.00    +0.000 HD
ENDBRANCH   1  21
TORSDOF 1
