REMARK  Name = 
REMARK  3 active torsions:
REMARK  status: ('A' for Active; 'I' for Inactive)
REMARK    1  A    between atoms: C_2  and  O_3
REMARK    2  A    between atoms: C_2  and  C_4
REMARK    3  A    between atoms: C_4  and  C_5
REMARK                            x       y       z     vdW  Elec       q    Type
REMARK                         _______ _______ _______ _____ _____    ______ ____
ROOT
ATOM      1  C   UNL     1      -1.597  -0.882   0.042  0.00  0.00    +0.000 A 
ATOM      2  C   UNL     1      -0.573  -1.877   0.096  0.00  0.00    +0.000 A 
ATOM      3  C   UNL     1      -0.636  -3.290   0.162  0.00  0.00    +0.000 A 
ATOM      4  C   UNL     1       0.529  -4.050   0.211  0.00  0.00    +0.000 A 
ATOM      5  C   UNL     1       1.759  -3.420   0.206  0.00  0.00    +0.000 A 
ATOM      6  C   UNL     1       1.852  -2.024   0.156  0.00  0.00    +0.000 A 
ATOM      7  C   UNL     1       0.680  -1.238   0.103  0.00  0.00    +0.000 A 
ATOM      8  N   UNL     1       0.434   0.142   0.070  0.00  0.00    +0.000 N 
ATOM      9  C   UNL     1      -0.946   0.335  -0.002  0.00  0.00    +0.000 A 
ATOM     10  N   UNL     1      -1.491   1.600  -0.072  0.00  0.00    +0.000 N 
ATOM     11  C   UNL     1      -0.713   2.731  -0.029  0.00  0.00    +0.000 A 
ATOM     12  O   UNL     1      -1.213   3.848  -0.086  0.00  0.00    +0.000 OA
ATOM     13  C   UNL     1       0.752   2.547   0.085  0.00  0.00    +0.000 A 
ATOM     14  C   UNL     1       1.561   3.693   0.157  0.00  0.00    +0.000 A 
ATOM     15  C   UNL     1       2.946   3.573   0.245  0.00  0.00    +0.000 A 
ATOM     16  C   UNL     1       3.520   2.306   0.265  0.00  0.00    +0.000 A 
ATOM     17  C   UNL     1       2.717   1.162   0.205  0.00  0.00    +0.000 A 
ATOM     18  C   UNL     1       1.325   1.261   0.116  0.00  0.00    +0.000 A 
ATOM     19  H   UNL     1      -1.596  -3.799   0.177  0.00  0.00    +0.000 HD
ATOM     20  H   UNL     1       0.469  -5.134   0.257  0.00  0.00    +0.000 HD
ATOM     21  H   UNL     1       2.669  -4.016   0.249  0.00  0.00    +0.000 HD
ATOM     22  H   UNL     1       2.848  -1.608   0.163  0.00  0.00    +0.000 HD
ATOM     23  H   UNL     1      -2.489   1.761  -0.143  0.00  0.00    +0.000 HD
ATOM     24  H   UNL     1       1.111   4.684   0.146  0.00  0.00    +0.000 HD
ATOM     25  H   UNL     1       3.570   4.462   0.297  0.00  0.00    +0.000 HD
ATOM     26  H   UNL     1       4.602   2.209   0.329  0.00  0.00    +0.000 HD
ATOM     27  H   UNL     1       3.246   0.225   0.235  0.00  0.00    +0.000 HD
ENDROOT
BRANCH   1  28
ATOM     28  C   UNL     1      -3.065  -1.202   0.124  0.00  0.00    +0.000 C 
ATOM     29  H   UNL     1      -3.268  -2.192  -0.301  0.00  0.00    +0.000 HD
ATOM     30  H   UNL     1      -3.345  -1.249   1.183  0.00  0.00    +0.000 HD
BRANCH  28  32
ATOM     31  O   UNL     1      -4.951   0.285  -0.006  0.00  0.00    +0.000 OA
ATOM     32  C   UNL     1      -4.002  -0.249  -0.564  0.00  0.00    +0.000 C 
BRANCH  32  33
ATOM     33  O   UNL     1      -3.747  -0.056  -1.877  0.00  0.00    +0.000 OA
ATOM     34  H   UNL     1      -2.960  -0.537  -2.199  0.00  0.00    +0.000 HD
ENDBRANCH  32  33
ENDBRANCH  28  32
ENDBRANCH   1  28
TORSDOF 3
