REMARK  Name = 
REMARK  6 active torsions:
REMARK  status: ('A' for Active; 'I' for Inactive)
REMARK    1  A    between atoms: C_5  and  O_6
REMARK    2  A    between atoms: C_7  and  O_8
REMARK    3  A    between atoms: C_13  and  O_14
REMARK    4  A    between atoms: C_15  and  O_16
REMARK    5  A    between atoms: N_19  and  C_20
REMARK    6  A    between atoms: C_20  and  C_21
REMARK                            x       y       z     vdW  Elec       q    Type
REMARK                         _______ _______ _______ _____ _____    ______ ____
ROOT
ATOM      1  O   UNL     1      -2.707   0.920  -0.405  0.00  0.00    +0.000 OA
ATOM      2  C   UNL     1      -1.488   0.829  -0.558  0.00  0.00    +0.000 A 
ATOM      3  C   UNL     1      -0.699   2.080  -0.613  0.00  0.00    +0.000 A 
ATOM      4  C   UNL     1      -1.406   3.299  -0.606  0.00  0.00    +0.000 A 
ATOM      5  C   UNL     1      -0.704   4.490  -0.679  0.00  0.00    +0.000 A 
ATOM      6  C   UNL     1       0.679   4.467  -0.751  0.00  0.00    +0.000 A 
ATOM      7  C   UNL     1       1.381   3.265  -0.759  0.00  0.00    +0.000 A 
ATOM      8  C   UNL     1       0.704   2.031  -0.693  0.00  0.00    +0.000 A 
ATOM      9  C   UNL     1       1.386   0.719  -0.712  0.00  0.00    +0.000 A 
ATOM     10  C   UNL     1       2.797   0.608  -0.709  0.00  0.00    +0.000 A 
ATOM     11  C   UNL     1       3.416  -0.637  -0.733  0.00  0.00    +0.000 A 
ATOM     12  C   UNL     1       2.652  -1.789  -0.758  0.00  0.00    +0.000 A 
ATOM     13  C   UNL     1       1.266  -1.721  -0.757  0.00  0.00    +0.000 A 
ATOM     14  C   UNL     1       0.615  -0.472  -0.729  0.00  0.00    +0.000 A 
ATOM     15  N   UNL     1      -0.816  -0.387  -0.689  0.00  0.00    +0.000 N 
ATOM     16  H   UNL     1      -2.491   3.295  -0.550  0.00  0.00    +0.000 HD
ATOM     17  H   UNL     1       2.461   3.331  -0.829  0.00  0.00    +0.000 HD
ATOM     18  H   UNL     1       3.426   1.490  -0.682  0.00  0.00    +0.000 HD
ATOM     19  H   UNL     1       0.728  -2.661  -0.750  0.00  0.00    +0.000 HD
ENDROOT
BRANCH  15  20
ATOM     20  C   UNL     1      -1.652  -1.590  -0.716  0.00  0.00    +0.000 C 
ATOM     21  H   UNL     1      -1.255  -2.273  -1.475  0.00  0.00    +0.000 HD
ATOM     22  H   UNL     1      -2.658  -1.326  -1.065  0.00  0.00    +0.000 HD
BRANCH  20  23
ATOM     23  C   UNL     1      -1.800  -2.311   0.610  0.00  0.00    +0.000 A 
ATOM     24  C   UNL     1      -1.366  -1.766   1.829  0.00  0.00    +0.000 A 
ATOM     25  C   UNL     1      -1.474  -2.494   3.013  0.00  0.00    +0.000 A 
ATOM     26  C   UNL     1      -2.035  -3.769   3.003  0.00  0.00    +0.000 A 
ATOM     27  C   UNL     1      -2.517  -4.304   1.810  0.00  0.00    +0.000 A 
ATOM     28  C   UNL     1      -2.403  -3.579   0.623  0.00  0.00    +0.000 A 
ATOM     29  H   UNL     1      -0.934  -0.772   1.872  0.00  0.00    +0.000 HD
ATOM     30  H   UNL     1      -1.112  -2.068   3.945  0.00  0.00    +0.000 HD
ATOM     31  H   UNL     1      -2.103  -4.340   3.924  0.00  0.00    +0.000 HD
ATOM     32  H   UNL     1      -2.974  -5.290   1.804  0.00  0.00    +0.000 HD
ATOM     33  H   UNL     1      -2.787  -4.014  -0.299  0.00  0.00    +0.000 HD
ENDBRANCH  20  23
ENDBRANCH  15  20
BRANCH   5  34
ATOM     34  O   UNL     1      -1.331   5.702  -0.689  0.00  0.00    +0.000 OA
ATOM     35  H   UNL     1      -2.293   5.550  -0.655  0.00  0.00    +0.000 HD
ENDBRANCH   5  34
BRANCH   6  36
ATOM     36  O   UNL     1       1.374   5.640  -0.820  0.00  0.00    +0.000 OA
ATOM     37  H   UNL     1       0.688   6.337  -0.796  0.00  0.00    +0.000 HD
ENDBRANCH   6  36
BRANCH  11  38
ATOM     38  O   UNL     1       4.776  -0.775  -0.725  0.00  0.00    +0.000 OA
ATOM     39  H   UNL     1       5.178   0.110  -0.701  0.00  0.00    +0.000 HD
ENDBRANCH  11  38
BRANCH  12  40
ATOM     40  O   UNL     1       3.261  -3.012  -0.776  0.00  0.00    +0.000 OA
ATOM     41  H   UNL     1       4.219  -2.814  -0.757  0.00  0.00    +0.000 HD
ENDBRANCH  12  40
TORSDOF 6
