REMARK  Name = 
REMARK  13 active torsions:
REMARK  status: ('A' for Active; 'I' for Inactive)
REMARK    1  A    between atoms: C_2  and  C_34
REMARK    2  A    between atoms: N_3  and  C_4
REMARK    3  A    between atoms: C_10  and  O_11
REMARK    4  A    between atoms: O_11  and  C_12
REMARK    5  A    between atoms: C_12  and  C_14
REMARK    6  A    between atoms: C_16  and  O_17
REMARK    7  A    between atoms: C_18  and  C_19
REMARK    8  A    between atoms: C_19  and  C_21
REMARK    9  A    between atoms: C_22  and  O_23
REMARK   10  A    between atoms: C_27  and  C_28
REMARK   11  A    between atoms: C_28  and  O_30
REMARK   12  A    between atoms: C_31  and  O_32
REMARK   13  A    between atoms: C_37  and  O_38
REMARK                            x       y       z     vdW  Elec       q    Type
REMARK                         _______ _______ _______ _____ _____    ______ ____
ROOT
ATOM      1  C   UNL     1      -1.123   3.077  -1.722  0.00  0.00    +0.000 C 
ATOM      2  C   UNL     1      -1.266   4.270  -2.715  0.00  0.00    +0.000 C 
ATOM      3  N   UNL     1      -0.005   4.929  -3.059  0.00  0.00    +0.000 NA
ATOM      4  C   UNL     1       0.621   4.386  -4.259  0.00  0.00    +0.000 C 
ATOM      5  C   UNL     1       0.540   2.869  -4.433  0.00  0.00    +0.000 C 
ATOM      6  C   UNL     1       0.884   2.090  -3.162  0.00  0.00    +0.000 C 
ATOM      7  C   UNL     1      -0.319   1.840  -2.231  0.00  0.00    +0.000 C 
ATOM      8  H   UNL     1      -0.642   3.473  -0.825  0.00  0.00    +0.000 HD
ATOM      9  H   UNL     1      -1.888   5.028  -2.229  0.00  0.00    +0.000 HD
ATOM     10  H   UNL     1      -1.818   3.995  -3.619  0.00  0.00    +0.000 HD
ATOM     11  H   UNL     1       0.643   4.892  -2.272  0.00  0.00    +0.000 HD
ATOM     12  H   UNL     1       1.674   4.691  -4.254  0.00  0.00    +0.000 HD
ATOM     13  H   UNL     1       0.179   4.868  -5.141  0.00  0.00    +0.000 HD
ATOM     14  H   UNL     1       1.248   2.591  -5.224  0.00  0.00    +0.000 HD
ATOM     15  H   UNL     1      -0.450   2.577  -4.806  0.00  0.00    +0.000 HD
ATOM     16  H   UNL     1       1.712   2.574  -2.635  0.00  0.00    +0.000 HD
ATOM     17  H   UNL     1       1.269   1.107  -3.462  0.00  0.00    +0.000 HD
ATOM     18  H   UNL     1      -1.004   1.214  -2.814  0.00  0.00    +0.000 HD
ENDROOT
BRANCH   1  21
ATOM     19  O   UNL     1      -3.282   2.066  -3.301  0.00  0.00    +0.000 OA
ATOM     20  C   UNL     1      -3.447   2.228  -2.098  0.00  0.00    +0.000 C 
ATOM     21  N   UNL     1      -2.462   2.674  -1.243  0.00  0.00    +0.000 N 
ATOM     22  H   UNL     1      -2.608   2.635  -0.244  0.00  0.00    +0.000 HD
BRANCH  20  23
ATOM     23  C   UNL     1      -4.762   1.907  -1.489  0.00  0.00    +0.000 A 
ATOM     24  C   UNL     1      -5.539   0.907  -2.091  0.00  0.00    +0.000 A 
ATOM     25  C   UNL     1      -6.780   0.563  -1.553  0.00  0.00    +0.000 A 
ATOM     26  C   UNL     1      -7.242   1.235  -0.427  0.00  0.00    +0.000 A 
ATOM     27  C   UNL     1      -6.494   2.250   0.162  0.00  0.00    +0.000 A 
ATOM     28  C   UNL     1      -5.250   2.594  -0.372  0.00  0.00    +0.000 A 
ATOM     29  H   UNL     1      -5.174   0.394  -2.979  0.00  0.00    +0.000 HD
ATOM     30  H   UNL     1      -7.363  -0.220  -2.027  0.00  0.00    +0.000 HD
ATOM     31  H   UNL     1      -6.885   2.779   1.027  0.00  0.00    +0.000 HD
ATOM     32  H   UNL     1      -4.694   3.414   0.074  0.00  0.00    +0.000 HD
BRANCH  26  33
ATOM     33  O   UNL     1      -8.445   0.928   0.136  0.00  0.00    +0.000 OA
ATOM     34  H   UNL     1      -8.856   0.214  -0.379  0.00  0.00    +0.000 HD
ENDBRANCH  26  33
ENDBRANCH  20  23
ENDBRANCH   1  21
BRANCH   7  35
ATOM     35  O   UNL     1       0.073   0.941  -1.127  0.00  0.00    +0.000 OA
BRANCH  35  36
ATOM     36  C   UNL     1       0.963   1.359  -0.193  0.00  0.00    +0.000 C 
ATOM     37  O   UNL     1       1.455   2.475  -0.127  0.00  0.00    +0.000 OA
BRANCH  36  38
ATOM     38  C   UNL     1       1.311   0.283   0.787  0.00  0.00    +0.000 A 
ATOM     39  C   UNL     1       1.932   0.652   1.985  0.00  0.00    +0.000 A 
ATOM     40  C   UNL     1       2.447  -0.324   2.852  0.00  0.00    +0.000 A 
ATOM     41  C   UNL     1       2.320  -1.705   2.581  0.00  0.00    +0.000 A 
ATOM     42  C   UNL     1       1.587  -2.057   1.432  0.00  0.00    +0.000 A 
ATOM     43  C   UNL     1       1.122  -1.079   0.532  0.00  0.00    +0.000 A 
ATOM     44  H   UNL     1       2.053   1.709   2.217  0.00  0.00    +0.000 HD
ATOM     45  H   UNL     1       0.641  -1.402  -0.390  0.00  0.00    +0.000 HD
BRANCH  40  46
ATOM     46  O   UNL     1       3.144   0.108   3.949  0.00  0.00    +0.000 OA
ATOM     47  H   UNL     1       3.059   1.070   4.064  0.00  0.00    +0.000 HD
ENDBRANCH  40  46
BRANCH  41  48
ATOM     48  C   UNL     1       3.034  -2.686   3.487  0.00  0.00    +0.000 C 
ATOM     49  O   UNL     1       3.226  -2.398   4.666  0.00  0.00    +0.000 OA
BRANCH  48  50
ATOM     50  C   UNL     1       3.566  -4.013   3.049  0.00  0.00    +0.000 A 
ATOM     51  C   UNL     1       4.132  -4.149   1.758  0.00  0.00    +0.000 A 
ATOM     52  C   UNL     1       4.512  -5.392   1.248  0.00  0.00    +0.000 A 
ATOM     53  C   UNL     1       4.423  -6.523   2.037  0.00  0.00    +0.000 A 
ATOM     54  C   UNL     1       3.968  -6.398   3.345  0.00  0.00    +0.000 A 
ATOM     55  C   UNL     1       3.532  -5.161   3.888  0.00  0.00    +0.000 A 
ATOM     56  H   UNL     1       4.885  -5.474   0.228  0.00  0.00    +0.000 HD
ATOM     57  H   UNL     1       4.718  -7.496   1.649  0.00  0.00    +0.000 HD
ATOM     58  H   UNL     1       3.945  -7.308   3.952  0.00  0.00    +0.000 HD
BRANCH  51  59
ATOM     59  O   UNL     1       4.362  -3.120   0.884  0.00  0.00    +0.000 OA
ATOM     60  H   UNL     1       4.414  -2.265   1.339  0.00  0.00    +0.000 HD
ENDBRANCH  51  59
BRANCH  55  61
ATOM     61  C   UNL     1       3.034  -5.316   5.308  0.00  0.00    +0.000 C 
ATOM     62  O   UNL     1       3.014  -6.420   5.840  0.00  0.00    +0.000 OA
BRANCH  61  63
ATOM     63  O   UNL     1       2.568  -4.258   5.981  0.00  0.00    +0.000 OA
ATOM     64  H   UNL     1       2.849  -3.375   5.647  0.00  0.00    +0.000 HD
ENDBRANCH  61  63
ENDBRANCH  55  61
ENDBRANCH  48  50
ENDBRANCH  41  48
BRANCH  42  65
ATOM     65  O   UNL     1       1.273  -3.333   1.052  0.00  0.00    +0.000 OA
ATOM     66  H   UNL     1       1.461  -3.987   1.743  0.00  0.00    +0.000 HD
ENDBRANCH  42  65
ENDBRANCH  36  38
ENDBRANCH  35  36
ENDBRANCH   7  35
TORSDOF 13
