
 OpenBabel01112422383D

 40 43  0  0  0  0  0  0  0  0999 V2000
    2.9904    1.3206   -0.4103 O   0  0  0  0  0  0  0  0  0  0  0  0
    2.8011    0.4401    0.4242 C   0  0  0  0  0  0  0  0  0  0  0  0
    1.5038    0.5121    1.1429 C   0  0  0  0  0  0  0  0  0  0  0  0
    0.9932    1.7905    1.3895 C   0  0  0  0  0  0  0  0  0  0  0  0
   -0.3050    1.9486    1.8529 C   0  0  0  0  0  0  0  0  0  0  0  0
   -1.1005    0.8262    2.0667 C   0  0  0  0  0  0  0  0  0  0  0  0
   -0.5720   -0.4603    1.8551 C   0  0  0  0  0  0  0  0  0  0  0  0
   -1.4109   -1.6267    2.0364 N   0  3  0  0  0  0  0  0  0  0  0  0
   -2.6356   -1.4655    2.0727 O   0  0  0  0  0  0  0  0  0  0  0  0
   -0.8731   -2.7332    2.1396 O   0  5  0  0  0  0  0  0  0  0  0  0
    0.7462   -0.6314    1.4089 C   0  0  0  0  0  0  0  0  0  0  0  0
    3.7987   -0.5042    0.6535 N   0  0  0  0  0  0  0  0  0  0  0  0
    3.9930   -1.2119    1.8332 C   0  0  0  0  0  0  0  0  0  0  0  0
    3.4670   -1.1012    3.1239 C   0  0  0  0  0  0  0  0  0  0  0  0
    3.3500   -2.3079    3.7949 C   0  0  0  0  0  0  0  0  0  0  0  0
    2.7200   -2.3652    5.0058 O   0  0  0  0  0  0  0  0  0  0  0  0
    3.7841   -3.4973    3.2167 C   0  0  0  0  0  0  0  0  0  0  0  0
    3.3377   -4.6833    3.7252 O   0  0  0  0  0  0  0  0  0  0  0  0
    4.6479   -3.4926    2.1209 C   0  0  0  0  0  0  0  0  0  0  0  0
    4.8375   -2.2582    1.4755 C   0  0  0  0  0  0  0  0  0  0  0  0
    5.6861   -1.6456    0.5211 C   0  0  0  0  0  0  0  0  0  0  0  0
    7.0442   -1.6431    0.1397 C   0  0  0  0  0  0  0  0  0  0  0  0
    7.4085   -0.9942   -1.0535 C   0  0  0  0  0  0  0  0  0  0  0  0
    6.4164   -0.6053   -1.9451 C   0  0  0  0  0  0  0  0  0  0  0  0
    6.7080   -0.1947   -3.2174 O   0  0  0  0  0  0  0  0  0  0  0  0
    5.0781   -0.5913   -1.5633 C   0  0  0  0  0  0  0  0  0  0  0  0
    4.0925   -0.3415   -2.4777 O   0  0  0  0  0  0  0  0  0  0  0  0
    4.8073   -0.8638   -0.2246 C   0  0  0  0  0  0  0  0  0  0  0  0
    1.6005    2.6660    1.1604 H   0  0  0  0  0  0  0  0  0  0  0  0
   -0.7081    2.9460    1.9928 H   0  0  0  0  0  0  0  0  0  0  0  0
   -2.1367    0.9646    2.3692 H   0  0  0  0  0  0  0  0  0  0  0  0
    1.1358   -1.6266    1.2172 H   0  0  0  0  0  0  0  0  0  0  0  0
    3.0400   -0.1803    3.5004 H   0  0  0  0  0  0  0  0  0  0  0  0
    2.9548   -1.5489    5.4840 H   0  0  0  0  0  0  0  0  0  0  0  0
    2.6283   -4.4298    4.3519 H   0  0  0  0  0  0  0  0  0  0  0  0
    5.0312   -4.4184    1.7036 H   0  0  0  0  0  0  0  0  0  0  0  0
    7.8056   -2.0229    0.8152 H   0  0  0  0  0  0  0  0  0  0  0  0
    8.4590   -0.8547   -1.2871 H   0  0  0  0  0  0  0  0  0  0  0  0
    7.6734   -0.1177   -3.2970 H   0  0  0  0  0  0  0  0  0  0  0  0
    4.5568   -0.2995   -3.3367 H   0  0  0  0  0  0  0  0  0  0  0  0
  1  2  2  0  0  0  0
  2  3  1  0  0  0  0
  2 12  1  0  0  0  0
  3  4  1  0  0  0  0
  3 11  2  0  0  0  0
  4  5  2  0  0  0  0
  4 29  1  0  0  0  0
  5  6  1  0  0  0  0
  5 30  1  0  0  0  0
  6  7  2  0  0  0  0
  6 31  1  0  0  0  0
  7  8  1  0  0  0  0
  7 11  1  0  0  0  0
  8  9  2  0  0  0  0
  8 10  1  0  0  0  0
 11 32  1  0  0  0  0
 12 13  1  0  0  0  0
 12 28  1  0  0  0  0
 13 14  1  0  0  0  0
 13 20  2  0  0  0  0
 14 15  2  0  0  0  0
 14 33  1  0  0  0  0
 15 16  1  0  0  0  0
 15 17  1  0  0  0  0
 16 34  1  0  0  0  0
 17 18  1  0  0  0  0
 17 19  2  0  0  0  0
 18 35  1  0  0  0  0
 19 20  1  0  0  0  0
 19 36  1  0  0  0  0
 20 21  1  0  0  0  0
 21 22  1  0  0  0  0
 21 28  2  0  0  0  0
 22 23  2  0  0  0  0
 22 37  1  0  0  0  0
 23 24  1  0  0  0  0
 23 38  1  0  0  0  0
 24 25  1  0  0  0  0
 24 26  2  0  0  0  0
 25 39  1  0  0  0  0
 26 27  1  0  0  0  0
 26 28  1  0  0  0  0
 27 40  1  0  0  0  0
M  CHG  2   8   1  10  -1
M  END
$$$$
