
 OpenBabel01112422423D

 38 41  0  0  0  0  0  0  0  0999 V2000
    2.9078    0.5399    1.2585 O   0  0  0  0  0  0  0  0  0  0  0  0
    2.8091   -0.2630    0.3325 C   0  0  0  0  0  0  0  0  0  0  0  0
    1.4537   -0.8823    0.0898 C   0  0  0  0  0  0  0  0  0  0  0  0
    0.4941   -0.8164    1.1131 C   0  0  0  0  0  0  0  0  0  0  0  0
   -0.7681   -1.3761    0.9252 C   0  0  0  0  0  0  0  0  0  0  0  0
   -1.0867   -2.0265   -0.2564 C   0  0  0  0  0  0  0  0  0  0  0  0
   -0.1587   -2.0747   -1.2933 C   0  0  0  0  0  0  0  0  0  0  0  0
    1.0863   -1.4692   -1.1318 C   0  0  0  0  0  0  0  0  0  0  0  0
    3.9307   -0.5058   -0.4795 N   0  0  0  0  0  0  0  0  0  0  0  0
    4.2126   -1.6971   -1.1331 C   0  0  0  0  0  0  0  0  0  0  0  0
    3.7334   -3.0065   -1.0189 C   0  0  0  0  0  0  0  0  0  0  0  0
    3.6692   -3.6917   -2.2270 C   0  0  0  0  0  0  0  0  0  0  0  0
    3.0631   -4.9112   -2.3092 O   0  0  0  0  0  0  0  0  0  0  0  0
    4.1156   -3.1077   -3.4136 C   0  0  0  0  0  0  0  0  0  0  0  0
    3.7174   -3.6335   -4.6098 O   0  0  0  0  0  0  0  0  0  0  0  0
    4.9346   -1.9800   -3.3919 C   0  0  0  0  0  0  0  0  0  0  0  0
    5.0594   -1.3231   -2.1594 C   0  0  0  0  0  0  0  0  0  0  0  0
    5.8599   -0.3327   -1.5369 C   0  0  0  0  0  0  0  0  0  0  0  0
    7.1992    0.0904   -1.5535 C   0  0  0  0  0  0  0  0  0  0  0  0
    7.5279    1.3150   -0.9458 C   0  0  0  0  0  0  0  0  0  0  0  0
    6.4962    2.1740   -0.5647 C   0  0  0  0  0  0  0  0  0  0  0  0
    6.7493    3.4753   -0.2338 O   0  0  0  0  0  0  0  0  0  0  0  0
    5.1760    1.7429   -0.5198 C   0  0  0  0  0  0  0  0  0  0  0  0
    4.1599    2.6356   -0.3169 O   0  0  0  0  0  0  0  0  0  0  0  0
    4.9455    0.3864   -0.7713 C   0  0  0  0  0  0  0  0  0  0  0  0
    0.7406   -0.3242    2.0521 H   0  0  0  0  0  0  0  0  0  0  0  0
   -1.5036   -1.2963    1.7269 H   0  0  0  0  0  0  0  0  0  0  0  0
   -2.0794   -2.4366   -0.3999 H   0  0  0  0  0  0  0  0  0  0  0  0
   -0.4067   -2.5708   -2.2285 H   0  0  0  0  0  0  0  0  0  0  0  0
    1.7540   -1.4815   -1.9842 H   0  0  0  0  0  0  0  0  0  0  0  0
    3.2689   -3.3807   -0.1121 H   0  0  0  0  0  0  0  0  0  0  0  0
    3.1612   -5.3349   -1.4365 H   0  0  0  0  0  0  0  0  0  0  0  0
    3.0609   -4.3191   -4.3671 H   0  0  0  0  0  0  0  0  0  0  0  0
    5.3266   -1.5494   -4.3105 H   0  0  0  0  0  0  0  0  0  0  0  0
    7.9781   -0.5671   -1.9241 H   0  0  0  0  0  0  0  0  0  0  0  0
    8.5597    1.5867   -0.8217 H   0  0  0  0  0  0  0  0  0  0  0  0
    7.7109    3.6176   -0.2604 H   0  0  0  0  0  0  0  0  0  0  0  0
    4.5954    3.5106   -0.3201 H   0  0  0  0  0  0  0  0  0  0  0  0
  1  2  2  0  0  0  0
  2  3  1  0  0  0  0
  2  9  1  0  0  0  0
  3  4  1  0  0  0  0
  3  8  2  0  0  0  0
  4  5  2  0  0  0  0
  4 26  1  0  0  0  0
  5  6  1  0  0  0  0
  5 27  1  0  0  0  0
  6  7  2  0  0  0  0
  6 28  1  0  0  0  0
  7  8  1  0  0  0  0
  7 29  1  0  0  0  0
  8 30  1  0  0  0  0
  9 10  1  0  0  0  0
  9 25  1  0  0  0  0
 10 11  1  0  0  0  0
 10 17  2  0  0  0  0
 11 12  2  0  0  0  0
 11 31  1  0  0  0  0
 12 13  1  0  0  0  0
 12 14  1  0  0  0  0
 13 32  1  0  0  0  0
 14 15  1  0  0  0  0
 14 16  2  0  0  0  0
 15 33  1  0  0  0  0
 16 17  1  0  0  0  0
 16 34  1  0  0  0  0
 17 18  1  0  0  0  0
 18 19  1  0  0  0  0
 18 25  2  0  0  0  0
 19 20  2  0  0  0  0
 19 35  1  0  0  0  0
 20 21  1  0  0  0  0
 20 36  1  0  0  0  0
 21 22  1  0  0  0  0
 21 23  2  0  0  0  0
 22 37  1  0  0  0  0
 23 24  1  0  0  0  0
 23 25  1  0  0  0  0
 24 38  1  0  0  0  0
M  END
$$$$
