REMARK  Name = 
REMARK  8 active torsions:
REMARK  status: ('A' for Active; 'I' for Inactive)
REMARK    1  A    between atoms: C_1  and  O_2
REMARK    2  A    between atoms: O_2  and  C_3
REMARK    3  A    between atoms: C_4  and  N_5
REMARK    4  A    between atoms: N_5  and  C_6
REMARK    5  A    between atoms: N_5  and  C_7
REMARK    6  A    between atoms: C_7  and  C_8
REMARK    7  A    between atoms: C_8  and  O_10
REMARK    8  A    between atoms: C_14  and  C_15
REMARK                            x       y       z     vdW  Elec       q    Type
REMARK                         _______ _______ _______ _____ _____    ______ ____
ROOT
ATOM      1  C   UNL     1       2.166  -0.735  -0.746  0.00  0.00    +0.000 C 
ATOM      2  C   UNL     1       2.620   0.870  -0.299  0.00  0.00    +0.000 C 
ATOM      3  C   UNL     1       1.745   1.148   0.862  0.00  0.00    +0.000 C 
ATOM      4  C   UNL     1       0.387   0.638   0.504  0.00  0.00    +0.000 C 
ATOM      5  O   UNL     1       0.684  -0.581   1.302  0.00  0.00    +0.000 OA
ATOM      6  C   UNL     1       1.054  -1.611   0.388  0.00  0.00    +0.000 C 
ATOM      7  N   UNL     1      -0.344  -2.201   0.337  0.00  0.00    +0.000 N 
ATOM      8  C   UNL     1      -0.944  -2.966   1.483  0.00  0.00    +0.000 A 
ATOM      9  C   UNL     1      -0.508  -4.128   2.169  0.00  0.00    +0.000 A 
ATOM     10  C   UNL     1      -1.252  -4.671   3.228  0.00  0.00    +0.000 A 
ATOM     11  C   UNL     1      -2.436  -4.095   3.650  0.00  0.00    +0.000 A 
ATOM     12  C   UNL     1      -2.872  -2.911   3.071  0.00  0.00    +0.000 A 
ATOM     13  C   UNL     1      -2.165  -2.324   2.000  0.00  0.00    +0.000 A 
ATOM     14  C   UNL     1      -2.432  -1.190   1.231  0.00  0.00    +0.000 A 
ATOM     15  C   UNL     1      -3.142   0.000   1.647  0.00  0.00    +0.000 A 
ATOM     16  C   UNL     1      -3.106   1.068   0.723  0.00  0.00    +0.000 A 
ATOM     17  C   UNL     1      -2.459   0.708  -0.464  0.00  0.00    +0.000 A 
ATOM     18  C   UNL     1      -1.915   1.815  -1.233  0.00  0.00    +0.000 A 
ATOM     19  C   UNL     1      -2.709   2.685  -2.012  0.00  0.00    +0.000 A 
ATOM     20  C   UNL     1      -3.517   1.979  -2.889  0.00  0.00    +0.000 A 
ATOM     21  C   UNL     1      -2.958   0.841  -3.468  0.00  0.00    +0.000 A 
ATOM     22  C   UNL     1      -1.599   0.454  -3.166  0.00  0.00    +0.000 A 
ATOM     23  C   UNL     1      -0.940   1.031  -1.960  0.00  0.00    +0.000 A 
ATOM     24  N   UNL     1      -0.232   0.289  -0.877  0.00  0.00    +0.000 N 
ATOM     25  C   UNL     1      -1.433  -0.263  -0.571  0.00  0.00    +0.000 A 
ATOM     26  C   UNL     1      -1.459  -1.354   0.231  0.00  0.00    +0.000 A 
ATOM     27  C   UNL     1      -3.351   2.337   1.321  0.00  0.00    +0.000 C 
ATOM     28  O   UNL     1      -3.273   3.515   0.947  0.00  0.00    +0.000 OA
ATOM     29  N   UNL     1      -3.655   1.983   2.620  0.00  0.00    +0.000 N 
ATOM     30  C   UNL     1      -3.558   0.547   2.947  0.00  0.00    +0.000 C 
ATOM     31  H   UNL     1       3.151  -1.200  -0.585  0.00  0.00    +0.000 HD
ATOM     32  H   UNL     1       3.662   0.781   0.042  0.00  0.00    +0.000 HD
ATOM     33  H   UNL     1       1.591   2.136   1.282  0.00  0.00    +0.000 HD
ATOM     34  H   UNL     1       2.229   0.651   1.727  0.00  0.00    +0.000 HD
ATOM     35  H   UNL     1      -0.350   1.232   1.051  0.00  0.00    +0.000 HD
ATOM     36  H   UNL     1       0.386  -4.675   1.901  0.00  0.00    +0.000 HD
ATOM     37  H   UNL     1      -0.898  -5.576   3.718  0.00  0.00    +0.000 HD
ATOM     38  H   UNL     1      -3.034  -4.569   4.424  0.00  0.00    +0.000 HD
ATOM     39  H   UNL     1      -3.811  -2.471   3.395  0.00  0.00    +0.000 HD
ATOM     40  H   UNL     1      -2.353   3.659  -2.339  0.00  0.00    +0.000 HD
ATOM     41  H   UNL     1      -4.510   2.342  -3.140  0.00  0.00    +0.000 HD
ATOM     42  H   UNL     1      -3.598   0.223  -4.102  0.00  0.00    +0.000 HD
ATOM     43  H   UNL     1      -1.268  -0.509  -3.561  0.00  0.00    +0.000 HD
ATOM     44  H   UNL     1      -3.846   2.722   3.276  0.00  0.00    +0.000 HD
ATOM     45  H   UNL     1      -2.799   0.422   3.721  0.00  0.00    +0.000 HD
ATOM     46  H   UNL     1      -4.550   0.221   3.250  0.00  0.00    +0.000 HD
ENDROOT
BRANCH   6  47
ATOM     47  C   UNL     1       2.074  -2.620   0.979  0.00  0.00    +0.000 C 
ATOM     48  H   UNL     1       2.611  -2.214   1.839  0.00  0.00    +0.000 HD
ATOM     49  H   UNL     1       1.681  -3.588   1.233  0.00  0.00    +0.000 HD
ATOM     50  H   UNL     1       2.815  -2.927   0.228  0.00  0.00    +0.000 HD
ENDBRANCH   6  47
BRANCH   1  51
ATOM     51  O   UNL     1       1.942  -0.911  -2.143  0.00  0.00    +0.000 OA
BRANCH  51  52
ATOM     52  C   UNL     1       2.019  -2.277  -2.536  0.00  0.00    +0.000 C 
ATOM     53  H   UNL     1       1.964  -2.331  -3.626  0.00  0.00    +0.000 HD
ATOM     54  H   UNL     1       2.966  -2.733  -2.223  0.00  0.00    +0.000 HD
ATOM     55  H   UNL     1       1.180  -2.836  -2.116  0.00  0.00    +0.000 HD
ENDBRANCH  51  52
ENDBRANCH   1  51
BRANCH   2  56
ATOM     56  N   UNL     1       2.486   2.183  -0.987  0.00  0.00    +0.000 NA
BRANCH  56  57
ATOM     57  C   UNL     1       2.999   3.354  -0.198  0.00  0.00    +0.000 C 
ATOM     58  H   UNL     1       4.090   3.386  -0.138  0.00  0.00    +0.000 HD
ATOM     59  H   UNL     1       2.627   4.286  -0.638  0.00  0.00    +0.000 HD
ATOM     60  H   UNL     1       2.686   3.433   0.847  0.00  0.00    +0.000 HD
ENDBRANCH  56  57
BRANCH  56  61
ATOM     61  C   UNL     1       3.053   2.263  -2.336  0.00  0.00    +0.000 C 
ATOM     62  H   UNL     1       2.698   1.462  -2.983  0.00  0.00    +0.000 HD
ATOM     63  H   UNL     1       2.693   3.200  -2.785  0.00  0.00    +0.000 HD
BRANCH  61  64
ATOM     64  C   UNL     1       4.575   2.291  -2.321  0.00  0.00    +0.000 C 
ATOM     65  O   UNL     1       5.323   1.421  -1.894  0.00  0.00    +0.000 OA
BRANCH  64  66
ATOM     66  O   UNL     1       5.079   3.485  -2.707  0.00  0.00    +0.000 OA
ATOM     67  H   UNL     1       6.040   3.407  -2.530  0.00  0.00    +0.000 HD
ENDBRANCH  64  66
ENDBRANCH  61  64
ENDBRANCH  56  61
ENDBRANCH   2  56
TORSDOF 8
