REMARK  Name = 
REMARK  6 active torsions:
REMARK  status: ('A' for Active; 'I' for Inactive)
REMARK    1  A    between atoms: C_1  and  N_2
REMARK    2  A    between atoms: N_5  and  C_6
REMARK    3  A    between atoms: C_6  and  C_7
REMARK    4  A    between atoms: C_7  and  C_8
REMARK    5  A    between atoms: C_8  and  C_9
REMARK    6  A    between atoms: N_23  and  C_24
REMARK                            x       y       z     vdW  Elec       q    Type
REMARK                         _______ _______ _______ _____ _____    ______ ____
ROOT
ATOM      1  C   UNL     1      -0.521   1.415  -0.106  0.00  0.00    +0.000 A 
ATOM      2  C   UNL     1      -1.733   1.268   0.589  0.00  0.00    +0.000 A 
ATOM      3  C   UNL     1      -2.343   0.049   0.850  0.00  0.00    +0.000 A 
ATOM      4  C   UNL     1      -1.741  -1.126   0.447  0.00  0.00    +0.000 A 
ATOM      5  C   UNL     1      -0.500  -1.078  -0.201  0.00  0.00    +0.000 A 
ATOM      6  C   UNL     1       0.079   0.186  -0.447  0.00  0.00    +0.000 A 
ATOM      7  N   UNL     1       1.296  -0.048  -1.068  0.00  0.00    +0.000 N 
ATOM      8  C   UNL     1       1.555  -1.395  -1.207  0.00  0.00    +0.000 A 
ATOM      9  C   UNL     1       2.665  -2.125  -1.667  0.00  0.00    +0.000 A 
ATOM     10  C   UNL     1       3.772  -1.350  -2.008  0.00  0.00    +0.000 A 
ATOM     11  C   UNL     1       4.953  -1.977  -2.324  0.00  0.00    +0.000 A 
ATOM     12  C   UNL     1       4.959  -3.361  -2.513  0.00  0.00    +0.000 A 
ATOM     13  C   UNL     1       6.021  -4.211  -2.878  0.00  0.00    +0.000 A 
ATOM     14  C   UNL     1       5.379  -5.164  -3.610  0.00  0.00    +0.000 A 
ATOM     15  N   UNL     1       4.202  -5.364  -2.905  0.00  0.00    +0.000 N 
ATOM     16  C   UNL     1       3.788  -4.156  -2.345  0.00  0.00    +0.000 A 
ATOM     17  C   UNL     1       2.629  -3.567  -1.726  0.00  0.00    +0.000 A 
ATOM     18  C   UNL     1       1.450  -4.140  -1.184  0.00  0.00    +0.000 A 
ATOM     19  C   UNL     1       0.323  -3.392  -0.683  0.00  0.00    +0.000 A 
ATOM     20  C   UNL     1       0.432  -1.980  -0.716  0.00  0.00    +0.000 A 
ATOM     21  C   UNL     1      -0.688  -4.277  -0.185  0.00  0.00    +0.000 C 
ATOM     22  O   UNL     1      -1.734  -4.155   0.427  0.00  0.00    +0.000 OA
ATOM     23  N   UNL     1      -0.174  -5.500  -0.490  0.00  0.00    +0.000 N 
ATOM     24  C   UNL     1       1.140  -5.516  -0.878  0.00  0.00    +0.000 C 
ATOM     25  O   UNL     1       1.790  -6.550  -0.797  0.00  0.00    +0.000 OA
ATOM     26  H   UNL     1      -2.277   2.109   0.975  0.00  0.00    +0.000 HD
ATOM     27  H   UNL     1      -3.300   0.026   1.360  0.00  0.00    +0.000 HD
ATOM     28  H   UNL     1      -2.268  -2.054   0.676  0.00  0.00    +0.000 HD
ATOM     29  H   UNL     1       1.932   0.683  -1.361  0.00  0.00    +0.000 HD
ATOM     30  H   UNL     1       3.766  -0.267  -1.992  0.00  0.00    +0.000 HD
ATOM     31  H   UNL     1       5.845  -1.395  -2.537  0.00  0.00    +0.000 HD
ATOM     32  H   UNL     1       7.080  -4.007  -2.878  0.00  0.00    +0.000 HD
ATOM     33  H   UNL     1       5.744  -5.883  -4.332  0.00  0.00    +0.000 HD
ATOM     34  H   UNL     1      -0.620  -6.323  -0.122  0.00  0.00    +0.000 HD
ENDROOT
BRANCH  15  35
ATOM     35  C   UNL     1       3.849  -6.746  -2.703  0.00  0.00    +0.000 C 
ATOM     36  H   UNL     1       2.789  -6.896  -2.616  0.00  0.00    +0.000 HD
ATOM     37  H   UNL     1       4.435  -7.089  -1.842  0.00  0.00    +0.000 HD
ATOM     38  H   UNL     1       4.178  -7.320  -3.579  0.00  0.00    +0.000 HD
ENDBRANCH  15  35
BRANCH   1  39
ATOM     39  C   UNL     1       0.052   2.769  -0.497  0.00  0.00    +0.000 C 
ATOM     40  H   UNL     1       1.147   2.675  -0.518  0.00  0.00    +0.000 HD
ATOM     41  H   UNL     1      -0.255   2.998  -1.525  0.00  0.00    +0.000 HD
BRANCH  39  42
ATOM     42  C   UNL     1      -0.261   3.967   0.420  0.00  0.00    +0.000 C 
ATOM     43  H   UNL     1      -0.013   3.660   1.439  0.00  0.00    +0.000 HD
ATOM     44  H   UNL     1       0.422   4.788   0.161  0.00  0.00    +0.000 HD
BRANCH  42  45
ATOM     45  C   UNL     1      -1.697   4.513   0.294  0.00  0.00    +0.000 C 
ATOM     46  H   UNL     1      -1.763   5.036  -0.669  0.00  0.00    +0.000 HD
ATOM     47  H   UNL     1      -2.423   3.717   0.179  0.00  0.00    +0.000 HD
BRANCH  45  51
ATOM     48  N   UNL     1      -4.023   4.197   3.344  0.00  0.00    +0.000 NA
ATOM     49  C   UNL     1      -2.574   3.947   3.387  0.00  0.00    +0.000 C 
ATOM     50  C   UNL     1      -1.789   5.108   2.734  0.00  0.00    +0.000 C 
ATOM     51  N   UNL     1      -2.157   5.442   1.340  0.00  0.00    +0.000 NA
ATOM     52  C   UNL     1      -3.638   5.579   1.278  0.00  0.00    +0.000 C 
ATOM     53  C   UNL     1      -4.447   4.432   1.954  0.00  0.00    +0.000 C 
ATOM     54  H   UNL     1      -2.324   2.999   2.901  0.00  0.00    +0.000 HD
ATOM     55  H   UNL     1      -2.249   3.857   4.431  0.00  0.00    +0.000 HD
ATOM     56  H   UNL     1      -0.714   4.938   2.841  0.00  0.00    +0.000 HD
ATOM     57  H   UNL     1      -1.971   6.007   3.338  0.00  0.00    +0.000 HD
ATOM     58  H   UNL     1      -3.964   5.681   0.235  0.00  0.00    +0.000 HD
ATOM     59  H   UNL     1      -3.907   6.524   1.767  0.00  0.00    +0.000 HD
ATOM     60  H   UNL     1      -4.353   3.511   1.365  0.00  0.00    +0.000 HD
ATOM     61  H   UNL     1      -5.508   4.711   1.940  0.00  0.00    +0.000 HD
BRANCH  48  62
ATOM     62  C   UNL     1      -4.777   3.117   3.972  0.00  0.00    +0.000 C 
ATOM     63  H   UNL     1      -4.473   2.996   5.018  0.00  0.00    +0.000 HD
ATOM     64  H   UNL     1      -4.644   2.157   3.462  0.00  0.00    +0.000 HD
ATOM     65  H   UNL     1      -5.846   3.356   3.986  0.00  0.00    +0.000 HD
ENDBRANCH  48  62
ENDBRANCH  45  51
ENDBRANCH  42  45
ENDBRANCH  39  42
ENDBRANCH   1  39
TORSDOF 6
