
 OpenBabel01112422433D

 65 69  0  0  0  0  0  0  0  0999 V2000
   -1.0598    3.7117    4.3547 C   0  0  0  0  0  0  0  0  0  0  0  0
   -0.3659    2.4787    3.9921 N   0  0  0  0  0  0  0  0  0  0  0  0
   -1.1104    1.2994    4.4676 C   0  0  0  0  0  0  0  0  0  0  0  0
   -0.4330   -0.0179    4.0267 C   0  0  0  0  0  0  0  0  0  0  0  0
   -0.2666   -0.1606    2.5626 N   0  0  0  0  0  0  0  0  0  0  0  0
   -1.5373   -0.3037    1.8294 C   0  0  0  0  0  0  0  0  0  0  0  0
   -2.3486   -1.5277    2.2057 C   0  0  0  0  0  0  0  0  0  0  0  0
   -3.3228   -1.4457    3.2119 C   0  0  0  0  0  0  0  0  0  0  0  0
   -4.0564   -2.5693    3.5831 C   0  0  0  0  0  0  0  0  0  0  0  0
   -3.8433   -3.7919    2.9384 C   0  0  0  0  0  0  0  0  0  0  0  0
   -4.6722   -4.9504    3.3629 C   0  0  0  0  0  0  0  0  0  0  0  0
   -5.7807   -4.7139    3.8322 O   0  0  0  0  0  0  0  0  0  0  0  0
   -4.0757   -6.1952    3.2412 N   0  0  0  0  0  0  0  0  0  0  0  0
   -4.6857   -7.4341    3.5410 C   0  0  0  0  0  0  0  0  0  0  0  0
   -6.0598   -7.5654    3.7416 C   0  0  0  0  0  0  0  0  0  0  0  0
   -6.6114   -8.7999    4.0604 C   0  0  0  0  0  0  0  0  0  0  0  0
   -5.7864   -9.9119    4.1856 C   0  0  0  0  0  0  0  0  0  0  0  0
   -4.4003   -9.8224    3.9920 C   0  0  0  0  0  0  0  0  0  0  0  0
   -3.5481  -10.9109    4.2308 N   0  0  0  0  0  0  0  0  0  0  0  0
   -3.7338  -12.0173    5.0590 C   0  0  0  0  0  0  0  0  0  0  0  0
   -2.8163  -12.9900    5.0107 N   0  0  0  0  0  0  0  0  0  0  0  0
   -2.9995  -14.0329    5.8440 C   0  0  0  0  0  0  0  0  0  0  0  0
   -4.0393  -14.1310    6.7393 C   0  0  0  0  0  0  0  0  0  0  0  0
   -4.9323  -13.0824    6.7418 C   0  0  0  0  0  0  0  0  0  0  0  0
   -6.0881  -12.9684    7.6468 C   0  0  0  0  0  0  0  0  0  0  0  0
   -6.6188  -11.7154    8.0033 C   0  0  0  0  0  0  0  0  0  0  0  0
   -7.7007  -11.6129    8.8741 C   0  0  0  0  0  0  0  0  0  0  0  0
   -8.2448  -12.7829    9.3754 C   0  0  0  0  0  0  0  0  0  0  0  0
   -7.7908  -14.0112    9.0556 N   0  0  0  0  0  0  0  0  0  0  0  0
   -6.7384  -14.0704    8.2002 C   0  0  0  0  0  0  0  0  0  0  0  0
   -4.7743  -12.0434    5.9019 N   0  0  0  0  0  0  0  0  0  0  0  0
   -3.8650   -8.5705    3.6457 C   0  0  0  0  0  0  0  0  0  0  0  0
   -2.9049   -3.8776    1.9040 C   0  0  0  0  0  0  0  0  0  0  0  0
   -2.1501   -2.7533    1.5531 C   0  0  0  0  0  0  0  0  0  0  0  0
    0.4656    1.0410    2.0894 C   0  0  0  0  0  0  0  0  0  0  0  0
   -0.1418    2.3989    2.5370 C   0  0  0  0  0  0  0  0  0  0  0  0
   -1.2090    3.7658    5.4390 H   0  0  0  0  0  0  0  0  0  0  0  0
   -2.0396    3.7946    3.8703 H   0  0  0  0  0  0  0  0  0  0  0  0
   -0.4604    4.5847    4.0744 H   0  0  0  0  0  0  0  0  0  0  0  0
   -2.1450    1.3303    4.1060 H   0  0  0  0  0  0  0  0  0  0  0  0
   -1.1555    1.3121    5.5631 H   0  0  0  0  0  0  0  0  0  0  0  0
   -0.9644   -0.8757    4.4513 H   0  0  0  0  0  0  0  0  0  0  0  0
    0.5647   -0.0638    4.4862 H   0  0  0  0  0  0  0  0  0  0  0  0
   -1.3118   -0.3863    0.7573 H   0  0  0  0  0  0  0  0  0  0  0  0
   -2.1786    0.5807    1.9209 H   0  0  0  0  0  0  0  0  0  0  0  0
   -3.5129   -0.5065    3.7240 H   0  0  0  0  0  0  0  0  0  0  0  0
   -4.7972   -2.4883    4.3767 H   0  0  0  0  0  0  0  0  0  0  0  0
   -3.0848   -6.2191    3.0437 H   0  0  0  0  0  0  0  0  0  0  0  0
   -6.7378   -6.7237    3.6481 H   0  0  0  0  0  0  0  0  0  0  0  0
   -7.6811   -8.8928    4.2237 H   0  0  0  0  0  0  0  0  0  0  0  0
   -6.2539  -10.8605    4.4370 H   0  0  0  0  0  0  0  0  0  0  0  0
   -2.6121  -10.8907    3.8576 H   0  0  0  0  0  0  0  0  0  0  0  0
   -2.2485  -14.8154    5.7766 H   0  0  0  0  0  0  0  0  0  0  0  0
   -4.1169  -14.9743    7.4109 H   0  0  0  0  0  0  0  0  0  0  0  0
   -6.1818  -10.8003    7.5993 H   0  0  0  0  0  0  0  0  0  0  0  0
   -8.1042  -10.6459    9.1514 H   0  0  0  0  0  0  0  0  0  0  0  0
   -9.0823  -12.7580   10.0643 H   0  0  0  0  0  0  0  0  0  0  0  0
   -6.4388  -15.0864    7.9566 H   0  0  0  0  0  0  0  0  0  0  0  0
   -2.7926   -8.4780    3.5038 H   0  0  0  0  0  0  0  0  0  0  0  0
   -2.7684   -4.7975    1.3432 H   0  0  0  0  0  0  0  0  0  0  0  0
   -1.4148   -2.8313    0.7545 H   0  0  0  0  0  0  0  0  0  0  0  0
    0.5550    1.0223    0.9964 H   0  0  0  0  0  0  0  0  0  0  0  0
    1.4949    0.9798    2.4680 H   0  0  0  0  0  0  0  0  0  0  0  0
   -1.0801    2.5688    1.9945 H   0  0  0  0  0  0  0  0  0  0  0  0
    0.5491    3.1963    2.2377 H   0  0  0  0  0  0  0  0  0  0  0  0
  1  2  1  0  0  0  0
  1 37  1  0  0  0  0
  1 38  1  0  0  0  0
  1 39  1  0  0  0  0
  2  3  1  0  0  0  0
  2 36  1  0  0  0  0
  3  4  1  0  0  0  0
  3 40  1  0  0  0  0
  3 41  1  0  0  0  0
  4  5  1  0  0  0  0
  4 42  1  0  0  0  0
  4 43  1  0  0  0  0
  5  6  1  0  0  0  0
  5 35  1  0  0  0  0
  6  7  1  0  0  0  0
  6 44  1  0  0  0  0
  6 45  1  0  0  0  0
  7  8  1  0  0  0  0
  7 34  2  0  0  0  0
  8  9  2  0  0  0  0
  8 46  1  0  0  0  0
  9 10  1  0  0  0  0
  9 47  1  0  0  0  0
 10 11  1  0  0  0  0
 10 33  2  0  0  0  0
 11 12  2  0  0  0  0
 11 13  1  0  0  0  0
 13 14  1  0  0  0  0
 13 48  1  0  0  0  0
 14 15  1  0  0  0  0
 14 32  2  0  0  0  0
 15 16  2  0  0  0  0
 15 49  1  0  0  0  0
 16 17  1  0  0  0  0
 16 50  1  0  0  0  0
 17 18  2  0  0  0  0
 17 51  1  0  0  0  0
 18 19  1  0  0  0  0
 18 32  1  0  0  0  0
 19 20  1  0  0  0  0
 19 52  1  0  0  0  0
 20 21  1  0  0  0  0
 20 31  2  0  0  0  0
 21 22  2  0  0  0  0
 22 23  1  0  0  0  0
 22 53  1  0  0  0  0
 23 24  2  0  0  0  0
 23 54  1  0  0  0  0
 24 25  1  0  0  0  0
 24 31  1  0  0  0  0
 25 26  1  0  0  0  0
 25 30  2  0  0  0  0
 26 27  2  0  0  0  0
 26 55  1  0  0  0  0
 27 28  1  0  0  0  0
 27 56  1  0  0  0  0
 28 29  2  0  0  0  0
 28 57  1  0  0  0  0
 29 30  1  0  0  0  0
 30 58  1  0  0  0  0
 32 59  1  0  0  0  0
 33 34  1  0  0  0  0
 33 60  1  0  0  0  0
 34 61  1  0  0  0  0
 35 36  1  0  0  0  0
 35 62  1  0  0  0  0
 35 63  1  0  0  0  0
 36 64  1  0  0  0  0
 36 65  1  0  0  0  0
M  END
$$$$
