REMARK  Name = 
REMARK  6 active torsions:
REMARK  status: ('A' for Active; 'I' for Inactive)
REMARK    1  A    between atoms: C_1  and  C_2
REMARK    2  A    between atoms: C_2  and  N_3
REMARK    3  A    between atoms: C_7  and  O_8
REMARK    4  A    between atoms: C_9  and  O_10
REMARK    5  A    between atoms: C_16  and  O_17
REMARK    6  A    between atoms: C_18  and  O_19
REMARK                            x       y       z     vdW  Elec       q    Type
REMARK                         _______ _______ _______ _____ _____    ______ ____
ROOT
ATOM      1  N   UNL     1      -0.104   0.778   1.325  0.00  0.00    +0.000 N 
ATOM      2  C   UNL     1       0.340   1.735   0.412  0.00  0.00    +0.000 A 
ATOM      3  O   UNL     1       0.401   2.942   0.669  0.00  0.00    +0.000 OA
ATOM      4  C   UNL     1       0.751   1.300  -0.943  0.00  0.00    +0.000 A 
ATOM      5  C   UNL     1       1.217   2.251  -1.870  0.00  0.00    +0.000 A 
ATOM      6  C   UNL     1       1.584   1.858  -3.151  0.00  0.00    +0.000 A 
ATOM      7  C   UNL     1       1.496   0.532  -3.530  0.00  0.00    +0.000 A 
ATOM      8  C   UNL     1       1.037  -0.416  -2.610  0.00  0.00    +0.000 A 
ATOM      9  C   UNL     1       0.655  -0.062  -1.295  0.00  0.00    +0.000 A 
ATOM     10  C   UNL     1       0.166  -1.048  -0.302  0.00  0.00    +0.000 A 
ATOM     11  C   UNL     1       0.034  -2.428  -0.600  0.00  0.00    +0.000 A 
ATOM     12  C   UNL     1      -0.436  -3.329   0.351  0.00  0.00    +0.000 A 
ATOM     13  C   UNL     1      -0.781  -2.886   1.612  0.00  0.00    +0.000 A 
ATOM     14  C   UNL     1      -0.663  -1.546   1.939  0.00  0.00    +0.000 A 
ATOM     15  C   UNL     1      -0.200  -0.611   0.994  0.00  0.00    +0.000 A 
ATOM     16  H   UNL     1       1.780   0.235  -4.535  0.00  0.00    +0.000 HD
ATOM     17  H   UNL     1       0.986  -1.441  -2.962  0.00  0.00    +0.000 HD
ATOM     18  H   UNL     1       0.291  -2.813  -1.580  0.00  0.00    +0.000 HD
ATOM     19  H   UNL     1      -0.952  -1.274   2.946  0.00  0.00    +0.000 HD
ENDROOT
BRANCH   1  20
ATOM     20  C   UNL     1      -0.608   1.265   2.613  0.00  0.00    +0.000 C 
ATOM     21  H   UNL     1      -0.347   0.575   3.419  0.00  0.00    +0.000 HD
ATOM     22  H   UNL     1      -0.098   2.200   2.874  0.00  0.00    +0.000 HD
BRANCH  20  23
ATOM     23  C   UNL     1      -2.107   1.529   2.560  0.00  0.00    +0.000 C 
ATOM     24  H   UNL     1      -2.468   1.880   3.532  0.00  0.00    +0.000 HD
ATOM     25  H   UNL     1      -2.670   0.628   2.295  0.00  0.00    +0.000 HD
ATOM     26  H   UNL     1      -2.341   2.293   1.811  0.00  0.00    +0.000 HD
ENDBRANCH  20  23
ENDBRANCH   1  20
BRANCH   5  27
ATOM     27  O   UNL     1       1.338   3.593  -1.600  0.00  0.00    +0.000 OA
ATOM     28  H   UNL     1       1.032   3.736  -0.674  0.00  0.00    +0.000 HD
ENDBRANCH   5  27
BRANCH   6  29
ATOM     29  O   UNL     1       2.032   2.772  -4.057  0.00  0.00    +0.000 OA
ATOM     30  H   UNL     1       2.009   3.627  -3.580  0.00  0.00    +0.000 HD
ENDBRANCH   6  29
BRANCH  12  31
ATOM     31  O   UNL     1      -0.578  -4.663   0.088  0.00  0.00    +0.000 OA
ATOM     32  H   UNL     1      -0.284  -4.835  -0.823  0.00  0.00    +0.000 HD
ENDBRANCH  12  31
BRANCH  13  33
ATOM     33  O   UNL     1      -1.248  -3.752   2.557  0.00  0.00    +0.000 OA
ATOM     34  H   UNL     1      -1.264  -4.625   2.114  0.00  0.00    +0.000 HD
ENDBRANCH  13  33
TORSDOF 6
