REMARK  Name = 
REMARK  5 active torsions:
REMARK  status: ('A' for Active; 'I' for Inactive)
REMARK    1  A    between atoms: C_1  and  N_2
REMARK    2  A    between atoms: N_2  and  C_3
REMARK    3  A    between atoms: C_3  and  C_4
REMARK    4  A    between atoms: C_4  and  C_5
REMARK    5  A    between atoms: C_5  and  N_6
REMARK                            x       y       z     vdW  Elec       q    Type
REMARK                         _______ _______ _______ _____ _____    ______ ____
ROOT
ATOM      1  N   UNL     1      -0.582   1.377   1.200  0.00  0.00    +0.000 N 
ATOM      2  C   UNL     1       0.189   2.488   1.625  0.00  0.00    +0.000 A 
ATOM      3  C   UNL     1      -0.188   3.729   2.177  0.00  0.00    +0.000 A 
ATOM      4  C   UNL     1       0.810   4.642   2.552  0.00  0.00    +0.000 A 
ATOM      5  C   UNL     1       2.153   4.340   2.363  0.00  0.00    +0.000 A 
ATOM      6  C   UNL     1       2.525   3.135   1.776  0.00  0.00    +0.000 A 
ATOM      7  C   UNL     1       1.544   2.191   1.404  0.00  0.00    +0.000 A 
ATOM      8  C   UNL     1       1.514   0.952   0.809  0.00  0.00    +0.000 A 
ATOM      9  C   UNL     1       2.657   0.228   0.371  0.00  0.00    +0.000 A 
ATOM     10  C   UNL     1       2.445  -0.944  -0.385  0.00  0.00    +0.000 A 
ATOM     11  C   UNL     1       1.107  -1.320  -0.672  0.00  0.00    +0.000 A 
ATOM     12  C   UNL     1       0.778  -2.546  -1.209  0.00  0.00    +0.000 A 
ATOM     13  C   UNL     1       0.399  -3.002  -2.488  0.00  0.00    +0.000 A 
ATOM     14  C   UNL     1      -0.202  -4.260  -2.599  0.00  0.00    +0.000 A 
ATOM     15  C   UNL     1      -0.306  -5.068  -1.472  0.00  0.00    +0.000 A 
ATOM     16  C   UNL     1      -0.147  -4.519  -0.194  0.00  0.00    +0.000 A 
ATOM     17  C   UNL     1       0.096  -3.142  -0.147  0.00  0.00    +0.000 A 
ATOM     18  N   UNL     1      -0.625  -2.026   0.380  0.00  0.00    +0.000 N 
ATOM     19  C   UNL     1       0.171  -0.901   0.232  0.00  0.00    +0.000 A 
ATOM     20  C   UNL     1       0.273   0.384   0.742  0.00  0.00    +0.000 A 
ATOM     21  C   UNL     1       3.699  -1.567  -0.660  0.00  0.00    +0.000 C 
ATOM     22  O   UNL     1       4.027  -2.658  -1.109  0.00  0.00    +0.000 OA
ATOM     23  N   UNL     1       4.597  -0.644  -0.196  0.00  0.00    +0.000 N 
ATOM     24  C   UNL     1       4.089   0.382   0.527  0.00  0.00    +0.000 C 
ATOM     25  O   UNL     1       4.802   1.155   1.183  0.00  0.00    +0.000 OA
ATOM     26  H   UNL     1      -1.234   3.993   2.340  0.00  0.00    +0.000 HD
ATOM     27  H   UNL     1       0.545   5.592   3.001  0.00  0.00    +0.000 HD
ATOM     28  H   UNL     1       2.928   5.039   2.668  0.00  0.00    +0.000 HD
ATOM     29  H   UNL     1       3.577   2.945   1.634  0.00  0.00    +0.000 HD
ATOM     30  H   UNL     1       0.465  -2.334  -3.339  0.00  0.00    +0.000 HD
ATOM     31  H   UNL     1      -0.538  -4.616  -3.567  0.00  0.00    +0.000 HD
ATOM     32  H   UNL     1      -0.508  -6.131  -1.588  0.00  0.00    +0.000 HD
ATOM     33  H   UNL     1       0.079  -5.171   0.650  0.00  0.00    +0.000 HD
ATOM     34  H   UNL     1      -1.542  -2.087   0.799  0.00  0.00    +0.000 HD
ATOM     35  H   UNL     1       5.585  -0.848  -0.161  0.00  0.00    +0.000 HD
ENDROOT
BRANCH   1  36
ATOM     36  C   UNL     1      -2.040   1.390   1.158  0.00  0.00    +0.000 C 
ATOM     37  H   UNL     1      -2.396   0.380   1.382  0.00  0.00    +0.000 HD
ATOM     38  H   UNL     1      -2.390   2.023   1.980  0.00  0.00    +0.000 HD
BRANCH  36  39
ATOM     39  C   UNL     1      -2.664   1.929  -0.149  0.00  0.00    +0.000 C 
ATOM     40  H   UNL     1      -3.751   1.992  -0.030  0.00  0.00    +0.000 HD
ATOM     41  H   UNL     1      -2.343   2.964  -0.333  0.00  0.00    +0.000 HD
BRANCH  39  42
ATOM     42  C   UNL     1      -2.338   1.077  -1.381  0.00  0.00    +0.000 C 
ATOM     43  H   UNL     1      -2.795   1.515  -2.278  0.00  0.00    +0.000 HD
ATOM     44  H   UNL     1      -1.258   1.100  -1.561  0.00  0.00    +0.000 HD
BRANCH  42  45
ATOM     45  N   UNL     1      -2.768  -0.316  -1.229  0.00  0.00    +0.000 NA
ATOM     46  H   UNL     1      -2.454  -0.849  -2.042  0.00  0.00    +0.000 HD
BRANCH  45  47
ATOM     47  C   UNL     1      -4.209  -0.456  -1.079  0.00  0.00    +0.000 C 
ATOM     48  H   UNL     1      -4.457  -1.514  -0.955  0.00  0.00    +0.000 HD
ATOM     49  H   UNL     1      -4.743  -0.070  -1.951  0.00  0.00    +0.000 HD
ATOM     50  H   UNL     1      -4.574   0.048  -0.180  0.00  0.00    +0.000 HD
ENDBRANCH  45  47
ENDBRANCH  42  45
ENDBRANCH  39  42
ENDBRANCH  36  39
ENDBRANCH   1  36
TORSDOF 5
