MODEL 1
REMARK VINA RESULT:    -8.991      0.000      0.000
REMARK INTER + INTRA:         -12.999
REMARK INTER:                 -12.145
REMARK INTRA:                  -0.854
REMARK UNBOUND:                -0.854
REMARK  Name = 
REMARK  7 active torsions:
REMARK  status: ('A' for Active; 'I' for Inactive)
REMARK    1  A    between atoms: C_1  and  N_2
REMARK    2  A    between atoms: C_12  and  C_13
REMARK    3  A    between atoms: C_13  and  C_14
REMARK    4  A    between atoms: C_14  and  N_15
REMARK    5  A    between atoms: N_15  and  C_16
REMARK    6  A    between atoms: C_16  and  C_17
REMARK    7  A    between atoms: C_17  and  O_18
REMARK                            x       y       z     vdW  Elec       q    Type
REMARK                         _______ _______ _______ _____ _____    ______ ____
ROOT
ATOM      1  N   UNL     1      -9.047 -10.728  16.961  0.00  0.00    +0.000 N 
ATOM      2  C   UNL     1      -8.080 -11.715  17.255  0.00  0.00    +0.000 A 
ATOM      3  C   UNL     1      -8.389 -11.885  18.593  0.00  0.00    +0.000 A 
ATOM      4  C   UNL     1      -8.432 -10.541  19.045  0.00  0.00    +0.000 A 
ATOM      5  C   UNL     1      -8.147  -9.952  20.287  0.00  0.00    +0.000 A 
ATOM      6  C   UNL     1      -8.113  -8.569  20.340  0.00  0.00    +0.000 A 
ATOM      7  C   UNL     1      -8.542  -7.813  19.246  0.00  0.00    +0.000 A 
ATOM      8  C   UNL     1      -8.401  -6.424  19.275  0.00  0.00    +0.000 A 
ATOM      9  N   UNL     1      -8.130  -5.570  20.290  0.00  0.00    +0.000 N 
ATOM     10  C   UNL     1      -8.612  -4.303  20.009  0.00  0.00    +0.000 A 
ATOM     11  C   UNL     1      -8.843  -3.248  20.905  0.00  0.00    +0.000 A 
ATOM     12  C   UNL     1      -9.464  -2.112  20.365  0.00  0.00    +0.000 A 
ATOM     13  C   UNL     1      -9.759  -2.018  19.006  0.00  0.00    +0.000 A 
ATOM     14  C   UNL     1      -9.462  -3.070  18.131  0.00  0.00    +0.000 A 
ATOM     15  C   UNL     1      -8.909  -4.258  18.654  0.00  0.00    +0.000 A 
ATOM     16  C   UNL     1      -8.678  -5.583  18.222  0.00  0.00    +0.000 A 
ATOM     17  C   UNL     1      -9.307  -6.097  17.060  0.00  0.00    +0.000 A 
ATOM     18  C   UNL     1      -9.767  -7.442  17.245  0.00  0.00    +0.000 A 
ATOM     19  C   UNL     1      -9.170  -8.386  18.105  0.00  0.00    +0.000 A 
ATOM     20  C   UNL     1      -8.960  -9.779  17.971  0.00  0.00    +0.000 A 
ATOM     21  C   UNL     1     -11.187  -7.283  16.950  0.00  0.00    +0.000 C 
ATOM     22  O   UNL     1     -12.196  -7.744  17.481  0.00  0.00    +0.000 OA
ATOM     23  N   UNL     1     -11.236  -6.185  16.114  0.00  0.00    +0.000 N 
ATOM     24  C   UNL     1     -10.090  -5.430  16.084  0.00  0.00    +0.000 C 
ATOM     25  O   UNL     1      -9.920  -4.459  15.376  0.00  0.00    +0.000 OA
ATOM     26  H   UNL     1      -7.100 -11.453  16.857  0.00  0.00    +0.000 HD
ATOM     27  H   UNL     1      -8.966 -12.699  19.019  0.00  0.00    +0.000 HD
ATOM     28  H   UNL     1      -7.778 -10.553  21.108  0.00  0.00    +0.000 HD
ATOM     29  H   UNL     1      -7.683  -8.106  21.224  0.00  0.00    +0.000 HD
ATOM     30  H   UNL     1      -7.926  -5.884  21.224  0.00  0.00    +0.000 HD
ATOM     31  H   UNL     1      -9.728  -1.281  21.015  0.00  0.00    +0.000 HD
ATOM     32  H   UNL     1     -10.241  -1.123  18.621  0.00  0.00    +0.000 HD
ATOM     33  H   UNL     1      -9.719  -2.948  17.084  0.00  0.00    +0.000 HD
ATOM     34  H   UNL     1     -12.098  -5.693  15.946  0.00  0.00    +0.000 HD
ENDROOT
BRANCH   1  35
ATOM     35  C   UNL     1     -10.081 -11.047  16.006  0.00  0.00    +0.000 C 
ATOM     36  H   UNL     1      -9.630 -11.519  15.134  0.00  0.00    +0.000 HD
ATOM     37  H   UNL     1     -10.645 -10.147  15.766  0.00  0.00    +0.000 HD
ATOM     38  H   UNL     1     -10.765 -11.767  16.481  0.00  0.00    +0.000 HD
ENDBRANCH   1  35
BRANCH  11  39
ATOM     39  C   UNL     1      -8.527  -3.344  22.378  0.00  0.00    +0.000 C 
ATOM     40  H   UNL     1      -8.250  -4.384  22.599  0.00  0.00    +0.000 HD
ATOM     41  H   UNL     1      -9.423  -3.131  22.972  0.00  0.00    +0.000 HD
BRANCH  39  42
ATOM     42  C   UNL     1      -7.383  -2.420  22.837  0.00  0.00    +0.000 C 
ATOM     43  H   UNL     1      -7.048  -2.693  23.840  0.00  0.00    +0.000 HD
ATOM     44  H   UNL     1      -7.768  -1.395  22.907  0.00  0.00    +0.000 HD
BRANCH  42  45
ATOM     45  N   UNL     1      -6.242  -2.462  21.919  0.00  0.00    +0.000 NA
ATOM     46  H   UNL     1      -5.609  -1.699  22.152  0.00  0.00    +0.000 HD
BRANCH  45  47
ATOM     47  C   UNL     1      -5.534  -3.744  22.026  0.00  0.00    +0.000 C 
ATOM     48  H   UNL     1      -6.246  -4.559  22.204  0.00  0.00    +0.000 HD
ATOM     49  H   UNL     1      -4.837  -3.698  22.870  0.00  0.00    +0.000 HD
BRANCH  47  50
ATOM     50  C   UNL     1      -4.753  -4.048  20.745  0.00  0.00    +0.000 C 
ATOM     51  H   UNL     1      -3.674  -4.078  20.928  0.00  0.00    +0.000 HD
ATOM     52  H   UNL     1      -4.950  -3.273  19.997  0.00  0.00    +0.000 HD
BRANCH  50  53
ATOM     53  O   UNL     1      -5.160  -5.301  20.200  0.00  0.00    +0.000 OA
ATOM     54  H   UNL     1      -5.701  -5.720  20.892  0.00  0.00    +0.000 HD
ENDBRANCH  50  53
ENDBRANCH  47  50
ENDBRANCH  45  47
ENDBRANCH  42  45
ENDBRANCH  39  42
ENDBRANCH  11  39
TORSDOF 7
ENDMDL
MODEL 2
REMARK VINA RESULT:    -8.970      1.965      2.555
REMARK INTER + INTRA:         -12.970
REMARK INTER:                 -12.646
REMARK INTRA:                  -0.324
REMARK UNBOUND:                -0.854
REMARK  Name = 
REMARK  7 active torsions:
REMARK  status: ('A' for Active; 'I' for Inactive)
REMARK    1  A    between atoms: C_1  and  N_2
REMARK    2  A    between atoms: C_12  and  C_13
REMARK    3  A    between atoms: C_13  and  C_14
REMARK    4  A    between atoms: C_14  and  N_15
REMARK    5  A    between atoms: N_15  and  C_16
REMARK    6  A    between atoms: C_16  and  C_17
REMARK    7  A    between atoms: C_17  and  O_18
REMARK                            x       y       z     vdW  Elec       q    Type
REMARK                         _______ _______ _______ _____ _____    ______ ____
ROOT
ATOM      1  N   UNL     1      -9.269 -10.459  16.801  0.00  0.00    +0.000 N 
ATOM      2  C   UNL     1      -8.308 -11.488  16.914  0.00  0.00    +0.000 A 
ATOM      3  C   UNL     1      -8.499 -11.775  18.254  0.00  0.00    +0.000 A 
ATOM      4  C   UNL     1      -8.462 -10.477  18.828  0.00  0.00    +0.000 A 
ATOM      5  C   UNL     1      -8.049 -10.011  20.085  0.00  0.00    +0.000 A 
ATOM      6  C   UNL     1      -7.970  -8.640  20.259  0.00  0.00    +0.000 A 
ATOM      7  C   UNL     1      -8.476  -7.778  19.282  0.00  0.00    +0.000 A 
ATOM      8  C   UNL     1      -8.292  -6.400  19.422  0.00  0.00    +0.000 A 
ATOM      9  N   UNL     1      -7.906  -5.650  20.480  0.00  0.00    +0.000 N 
ATOM     10  C   UNL     1      -8.376  -4.352  20.360  0.00  0.00    +0.000 A 
ATOM     11  C   UNL     1      -8.493  -3.380  21.365  0.00  0.00    +0.000 A 
ATOM     12  C   UNL     1      -9.129  -2.187  20.990  0.00  0.00    +0.000 A 
ATOM     13  C   UNL     1      -9.542  -1.962  19.678  0.00  0.00    +0.000 A 
ATOM     14  C   UNL     1      -9.356  -2.935  18.687  0.00  0.00    +0.000 A 
ATOM     15  C   UNL     1      -8.792  -4.177  19.048  0.00  0.00    +0.000 A 
ATOM     16  C   UNL     1      -8.640  -5.461  18.480  0.00  0.00    +0.000 A 
ATOM     17  C   UNL     1      -9.386  -5.853  17.340  0.00  0.00    +0.000 A 
ATOM     18  C   UNL     1      -9.866  -7.200  17.445  0.00  0.00    +0.000 A 
ATOM     19  C   UNL     1      -9.221  -8.231  18.157  0.00  0.00    +0.000 A 
ATOM     20  C   UNL     1      -9.064  -9.610  17.879  0.00  0.00    +0.000 A 
ATOM     21  C   UNL     1     -11.301  -6.986  17.299  0.00  0.00    +0.000 C 
ATOM     22  O   UNL     1     -12.271  -7.473  17.877  0.00  0.00    +0.000 OA
ATOM     23  N   UNL     1     -11.394  -5.814  16.573  0.00  0.00    +0.000 N 
ATOM     24  C   UNL     1     -10.234  -5.083  16.504  0.00  0.00    +0.000 C 
ATOM     25  O   UNL     1     -10.101  -4.054  15.874  0.00  0.00    +0.000 OA
ATOM     26  H   UNL     1      -7.361 -11.211  16.452  0.00  0.00    +0.000 HD
ATOM     27  H   UNL     1      -9.058 -12.613  18.658  0.00  0.00    +0.000 HD
ATOM     28  H   UNL     1      -7.625 -10.693  20.812  0.00  0.00    +0.000 HD
ATOM     29  H   UNL     1      -7.450  -8.270  21.137  0.00  0.00    +0.000 HD
ATOM     30  H   UNL     1      -7.628  -6.052  21.360  0.00  0.00    +0.000 HD
ATOM     31  H   UNL     1      -9.308  -1.414  21.733  0.00  0.00    +0.000 HD
ATOM     32  H   UNL     1     -10.032  -1.025  19.421  0.00  0.00    +0.000 HD
ATOM     33  H   UNL     1      -9.704  -2.711  17.684  0.00  0.00    +0.000 HD
ATOM     34  H   UNL     1     -12.254  -5.291  16.530  0.00  0.00    +0.000 HD
ENDROOT
BRANCH   1  35
ATOM     35  C   UNL     1     -10.394 -10.668  15.921  0.00  0.00    +0.000 C 
ATOM     36  H   UNL     1     -10.544  -9.775  15.315  0.00  0.00    +0.000 HD
ATOM     37  H   UNL     1     -11.268 -10.944  16.507  0.00  0.00    +0.000 HD
ATOM     38  H   UNL     1     -10.146 -11.507  15.253  0.00  0.00    +0.000 HD
ENDBRANCH   1  35
BRANCH  11  39
ATOM     39  C   UNL     1      -8.049  -3.617  22.788  0.00  0.00    +0.000 C 
ATOM     40  H   UNL     1      -6.955  -3.518  22.822  0.00  0.00    +0.000 HD
ATOM     41  H   UNL     1      -8.274  -4.647  23.089  0.00  0.00    +0.000 HD
BRANCH  39  42
ATOM     42  C   UNL     1      -8.666  -2.643  23.809  0.00  0.00    +0.000 C 
ATOM     43  H   UNL     1      -9.233  -1.861  23.298  0.00  0.00    +0.000 HD
ATOM     44  H   UNL     1      -7.854  -2.136  24.344  0.00  0.00    +0.000 HD
BRANCH  42  45
ATOM     45  N   UNL     1      -9.539  -3.329  24.764  0.00  0.00    +0.000 NA
ATOM     46  H   UNL     1      -9.016  -3.497  25.621  0.00  0.00    +0.000 HD
BRANCH  45  47
ATOM     47  C   UNL     1     -10.727  -2.517  25.060  0.00  0.00    +0.000 C 
ATOM     48  H   UNL     1     -10.520  -1.456  24.876  0.00  0.00    +0.000 HD
ATOM     49  H   UNL     1     -10.992  -2.643  26.117  0.00  0.00    +0.000 HD
BRANCH  47  50
ATOM     50  C   UNL     1     -11.913  -2.942  24.191  0.00  0.00    +0.000 C 
ATOM     51  H   UNL     1     -11.588  -3.278  23.201  0.00  0.00    +0.000 HD
ATOM     52  H   UNL     1     -12.597  -2.097  24.056  0.00  0.00    +0.000 HD
BRANCH  50  53
ATOM     53  O   UNL     1     -12.635  -3.999  24.819  0.00  0.00    +0.000 OA
ATOM     54  H   UNL     1     -13.339  -3.563  25.331  0.00  0.00    +0.000 HD
ENDBRANCH  50  53
ENDBRANCH  47  50
ENDBRANCH  45  47
ENDBRANCH  42  45
ENDBRANCH  39  42
ENDBRANCH  11  39
TORSDOF 7
ENDMDL
MODEL 3
REMARK VINA RESULT:    -8.965      2.707      8.538
REMARK INTER + INTRA:         -12.963
REMARK INTER:                 -12.567
REMARK INTRA:                  -0.397
REMARK UNBOUND:                -0.854
REMARK  Name = 
REMARK  7 active torsions:
REMARK  status: ('A' for Active; 'I' for Inactive)
REMARK    1  A    between atoms: C_1  and  N_2
REMARK    2  A    between atoms: C_12  and  C_13
REMARK    3  A    between atoms: C_13  and  C_14
REMARK    4  A    between atoms: C_14  and  N_15
REMARK    5  A    between atoms: N_15  and  C_16
REMARK    6  A    between atoms: C_16  and  C_17
REMARK    7  A    between atoms: C_17  and  O_18
REMARK                            x       y       z     vdW  Elec       q    Type
REMARK                         _______ _______ _______ _____ _____    ______ ____
ROOT
ATOM      1  N   UNL     1      -9.585   0.766  23.440  0.00  0.00    +0.000 N 
ATOM      2  C   UNL     1     -10.200   1.961  23.003  0.00  0.00    +0.000 A 
ATOM      3  C   UNL     1     -11.486   1.470  22.868  0.00  0.00    +0.000 A 
ATOM      4  C   UNL     1     -11.258   0.282  22.127  0.00  0.00    +0.000 A 
ATOM      5  C   UNL     1     -12.040  -0.413  21.192  0.00  0.00    +0.000 A 
ATOM      6  C   UNL     1     -11.436  -1.454  20.507  0.00  0.00    +0.000 A 
ATOM      7  C   UNL     1     -10.169  -1.904  20.890  0.00  0.00    +0.000 A 
ATOM      8  C   UNL     1      -9.529  -2.880  20.124  0.00  0.00    +0.000 A 
ATOM      9  N   UNL     1      -9.990  -3.708  19.156  0.00  0.00    +0.000 N 
ATOM     10  C   UNL     1      -9.203  -4.843  19.064  0.00  0.00    +0.000 A 
ATOM     11  C   UNL     1      -9.520  -6.066  18.455  0.00  0.00    +0.000 A 
ATOM     12  C   UNL     1      -8.582  -7.096  18.626  0.00  0.00    +0.000 A 
ATOM     13  C   UNL     1      -7.379  -6.883  19.295  0.00  0.00    +0.000 A 
ATOM     14  C   UNL     1      -7.071  -5.630  19.842  0.00  0.00    +0.000 A 
ATOM     15  C   UNL     1      -8.026  -4.595  19.756  0.00  0.00    +0.000 A 
ATOM     16  C   UNL     1      -8.243  -3.322  20.329  0.00  0.00    +0.000 A 
ATOM     17  C   UNL     1      -7.533  -2.906  21.483  0.00  0.00    +0.000 A 
ATOM     18  C   UNL     1      -8.375  -2.213  22.415  0.00  0.00    +0.000 A 
ATOM     19  C   UNL     1      -9.505  -1.449  22.063  0.00  0.00    +0.000 A 
ATOM     20  C   UNL     1     -10.017  -0.235  22.581  0.00  0.00    +0.000 A 
ATOM     21  C   UNL     1      -8.196  -3.040  23.603  0.00  0.00    +0.000 C 
ATOM     22  O   UNL     1      -8.988  -3.441  24.455  0.00  0.00    +0.000 OA
ATOM     23  N   UNL     1      -6.954  -3.619  23.427  0.00  0.00    +0.000 N 
ATOM     24  C   UNL     1      -6.449  -3.528  22.154  0.00  0.00    +0.000 C 
ATOM     25  O   UNL     1      -5.356  -3.929  21.813  0.00  0.00    +0.000 OA
ATOM     26  H   UNL     1      -9.622   2.451  22.220  0.00  0.00    +0.000 HD
ATOM     27  H   UNL     1     -12.304   1.615  23.567  0.00  0.00    +0.000 HD
ATOM     28  H   UNL     1     -13.002  -0.024  20.882  0.00  0.00    +0.000 HD
ATOM     29  H   UNL     1     -11.947  -1.852  19.637  0.00  0.00    +0.000 HD
ATOM     30  H   UNL     1     -10.934  -3.666  18.810  0.00  0.00    +0.000 HD
ATOM     31  H   UNL     1      -8.792  -8.088  18.232  0.00  0.00    +0.000 HD
ATOM     32  H   UNL     1      -6.674  -7.703  19.411  0.00  0.00    +0.000 HD
ATOM     33  H   UNL     1      -6.124  -5.521  20.360  0.00  0.00    +0.000 HD
ATOM     34  H   UNL     1      -6.670  -4.422  23.963  0.00  0.00    +0.000 HD
ENDROOT
BRANCH   1  35
ATOM     35  C   UNL     1      -9.009   0.737  24.763  0.00  0.00    +0.000 C 
ATOM     36  H   UNL     1      -9.513  -0.025  25.356  0.00  0.00    +0.000 HD
ATOM     37  H   UNL     1      -9.060   1.731  25.204  0.00  0.00    +0.000 HD
ATOM     38  H   UNL     1      -7.949   0.459  24.661  0.00  0.00    +0.000 HD
ENDBRANCH   1  35
BRANCH  11  39
ATOM     39  C   UNL     1     -10.822  -6.305  17.729  0.00  0.00    +0.000 C 
ATOM     40  H   UNL     1     -11.357  -5.347  17.669  0.00  0.00    +0.000 HD
ATOM     41  H   UNL     1     -11.462  -6.979  18.310  0.00  0.00    +0.000 HD
BRANCH  39  42
ATOM     42  C   UNL     1     -10.653  -6.867  16.304  0.00  0.00    +0.000 C 
ATOM     43  H   UNL     1      -9.595  -7.000  16.068  0.00  0.00    +0.000 HD
ATOM     44  H   UNL     1     -11.039  -6.130  15.590  0.00  0.00    +0.000 HD
BRANCH  42  45
ATOM     45  N   UNL     1     -11.352  -8.142  16.131  0.00  0.00    +0.000 NA
ATOM     46  H   UNL     1     -11.965  -8.070  15.321  0.00  0.00    +0.000 HD
BRANCH  45  47
ATOM     47  C   UNL     1     -10.394  -9.238  15.931  0.00  0.00    +0.000 C 
ATOM     48  H   UNL     1     -10.842 -10.029  15.319  0.00  0.00    +0.000 HD
ATOM     49  H   UNL     1     -10.125  -9.660  16.907  0.00  0.00    +0.000 HD
BRANCH  47  50
ATOM     50  C   UNL     1      -9.126  -8.738  15.234  0.00  0.00    +0.000 C 
ATOM     51  H   UNL     1      -8.222  -9.126  15.715  0.00  0.00    +0.000 HD
ATOM     52  H   UNL     1      -9.089  -7.645  15.270  0.00  0.00    +0.000 HD
BRANCH  50  53
ATOM     53  O   UNL     1      -9.123  -9.135  13.865  0.00  0.00    +0.000 OA
ATOM     54  H   UNL     1      -8.854 -10.071  13.868  0.00  0.00    +0.000 HD
ENDBRANCH  50  53
ENDBRANCH  47  50
ENDBRANCH  45  47
ENDBRANCH  42  45
ENDBRANCH  39  42
ENDBRANCH  11  39
TORSDOF 7
ENDMDL
MODEL 4
REMARK VINA RESULT:    -8.915      2.920      7.842
REMARK INTER + INTRA:         -12.896
REMARK INTER:                 -12.711
REMARK INTRA:                  -0.185
REMARK UNBOUND:                -0.854
REMARK  Name = 
REMARK  7 active torsions:
REMARK  status: ('A' for Active; 'I' for Inactive)
REMARK    1  A    between atoms: C_1  and  N_2
REMARK    2  A    between atoms: C_12  and  C_13
REMARK    3  A    between atoms: C_13  and  C_14
REMARK    4  A    between atoms: C_14  and  N_15
REMARK    5  A    between atoms: N_15  and  C_16
REMARK    6  A    between atoms: C_16  and  C_17
REMARK    7  A    between atoms: C_17  and  O_18
REMARK                            x       y       z     vdW  Elec       q    Type
REMARK                         _______ _______ _______ _____ _____    ______ ____
ROOT
ATOM      1  N   UNL     1     -11.219  -1.018  15.719  0.00  0.00    +0.000 N 
ATOM      2  C   UNL     1     -11.163  -0.616  14.366  0.00  0.00    +0.000 A 
ATOM      3  C   UNL     1     -12.120  -1.485  13.875  0.00  0.00    +0.000 A 
ATOM      4  C   UNL     1     -11.699  -2.717  14.439  0.00  0.00    +0.000 A 
ATOM      5  C   UNL     1     -11.804  -4.044  13.996  0.00  0.00    +0.000 A 
ATOM      6  C   UNL     1     -11.113  -5.008  14.710  0.00  0.00    +0.000 A 
ATOM      7  C   UNL     1     -10.510  -4.682  15.927  0.00  0.00    +0.000 A 
ATOM      8  C   UNL     1      -9.727  -5.636  16.582  0.00  0.00    +0.000 A 
ATOM      9  N   UNL     1      -9.600  -6.972  16.398  0.00  0.00    +0.000 N 
ATOM     10  C   UNL     1      -9.175  -7.589  17.562  0.00  0.00    +0.000 A 
ATOM     11  C   UNL     1      -9.248  -8.951  17.894  0.00  0.00    +0.000 A 
ATOM     12  C   UNL     1      -8.862  -9.283  19.201  0.00  0.00    +0.000 A 
ATOM     13  C   UNL     1      -8.364  -8.324  20.081  0.00  0.00    +0.000 A 
ATOM     14  C   UNL     1      -8.252  -6.983  19.695  0.00  0.00    +0.000 A 
ATOM     15  C   UNL     1      -8.705  -6.600  18.414  0.00  0.00    +0.000 A 
ATOM     16  C   UNL     1      -8.993  -5.404  17.721  0.00  0.00    +0.000 A 
ATOM     17  C   UNL     1      -9.135  -4.172  18.409  0.00  0.00    +0.000 A 
ATOM     18  C   UNL     1     -10.228  -3.394  17.903  0.00  0.00    +0.000 A 
ATOM     19  C   UNL     1     -10.691  -3.427  16.572  0.00  0.00    +0.000 A 
ATOM     20  C   UNL     1     -11.173  -2.405  15.719  0.00  0.00    +0.000 A 
ATOM     21  C   UNL     1     -11.022  -3.226  19.115  0.00  0.00    +0.000 C 
ATOM     22  O   UNL     1     -12.233  -3.273  19.321  0.00  0.00    +0.000 OA
ATOM     23  N   UNL     1     -10.100  -3.335  20.139  0.00  0.00    +0.000 N 
ATOM     24  C   UNL     1      -8.886  -3.861  19.770  0.00  0.00    +0.000 C 
ATOM     25  O   UNL     1      -7.935  -3.989  20.511  0.00  0.00    +0.000 OA
ATOM     26  H   UNL     1     -10.137  -0.532  14.010  0.00  0.00    +0.000 HD
ATOM     27  H   UNL     1     -13.149  -1.236  13.633  0.00  0.00    +0.000 HD
ATOM     28  H   UNL     1     -12.241  -4.268  13.031  0.00  0.00    +0.000 HD
ATOM     29  H   UNL     1     -11.005  -5.990  14.261  0.00  0.00    +0.000 HD
ATOM     30  H   UNL     1     -10.066  -7.465  15.655  0.00  0.00    +0.000 HD
ATOM     31  H   UNL     1      -8.951 -10.311  19.544  0.00  0.00    +0.000 HD
ATOM     32  H   UNL     1      -8.074  -8.617  21.087  0.00  0.00    +0.000 HD
ATOM     33  H   UNL     1      -7.866  -6.276  20.422  0.00  0.00    +0.000 HD
ATOM     34  H   UNL     1     -10.389  -3.504  21.088  0.00  0.00    +0.000 HD
ENDROOT
BRANCH   1  35
ATOM     35  C   UNL     1     -11.654  -0.054  16.703  0.00  0.00    +0.000 C 
ATOM     36  H   UNL     1     -12.691  -0.257  16.968  0.00  0.00    +0.000 HD
ATOM     37  H   UNL     1     -11.494   0.952  16.322  0.00  0.00    +0.000 HD
ATOM     38  H   UNL     1     -11.030  -0.188  17.600  0.00  0.00    +0.000 HD
ENDBRANCH   1  35
BRANCH  11  39
ATOM     39  C   UNL     1      -9.787  -9.995  16.945  0.00  0.00    +0.000 C 
ATOM     40  H   UNL     1      -9.847  -9.545  15.945  0.00  0.00    +0.000 HD
ATOM     41  H   UNL     1     -10.811 -10.266  17.223  0.00  0.00    +0.000 HD
BRANCH  39  42
ATOM     42  C   UNL     1      -8.928 -11.271  16.863  0.00  0.00    +0.000 C 
ATOM     43  H   UNL     1      -9.099 -11.905  17.737  0.00  0.00    +0.000 HD
ATOM     44  H   UNL     1      -7.870 -10.983  16.893  0.00  0.00    +0.000 HD
BRANCH  42  45
ATOM     45  N   UNL     1      -9.201 -12.040  15.648  0.00  0.00    +0.000 NA
ATOM     46  H   UNL     1      -9.186 -11.406  14.851  0.00  0.00    +0.000 HD
BRANCH  45  47
ATOM     47  C   UNL     1      -8.196 -13.095  15.460  0.00  0.00    +0.000 C 
ATOM     48  H   UNL     1      -7.630 -13.251  16.386  0.00  0.00    +0.000 HD
ATOM     49  H   UNL     1      -7.499 -12.788  14.671  0.00  0.00    +0.000 HD
BRANCH  47  50
ATOM     50  C   UNL     1      -8.856 -14.417  15.061  0.00  0.00    +0.000 C 
ATOM     51  H   UNL     1      -8.295 -14.924  14.269  0.00  0.00    +0.000 HD
ATOM     52  H   UNL     1      -9.870 -14.230  14.694  0.00  0.00    +0.000 HD
BRANCH  50  53
ATOM     53  O   UNL     1      -8.948 -15.286  16.187  0.00  0.00    +0.000 OA
ATOM     54  H   UNL     1      -9.478 -14.803  16.844  0.00  0.00    +0.000 HD
ENDBRANCH  50  53
ENDBRANCH  47  50
ENDBRANCH  45  47
ENDBRANCH  42  45
ENDBRANCH  39  42
ENDBRANCH  11  39
TORSDOF 7
ENDMDL
MODEL 5
REMARK VINA RESULT:    -8.685      2.649      5.603
REMARK INTER + INTRA:         -12.585
REMARK INTER:                 -12.034
REMARK INTRA:                  -0.551
REMARK UNBOUND:                -0.854
REMARK  Name = 
REMARK  7 active torsions:
REMARK  status: ('A' for Active; 'I' for Inactive)
REMARK    1  A    between atoms: C_1  and  N_2
REMARK    2  A    between atoms: C_12  and  C_13
REMARK    3  A    between atoms: C_13  and  C_14
REMARK    4  A    between atoms: C_14  and  N_15
REMARK    5  A    between atoms: N_15  and  C_16
REMARK    6  A    between atoms: C_16  and  C_17
REMARK    7  A    between atoms: C_17  and  O_18
REMARK                            x       y       z     vdW  Elec       q    Type
REMARK                         _______ _______ _______ _____ _____    ______ ____
ROOT
ATOM      1  N   UNL     1      -8.368 -10.003  19.090  0.00  0.00    +0.000 N 
ATOM      2  C   UNL     1      -8.982 -11.275  19.045  0.00  0.00    +0.000 A 
ATOM      3  C   UNL     1      -8.817 -11.513  17.693  0.00  0.00    +0.000 A 
ATOM      4  C   UNL     1      -9.285 -10.296  17.133  0.00  0.00    +0.000 A 
ATOM      5  C   UNL     1      -9.913  -9.996  15.915  0.00  0.00    +0.000 A 
ATOM      6  C   UNL     1     -10.413  -8.715  15.757  0.00  0.00    +0.000 A 
ATOM      7  C   UNL     1     -10.117  -7.725  16.697  0.00  0.00    +0.000 A 
ATOM      8  C   UNL     1     -10.716  -6.468  16.581  0.00  0.00    +0.000 A 
ATOM      9  N   UNL     1     -11.389  -5.886  15.562  0.00  0.00    +0.000 N 
ATOM     10  C   UNL     1     -11.323  -4.506  15.654  0.00  0.00    +0.000 A 
ATOM     11  C   UNL     1     -11.580  -3.560  14.650  0.00  0.00    +0.000 A 
ATOM     12  C   UNL     1     -11.305  -2.225  14.982  0.00  0.00    +0.000 A 
ATOM     13  C   UNL     1     -10.879  -1.864  16.259  0.00  0.00    +0.000 A 
ATOM     14  C   UNL     1     -10.689  -2.831  17.255  0.00  0.00    +0.000 A 
ATOM     15  C   UNL     1     -10.880  -4.191  16.930  0.00  0.00    +0.000 A 
ATOM     16  C   UNL     1     -10.595  -5.453  17.500  0.00  0.00    +0.000 A 
ATOM     17  C   UNL     1      -9.681  -5.583  18.576  0.00  0.00    +0.000 A 
ATOM     18  C   UNL     1      -8.828  -6.726  18.424  0.00  0.00    +0.000 A 
ATOM     19  C   UNL     1      -9.187  -7.914  17.758  0.00  0.00    +0.000 A 
ATOM     20  C   UNL     1      -8.901  -9.272  18.037  0.00  0.00    +0.000 A 
ATOM     21  C   UNL     1      -7.517  -6.089  18.460  0.00  0.00    +0.000 C 
ATOM     22  O   UNL     1      -6.493  -6.272  17.804  0.00  0.00    +0.000 OA
ATOM     23  N   UNL     1      -7.725  -4.931  19.184  0.00  0.00    +0.000 N 
ATOM     24  C   UNL     1      -9.042  -4.580  19.348  0.00  0.00    +0.000 C 
ATOM     25  O   UNL     1      -9.429  -3.628  19.994  0.00  0.00    +0.000 OA
ATOM     26  H   UNL     1      -9.930 -11.286  19.582  0.00  0.00    +0.000 HD
ATOM     27  H   UNL     1      -8.064 -12.151  17.241  0.00  0.00    +0.000 HD
ATOM     28  H   UNL     1     -10.168 -10.786  15.219  0.00  0.00    +0.000 HD
ATOM     29  H   UNL     1     -11.086  -8.533  14.925  0.00  0.00    +0.000 HD
ATOM     30  H   UNL     1     -11.600  -6.368  14.704  0.00  0.00    +0.000 HD
ATOM     31  H   UNL     1     -11.424  -1.447  14.232  0.00  0.00    +0.000 HD
ATOM     32  H   UNL     1     -10.676  -0.820  16.484  0.00  0.00    +0.000 HD
ATOM     33  H   UNL     1     -10.348  -2.497  18.229  0.00  0.00    +0.000 HD
ATOM     34  H   UNL     1      -7.061  -4.174  19.163  0.00  0.00    +0.000 HD
ENDROOT
BRANCH   1  35
ATOM     35  C   UNL     1      -7.169  -9.849  19.879  0.00  0.00    +0.000 C 
ATOM     36  H   UNL     1      -7.392  -9.244  20.756  0.00  0.00    +0.000 HD
ATOM     37  H   UNL     1      -6.376  -9.435  19.258  0.00  0.00    +0.000 HD
ATOM     38  H   UNL     1      -6.858 -10.851  20.214  0.00  0.00    +0.000 HD
ENDBRANCH   1  35
BRANCH  11  39
ATOM     39  C   UNL     1     -12.040  -3.944  13.264  0.00  0.00    +0.000 C 
ATOM     40  H   UNL     1     -13.133  -4.055  13.288  0.00  0.00    +0.000 HD
ATOM     41  H   UNL     1     -11.637  -4.925  12.989  0.00  0.00    +0.000 HD
BRANCH  39  42
ATOM     42  C   UNL     1     -11.671  -2.919  12.173  0.00  0.00    +0.000 C 
ATOM     43  H   UNL     1     -11.792  -1.900  12.549  0.00  0.00    +0.000 HD
ATOM     44  H   UNL     1     -12.375  -3.027  11.340  0.00  0.00    +0.000 HD
BRANCH  42  45
ATOM     45  N   UNL     1     -10.300  -3.098  11.694  0.00  0.00    +0.000 NA
ATOM     46  H   UNL     1     -10.332  -3.430  10.732  0.00  0.00    +0.000 HD
BRANCH  45  47
ATOM     47  C   UNL     1      -9.556  -1.833  11.757  0.00  0.00    +0.000 C 
ATOM     48  H   UNL     1     -10.244  -0.993  11.909  0.00  0.00    +0.000 HD
ATOM     49  H   UNL     1      -9.024  -1.684  10.810  0.00  0.00    +0.000 HD
BRANCH  47  50
ATOM     50  C   UNL     1      -8.542  -1.849  12.904  0.00  0.00    +0.000 C 
ATOM     51  H   UNL     1      -8.922  -1.322  13.786  0.00  0.00    +0.000 HD
ATOM     52  H   UNL     1      -7.615  -1.360  12.588  0.00  0.00    +0.000 HD
BRANCH  50  53
ATOM     53  O   UNL     1      -8.230  -3.191  13.272  0.00  0.00    +0.000 OA
ATOM     54  H   UNL     1      -7.753  -3.123  14.118  0.00  0.00    +0.000 HD
ENDBRANCH  50  53
ENDBRANCH  47  50
ENDBRANCH  45  47
ENDBRANCH  42  45
ENDBRANCH  39  42
ENDBRANCH  11  39
TORSDOF 7
ENDMDL
MODEL 6
REMARK VINA RESULT:    -8.509      2.545      8.421
REMARK INTER + INTRA:         -12.348
REMARK INTER:                 -11.528
REMARK INTRA:                  -0.820
REMARK UNBOUND:                -0.854
REMARK  Name = 
REMARK  7 active torsions:
REMARK  status: ('A' for Active; 'I' for Inactive)
REMARK    1  A    between atoms: C_1  and  N_2
REMARK    2  A    between atoms: C_12  and  C_13
REMARK    3  A    between atoms: C_13  and  C_14
REMARK    4  A    between atoms: C_14  and  N_15
REMARK    5  A    between atoms: N_15  and  C_16
REMARK    6  A    between atoms: C_16  and  C_17
REMARK    7  A    between atoms: C_17  and  O_18
REMARK                            x       y       z     vdW  Elec       q    Type
REMARK                         _______ _______ _______ _____ _____    ______ ____
ROOT
ATOM      1  N   UNL     1      -9.601   0.779  23.349  0.00  0.00    +0.000 N 
ATOM      2  C   UNL     1     -10.229   1.953  22.876  0.00  0.00    +0.000 A 
ATOM      3  C   UNL     1     -11.513   1.448  22.776  0.00  0.00    +0.000 A 
ATOM      4  C   UNL     1     -11.287   0.235  22.075  0.00  0.00    +0.000 A 
ATOM      5  C   UNL     1     -12.075  -0.498  21.176  0.00  0.00    +0.000 A 
ATOM      6  C   UNL     1     -11.472  -1.559  20.522  0.00  0.00    +0.000 A 
ATOM      7  C   UNL     1     -10.198  -1.987  20.905  0.00  0.00    +0.000 A 
ATOM      8  C   UNL     1      -9.560  -2.986  20.167  0.00  0.00    +0.000 A 
ATOM      9  N   UNL     1     -10.027  -3.851  19.237  0.00  0.00    +0.000 N 
ATOM     10  C   UNL     1      -9.233  -4.984  19.176  0.00  0.00    +0.000 A 
ATOM     11  C   UNL     1      -9.549  -6.231  18.616  0.00  0.00    +0.000 A 
ATOM     12  C   UNL     1      -8.602  -7.248  18.813  0.00  0.00    +0.000 A 
ATOM     13  C   UNL     1      -7.392  -7.002  19.459  0.00  0.00    +0.000 A 
ATOM     14  C   UNL     1      -7.086  -5.729  19.955  0.00  0.00    +0.000 A 
ATOM     15  C   UNL     1      -8.050  -4.703  19.844  0.00  0.00    +0.000 A 
ATOM     16  C   UNL     1      -8.268  -3.411  20.372  0.00  0.00    +0.000 A 
ATOM     17  C   UNL     1      -7.547  -2.949  21.502  0.00  0.00    +0.000 A 
ATOM     18  C   UNL     1      -8.382  -2.228  22.418  0.00  0.00    +0.000 A 
ATOM     19  C   UNL     1      -9.522  -1.485  22.053  0.00  0.00    +0.000 A 
ATOM     20  C   UNL     1     -10.036  -0.256  22.532  0.00  0.00    +0.000 A 
ATOM     21  C   UNL     1      -8.184  -3.010  23.633  0.00  0.00    +0.000 C 
ATOM     22  O   UNL     1      -8.961  -3.385  24.509  0.00  0.00    +0.000 OA
ATOM     23  N   UNL     1      -6.940  -3.586  23.463  0.00  0.00    +0.000 N 
ATOM     24  C   UNL     1      -6.451  -3.539  22.181  0.00  0.00    +0.000 C 
ATOM     25  O   UNL     1      -5.359  -3.945  21.842  0.00  0.00    +0.000 OA
ATOM     26  H   UNL     1      -9.664   2.418  22.069  0.00  0.00    +0.000 HD
ATOM     27  H   UNL     1     -12.324   1.613  23.479  0.00  0.00    +0.000 HD
ATOM     28  H   UNL     1     -13.043  -0.127  20.864  0.00  0.00    +0.000 HD
ATOM     29  H   UNL     1     -11.991  -1.993  19.673  0.00  0.00    +0.000 HD
ATOM     30  H   UNL     1     -10.975  -3.829  18.901  0.00  0.00    +0.000 HD
ATOM     31  H   UNL     1      -8.810  -8.254  18.458  0.00  0.00    +0.000 HD
ATOM     32  H   UNL     1      -6.680  -7.813  19.595  0.00  0.00    +0.000 HD
ATOM     33  H   UNL     1      -6.133  -5.594  20.457  0.00  0.00    +0.000 HD
ATOM     34  H   UNL     1      -6.643  -4.368  24.024  0.00  0.00    +0.000 HD
ENDROOT
BRANCH   1  35
ATOM     35  C   UNL     1      -9.009   0.802  24.665  0.00  0.00    +0.000 C 
ATOM     36  H   UNL     1      -9.799   0.769  25.413  0.00  0.00    +0.000 HD
ATOM     37  H   UNL     1      -8.361   1.672  24.757  0.00  0.00    +0.000 HD
ATOM     38  H   UNL     1      -8.389  -0.103  24.769  0.00  0.00    +0.000 HD
ENDBRANCH   1  35
BRANCH  11  39
ATOM     39  C   UNL     1     -10.858  -6.504  17.915  0.00  0.00    +0.000 C 
ATOM     40  H   UNL     1     -11.497  -5.618  18.034  0.00  0.00    +0.000 HD
ATOM     41  H   UNL     1     -11.385  -7.331  18.406  0.00  0.00    +0.000 HD
BRANCH  39  42
ATOM     42  C   UNL     1     -10.714  -6.814  16.413  0.00  0.00    +0.000 C 
ATOM     43  H   UNL     1     -11.011  -7.845  16.204  0.00  0.00    +0.000 HD
ATOM     44  H   UNL     1      -9.655  -6.735  16.140  0.00  0.00    +0.000 HD
BRANCH  42  45
ATOM     45  N   UNL     1     -11.511  -5.905  15.587  0.00  0.00    +0.000 NA
ATOM     46  H   UNL     1     -12.305  -6.419  15.209  0.00  0.00    +0.000 HD
BRANCH  45  47
ATOM     47  C   UNL     1     -11.992  -4.765  16.379  0.00  0.00    +0.000 C 
ATOM     48  H   UNL     1     -11.680  -4.869  17.425  0.00  0.00    +0.000 HD
ATOM     49  H   UNL     1     -13.087  -4.740  16.342  0.00  0.00    +0.000 HD
BRANCH  47  50
ATOM     50  C   UNL     1     -11.440  -3.446  15.833  0.00  0.00    +0.000 C 
ATOM     51  H   UNL     1     -11.989  -2.585  16.229  0.00  0.00    +0.000 HD
ATOM     52  H   UNL     1     -11.525  -3.431  14.742  0.00  0.00    +0.000 HD
BRANCH  50  53
ATOM     53  O   UNL     1     -10.062  -3.306  16.171  0.00  0.00    +0.000 OA
ATOM     54  H   UNL     1      -9.676  -4.192  16.054  0.00  0.00    +0.000 HD
ENDBRANCH  50  53
ENDBRANCH  47  50
ENDBRANCH  45  47
ENDBRANCH  42  45
ENDBRANCH  39  42
ENDBRANCH  11  39
TORSDOF 7
ENDMDL
MODEL 7
REMARK VINA RESULT:    -7.748      2.820      7.024
REMARK INTER + INTRA:         -11.319
REMARK INTER:                 -10.679
REMARK INTRA:                  -0.641
REMARK UNBOUND:                -0.854
REMARK  Name = 
REMARK  7 active torsions:
REMARK  status: ('A' for Active; 'I' for Inactive)
REMARK    1  A    between atoms: C_1  and  N_2
REMARK    2  A    between atoms: C_12  and  C_13
REMARK    3  A    between atoms: C_13  and  C_14
REMARK    4  A    between atoms: C_14  and  N_15
REMARK    5  A    between atoms: N_15  and  C_16
REMARK    6  A    between atoms: C_16  and  C_17
REMARK    7  A    between atoms: C_17  and  O_18
REMARK                            x       y       z     vdW  Elec       q    Type
REMARK                         _______ _______ _______ _____ _____    ______ ____
ROOT
ATOM      1  N   UNL     1     -12.288   1.033  17.456  0.00  0.00    +0.000 N 
ATOM      2  C   UNL     1     -12.974   1.654  18.523  0.00  0.00    +0.000 A 
ATOM      3  C   UNL     1     -11.929   1.677  19.428  0.00  0.00    +0.000 A 
ATOM      4  C   UNL     1     -11.460   0.340  19.351  0.00  0.00    +0.000 A 
ATOM      5  C   UNL     1     -10.848  -0.502  20.292  0.00  0.00    +0.000 A 
ATOM      6  C   UNL     1     -10.681  -1.831  19.940  0.00  0.00    +0.000 A 
ATOM      7  C   UNL     1     -10.933  -2.248  18.630  0.00  0.00    +0.000 A 
ATOM      8  C   UNL     1     -10.864  -3.607  18.318  0.00  0.00    +0.000 A 
ATOM      9  N   UNL     1     -10.350  -4.659  18.998  0.00  0.00    +0.000 N 
ATOM     10  C   UNL     1     -10.000  -5.681  18.131  0.00  0.00    +0.000 A 
ATOM     11  C   UNL     1      -9.146  -6.766  18.376  0.00  0.00    +0.000 A 
ATOM     12  C   UNL     1      -8.863  -7.583  17.271  0.00  0.00    +0.000 A 
ATOM     13  C   UNL     1      -9.460  -7.365  16.031  0.00  0.00    +0.000 A 
ATOM     14  C   UNL     1     -10.354  -6.304  15.838  0.00  0.00    +0.000 A 
ATOM     15  C   UNL     1     -10.600  -5.417  16.908  0.00  0.00    +0.000 A 
ATOM     16  C   UNL     1     -11.200  -4.152  17.101  0.00  0.00    +0.000 A 
ATOM     17  C   UNL     1     -11.486  -3.301  16.004  0.00  0.00    +0.000 A 
ATOM     18  C   UNL     1     -11.170  -1.931  16.288  0.00  0.00    +0.000 A 
ATOM     19  C   UNL     1     -11.215  -1.343  17.568  0.00  0.00    +0.000 A 
ATOM     20  C   UNL     1     -11.623  -0.058  17.999  0.00  0.00    +0.000 A 
ATOM     21  C   UNL     1     -10.228  -1.644  15.212  0.00  0.00    +0.000 C 
ATOM     22  O   UNL     1      -9.168  -1.020  15.188  0.00  0.00    +0.000 OA
ATOM     23  N   UNL     1     -10.578  -2.533  14.213  0.00  0.00    +0.000 N 
ATOM     24  C   UNL     1     -11.401  -3.556  14.612  0.00  0.00    +0.000 C 
ATOM     25  O   UNL     1     -11.857  -4.405  13.875  0.00  0.00    +0.000 OA
ATOM     26  H   UNL     1     -13.952   1.205  18.692  0.00  0.00    +0.000 HD
ATOM     27  H   UNL     1     -11.311   2.535  19.673  0.00  0.00    +0.000 HD
ATOM     28  H   UNL     1     -10.698  -0.171  21.311  0.00  0.00    +0.000 HD
ATOM     29  H   UNL     1     -10.417  -2.533  20.724  0.00  0.00    +0.000 HD
ATOM     30  H   UNL     1      -9.969  -4.573  19.925  0.00  0.00    +0.000 HD
ATOM     31  H   UNL     1      -8.160  -8.407  17.374  0.00  0.00    +0.000 HD
ATOM     32  H   UNL     1      -9.218  -8.018  15.195  0.00  0.00    +0.000 HD
ATOM     33  H   UNL     1     -10.785  -6.175  14.851  0.00  0.00    +0.000 HD
ATOM     34  H   UNL     1      -9.953  -2.735  13.450  0.00  0.00    +0.000 HD
ENDROOT
BRANCH   1  35
ATOM     35  C   UNL     1     -12.109   1.776  16.231  0.00  0.00    +0.000 C 
ATOM     36  H   UNL     1     -11.377   2.566  16.396  0.00  0.00    +0.000 HD
ATOM     37  H   UNL     1     -13.072   2.145  15.885  0.00  0.00    +0.000 HD
ATOM     38  H   UNL     1     -11.712   1.083  15.474  0.00  0.00    +0.000 HD
ENDBRANCH   1  35
BRANCH  11  39
ATOM     39  C   UNL     1      -8.494  -7.007  19.716  0.00  0.00    +0.000 C 
ATOM     40  H   UNL     1      -8.089  -8.029  19.717  0.00  0.00    +0.000 HD
ATOM     41  H   UNL     1      -9.245  -6.974  20.514  0.00  0.00    +0.000 HD
BRANCH  39  42
ATOM     42  C   UNL     1      -7.356  -6.023  20.047  0.00  0.00    +0.000 C 
ATOM     43  H   UNL     1      -6.832  -5.723  19.136  0.00  0.00    +0.000 HD
ATOM     44  H   UNL     1      -6.618  -6.539  20.673  0.00  0.00    +0.000 HD
BRANCH  42  45
ATOM     45  N   UNL     1      -7.847  -4.829  20.738  0.00  0.00    +0.000 NA
ATOM     46  H   UNL     1      -8.472  -5.120  21.487  0.00  0.00    +0.000 HD
BRANCH  45  47
ATOM     47  C   UNL     1      -6.731  -4.054  21.296  0.00  0.00    +0.000 C 
ATOM     48  H   UNL     1      -6.668  -4.203  22.381  0.00  0.00    +0.000 HD
ATOM     49  H   UNL     1      -6.902  -2.989  21.099  0.00  0.00    +0.000 HD
BRANCH  47  50
ATOM     50  C   UNL     1      -5.401  -4.474  20.666  0.00  0.00    +0.000 C 
ATOM     51  H   UNL     1      -5.474  -4.535  19.575  0.00  0.00    +0.000 HD
ATOM     52  H   UNL     1      -5.106  -5.459  21.043  0.00  0.00    +0.000 HD
BRANCH  50  53
ATOM     53  O   UNL     1      -4.375  -3.545  21.006  0.00  0.00    +0.000 OA
ATOM     54  H   UNL     1      -3.861  -3.974  21.712  0.00  0.00    +0.000 HD
ENDBRANCH  50  53
ENDBRANCH  47  50
ENDBRANCH  45  47
ENDBRANCH  42  45
ENDBRANCH  39  42
ENDBRANCH  11  39
TORSDOF 7
ENDMDL
MODEL 8
REMARK VINA RESULT:    -7.742      3.890      7.354
REMARK INTER + INTRA:         -11.312
REMARK INTER:                 -10.580
REMARK INTRA:                  -0.732
REMARK UNBOUND:                -0.854
REMARK  Name = 
REMARK  7 active torsions:
REMARK  status: ('A' for Active; 'I' for Inactive)
REMARK    1  A    between atoms: C_1  and  N_2
REMARK    2  A    between atoms: C_12  and  C_13
REMARK    3  A    between atoms: C_13  and  C_14
REMARK    4  A    between atoms: C_14  and  N_15
REMARK    5  A    between atoms: N_15  and  C_16
REMARK    6  A    between atoms: C_16  and  C_17
REMARK    7  A    between atoms: C_17  and  O_18
REMARK                            x       y       z     vdW  Elec       q    Type
REMARK                         _______ _______ _______ _____ _____    ______ ____
ROOT
ATOM      1  N   UNL     1      -8.890  -5.502  19.096  0.00  0.00    +0.000 N 
ATOM      2  C   UNL     1      -9.833  -5.827  18.096  0.00  0.00    +0.000 A 
ATOM      3  C   UNL     1      -9.643  -4.718  17.293  0.00  0.00    +0.000 A 
ATOM      4  C   UNL     1      -9.705  -3.667  18.244  0.00  0.00    +0.000 A 
ATOM      5  C   UNL     1     -10.132  -2.333  18.153  0.00  0.00    +0.000 A 
ATOM      6  C   UNL     1     -10.237  -1.618  19.334  0.00  0.00    +0.000 A 
ATOM      7  C   UNL     1      -9.743  -2.154  20.526  0.00  0.00    +0.000 A 
ATOM      8  C   UNL     1      -9.952  -1.469  21.725  0.00  0.00    +0.000 A 
ATOM      9  N   UNL     1     -10.356  -0.201  21.975  0.00  0.00    +0.000 N 
ATOM     10  C   UNL     1      -9.909   0.222  23.215  0.00  0.00    +0.000 A 
ATOM     11  C   UNL     1      -9.813   1.536  23.697  0.00  0.00    +0.000 A 
ATOM     12  C   UNL     1      -9.198   1.685  24.949  0.00  0.00    +0.000 A 
ATOM     13  C   UNL     1      -8.783   0.583  25.693  0.00  0.00    +0.000 A 
ATOM     14  C   UNL     1      -8.947  -0.719  25.205  0.00  0.00    +0.000 A 
ATOM     15  C   UNL     1      -9.490  -0.901  23.915  0.00  0.00    +0.000 A 
ATOM     16  C   UNL     1      -9.617  -1.944  22.971  0.00  0.00    +0.000 A 
ATOM     17  C   UNL     1      -8.858  -3.136  23.088  0.00  0.00    +0.000 A 
ATOM     18  C   UNL     1      -8.355  -3.582  21.821  0.00  0.00    +0.000 A 
ATOM     19  C   UNL     1      -8.984  -3.358  20.580  0.00  0.00    +0.000 A 
ATOM     20  C   UNL     1      -9.115  -4.174  19.431  0.00  0.00    +0.000 A 
ATOM     21  C   UNL     1      -6.923  -3.612  22.097  0.00  0.00    +0.000 C 
ATOM     22  O   UNL     1      -5.947  -3.270  21.431  0.00  0.00    +0.000 OA
ATOM     23  N   UNL     1      -6.847  -3.798  23.464  0.00  0.00    +0.000 N 
ATOM     24  C   UNL     1      -8.020  -3.577  24.143  0.00  0.00    +0.000 C 
ATOM     25  O   UNL     1      -8.169  -3.736  25.336  0.00  0.00    +0.000 OA
ATOM     26  H   UNL     1     -10.782  -6.148  18.524  0.00  0.00    +0.000 HD
ATOM     27  H   UNL     1      -9.070  -4.683  16.372  0.00  0.00    +0.000 HD
ATOM     28  H   UNL     1     -10.548  -1.951  17.229  0.00  0.00    +0.000 HD
ATOM     29  H   UNL     1     -10.768  -0.671  19.308  0.00  0.00    +0.000 HD
ATOM     30  H   UNL     1     -10.631   0.435  21.245  0.00  0.00    +0.000 HD
ATOM     31  H   UNL     1      -9.036   2.681  25.355  0.00  0.00    +0.000 HD
ATOM     32  H   UNL     1      -8.309   0.735  26.661  0.00  0.00    +0.000 HD
ATOM     33  H   UNL     1      -8.598  -1.541  25.822  0.00  0.00    +0.000 HD
ATOM     34  H   UNL     1      -5.997  -3.615  23.972  0.00  0.00    +0.000 HD
ENDROOT
BRANCH   1  35
ATOM     35  C   UNL     1      -7.757  -6.377  19.281  0.00  0.00    +0.000 C 
ATOM     36  H   UNL     1      -6.841  -5.790  19.241  0.00  0.00    +0.000 HD
ATOM     37  H   UNL     1      -7.790  -7.176  18.542  0.00  0.00    +0.000 HD
ATOM     38  H   UNL     1      -7.842  -6.828  20.282  0.00  0.00    +0.000 HD
ENDBRANCH   1  35
BRANCH  11  39
ATOM     39  C   UNL     1     -10.261   2.735  22.895  0.00  0.00    +0.000 C 
ATOM     40  H   UNL     1     -10.453   2.402  21.865  0.00  0.00    +0.000 HD
ATOM     41  H   UNL     1      -9.452   3.472  22.833  0.00  0.00    +0.000 HD
BRANCH  39  42
ATOM     42  C   UNL     1     -11.530   3.417  23.440  0.00  0.00    +0.000 C 
ATOM     43  H   UNL     1     -11.577   4.458  23.110  0.00  0.00    +0.000 HD
ATOM     44  H   UNL     1     -11.470   3.442  24.535  0.00  0.00    +0.000 HD
BRANCH  42  45
ATOM     45  N   UNL     1     -12.749   2.721  23.023  0.00  0.00    +0.000 NA
ATOM     46  H   UNL     1     -13.542   3.134  23.511  0.00  0.00    +0.000 HD
BRANCH  45  47
ATOM     47  C   UNL     1     -12.945   2.837  21.572  0.00  0.00    +0.000 C 
ATOM     48  H   UNL     1     -12.029   3.200  21.091  0.00  0.00    +0.000 HD
ATOM     49  H   UNL     1     -13.751   3.555  21.377  0.00  0.00    +0.000 HD
BRANCH  47  50
ATOM     50  C   UNL     1     -13.318   1.485  20.959  0.00  0.00    +0.000 C 
ATOM     51  H   UNL     1     -12.502   1.080  20.350  0.00  0.00    +0.000 HD
ATOM     52  H   UNL     1     -14.198   1.597  20.319  0.00  0.00    +0.000 HD
BRANCH  50  53
ATOM     53  O   UNL     1     -13.634   0.545  21.984  0.00  0.00    +0.000 OA
ATOM     54  H   UNL     1     -14.553   0.274  21.812  0.00  0.00    +0.000 HD
ENDBRANCH  50  53
ENDBRANCH  47  50
ENDBRANCH  45  47
ENDBRANCH  42  45
ENDBRANCH  39  42
ENDBRANCH  11  39
TORSDOF 7
ENDMDL
MODEL 9
REMARK VINA RESULT:    -7.607      3.000      6.714
REMARK INTER + INTRA:         -11.129
REMARK INTER:                 -10.138
REMARK INTRA:                  -0.991
REMARK UNBOUND:                -0.854
REMARK  Name = 
REMARK  7 active torsions:
REMARK  status: ('A' for Active; 'I' for Inactive)
REMARK    1  A    between atoms: C_1  and  N_2
REMARK    2  A    between atoms: C_12  and  C_13
REMARK    3  A    between atoms: C_13  and  C_14
REMARK    4  A    between atoms: C_14  and  N_15
REMARK    5  A    between atoms: N_15  and  C_16
REMARK    6  A    between atoms: C_16  and  C_17
REMARK    7  A    between atoms: C_17  and  O_18
REMARK                            x       y       z     vdW  Elec       q    Type
REMARK                         _______ _______ _______ _____ _____    ______ ____
ROOT
ATOM      1  N   UNL     1     -13.223  -0.548  15.365  0.00  0.00    +0.000 N 
ATOM      2  C   UNL     1     -14.066   0.437  15.927  0.00  0.00    +0.000 A 
ATOM      3  C   UNL     1     -13.077   1.297  16.371  0.00  0.00    +0.000 A 
ATOM      4  C   UNL     1     -12.207   0.402  17.046  0.00  0.00    +0.000 A 
ATOM      5  C   UNL     1     -11.353   0.565  18.147  0.00  0.00    +0.000 A 
ATOM      6  C   UNL     1     -10.774  -0.577  18.675  0.00  0.00    +0.000 A 
ATOM      7  C   UNL     1     -10.887  -1.797  18.003  0.00  0.00    +0.000 A 
ATOM      8  C   UNL     1     -10.390  -2.957  18.601  0.00  0.00    +0.000 A 
ATOM      9  N   UNL     1      -9.564  -3.139  19.658  0.00  0.00    +0.000 N 
ATOM     10  C   UNL     1      -8.911  -4.357  19.568  0.00  0.00    +0.000 A 
ATOM     11  C   UNL     1      -7.754  -4.769  20.246  0.00  0.00    +0.000 A 
ATOM     12  C   UNL     1      -7.231  -6.013  19.863  0.00  0.00    +0.000 A 
ATOM     13  C   UNL     1      -7.874  -6.816  18.923  0.00  0.00    +0.000 A 
ATOM     14  C   UNL     1      -9.060  -6.396  18.308  0.00  0.00    +0.000 A 
ATOM     15  C   UNL     1      -9.570  -5.116  18.612  0.00  0.00    +0.000 A 
ATOM     16  C   UNL     1     -10.541  -4.227  18.097  0.00  0.00    +0.000 A 
ATOM     17  C   UNL     1     -11.089  -4.409  16.803  0.00  0.00    +0.000 A 
ATOM     18  C   UNL     1     -11.225  -3.170  16.095  0.00  0.00    +0.000 A 
ATOM     19  C   UNL     1     -11.448  -1.917  16.701  0.00  0.00    +0.000 A 
ATOM     20  C   UNL     1     -12.242  -0.812  16.311  0.00  0.00    +0.000 A 
ATOM     21  C   UNL     1     -10.430  -3.451  14.905  0.00  0.00    +0.000 C 
ATOM     22  O   UNL     1      -9.624  -2.771  14.271  0.00  0.00    +0.000 OA
ATOM     23  N   UNL     1     -10.483  -4.826  14.782  0.00  0.00    +0.000 N 
ATOM     24  C   UNL     1     -10.936  -5.489  15.897  0.00  0.00    +0.000 C 
ATOM     25  O   UNL     1     -11.101  -6.689  15.968  0.00  0.00    +0.000 OA
ATOM     26  H   UNL     1     -14.848  -0.004  16.544  0.00  0.00    +0.000 HD
ATOM     27  H   UNL     1     -12.763   2.217  15.888  0.00  0.00    +0.000 HD
ATOM     28  H   UNL     1     -11.311   1.509  18.675  0.00  0.00    +0.000 HD
ATOM     29  H   UNL     1     -10.295  -0.499  19.646  0.00  0.00    +0.000 HD
ATOM     30  H   UNL     1      -9.225  -2.376  20.220  0.00  0.00    +0.000 HD
ATOM     31  H   UNL     1      -6.302  -6.367  20.304  0.00  0.00    +0.000 HD
ATOM     32  H   UNL     1      -7.441  -7.776  18.648  0.00  0.00    +0.000 HD
ATOM     33  H   UNL     1      -9.515  -7.057  17.576  0.00  0.00    +0.000 HD
ATOM     34  H   UNL     1      -9.831  -5.326  14.201  0.00  0.00    +0.000 HD
ENDROOT
BRANCH   1  35
ATOM     35  C   UNL     1     -13.297  -0.781  13.943  0.00  0.00    +0.000 C 
ATOM     36  H   UNL     1     -13.379   0.175  13.427  0.00  0.00    +0.000 HD
ATOM     37  H   UNL     1     -14.119  -1.461  13.727  0.00  0.00    +0.000 HD
ATOM     38  H   UNL     1     -12.357  -1.266  13.634  0.00  0.00    +0.000 HD
ENDBRANCH   1  35
BRANCH  11  39
ATOM     39  C   UNL     1      -7.052  -3.904  21.265  0.00  0.00    +0.000 C 
ATOM     40  H   UNL     1      -7.059  -2.869  20.894  0.00  0.00    +0.000 HD
ATOM     41  H   UNL     1      -5.999  -4.194  21.347  0.00  0.00    +0.000 HD
BRANCH  39  42
ATOM     42  C   UNL     1      -7.698  -3.932  22.664  0.00  0.00    +0.000 C 
ATOM     43  H   UNL     1      -6.995  -3.569  23.417  0.00  0.00    +0.000 HD
ATOM     44  H   UNL     1      -7.920  -4.973  22.925  0.00  0.00    +0.000 HD
BRANCH  42  45
ATOM     45  N   UNL     1      -8.922  -3.131  22.719  0.00  0.00    +0.000 NA
ATOM     46  H   UNL     1      -9.627  -3.651  23.238  0.00  0.00    +0.000 HD
BRANCH  45  47
ATOM     47  C   UNL     1      -8.672  -1.842  23.378  0.00  0.00    +0.000 C 
ATOM     48  H   UNL     1      -7.607  -1.734  23.614  0.00  0.00    +0.000 HD
ATOM     49  H   UNL     1      -9.244  -1.801  24.312  0.00  0.00    +0.000 HD
BRANCH  47  50
ATOM     50  C   UNL     1      -9.095  -0.676  22.480  0.00  0.00    +0.000 C 
ATOM     51  H   UNL     1      -8.877   0.291  22.945  0.00  0.00    +0.000 HD
ATOM     52  H   UNL     1     -10.172  -0.727  22.288  0.00  0.00    +0.000 HD
BRANCH  50  53
ATOM     53  O   UNL     1      -8.419  -0.745  21.226  0.00  0.00    +0.000 OA
ATOM     54  H   UNL     1      -7.498  -0.496  21.415  0.00  0.00    +0.000 HD
ENDBRANCH  50  53
ENDBRANCH  47  50
ENDBRANCH  45  47
ENDBRANCH  42  45
ENDBRANCH  39  42
ENDBRANCH  11  39
TORSDOF 7
ENDMDL
