MODEL 1
REMARK VINA RESULT:   -10.842      0.000      0.000
REMARK INTER + INTRA:         -13.767
REMARK INTER:                 -13.378
REMARK INTRA:                  -0.389
REMARK UNBOUND:                -0.389
REMARK  Name = 
REMARK  5 active torsions:
REMARK  status: ('A' for Active; 'I' for Inactive)
REMARK    1  A    between atoms: C_1  and  N_2
REMARK    2  A    between atoms: C_12  and  C_13
REMARK    3  A    between atoms: C_13  and  C_14
REMARK    4  A    between atoms: C_14  and  N_15
REMARK    5  A    between atoms: C_18  and  O_19
REMARK                            x       y       z     vdW  Elec       q    Type
REMARK                         _______ _______ _______ _____ _____    ______ ____
ROOT
ATOM      1  N   UNL     1     -13.235  -0.280  13.773  0.00  0.00    +0.000 N 
ATOM      2  C   UNL     1     -13.878  -0.116  12.564  0.00  0.00    +0.000 A 
ATOM      3  C   UNL     1     -13.217  -0.860  11.625  0.00  0.00    +0.000 A 
ATOM      4  C   UNL     1     -12.550  -1.846  12.386  0.00  0.00    +0.000 A 
ATOM      5  C   UNL     1     -12.202  -3.159  12.025  0.00  0.00    +0.000 A 
ATOM      6  C   UNL     1     -11.876  -4.012  13.091  0.00  0.00    +0.000 A 
ATOM      7  C   UNL     1     -11.600  -3.505  14.387  0.00  0.00    +0.000 A 
ATOM      8  C   UNL     1     -11.191  -4.365  15.432  0.00  0.00    +0.000 A 
ATOM      9  N   UNL     1     -10.907  -5.692  15.437  0.00  0.00    +0.000 N 
ATOM     10  C   UNL     1     -10.035  -5.972  16.472  0.00  0.00    +0.000 A 
ATOM     11  C   UNL     1      -9.195  -7.087  16.633  0.00  0.00    +0.000 A 
ATOM     12  C   UNL     1      -8.308  -7.049  17.719  0.00  0.00    +0.000 A 
ATOM     13  C   UNL     1      -8.309  -5.990  18.621  0.00  0.00    +0.000 A 
ATOM     14  C   UNL     1      -9.187  -4.917  18.464  0.00  0.00    +0.000 A 
ATOM     15  C   UNL     1     -10.047  -4.877  17.348  0.00  0.00    +0.000 A 
ATOM     16  C   UNL     1     -10.885  -3.951  16.701  0.00  0.00    +0.000 A 
ATOM     17  C   UNL     1     -10.785  -2.538  16.972  0.00  0.00    +0.000 A 
ATOM     18  C   UNL     1     -10.899  -1.747  15.792  0.00  0.00    +0.000 A 
ATOM     19  C   UNL     1     -11.628  -2.123  14.641  0.00  0.00    +0.000 A 
ATOM     20  C   UNL     1     -12.359  -1.358  13.700  0.00  0.00    +0.000 A 
ATOM     21  C   UNL     1      -9.597  -1.082  15.800  0.00  0.00    +0.000 C 
ATOM     22  O   UNL     1      -8.786  -0.846  14.913  0.00  0.00    +0.000 OA
ATOM     23  N   UNL     1      -9.242  -1.047  17.130  0.00  0.00    +0.000 N 
ATOM     24  C   UNL     1      -9.971  -1.884  17.929  0.00  0.00    +0.000 C 
ATOM     25  O   UNL     1      -9.847  -1.965  19.140  0.00  0.00    +0.000 OA
ATOM     26  H   UNL     1     -14.785   0.469  12.467  0.00  0.00    +0.000 HD
ATOM     27  H   UNL     1     -13.458  -0.912  10.572  0.00  0.00    +0.000 HD
ATOM     28  H   UNL     1     -12.389  -3.547  11.056  0.00  0.00    +0.000 HD
ATOM     29  H   UNL     1     -11.816  -5.083  12.887  0.00  0.00    +0.000 HD
ATOM     30  H   UNL     1     -11.014  -6.286  14.628  0.00  0.00    +0.000 HD
ATOM     31  H   UNL     1      -7.588  -7.852  17.860  0.00  0.00    +0.000 HD
ATOM     32  H   UNL     1      -7.597  -5.978  19.444  0.00  0.00    +0.000 HD
ATOM     33  H   UNL     1      -9.129  -4.106  19.182  0.00  0.00    +0.000 HD
ATOM     34  H   UNL     1      -8.292  -0.857  17.413  0.00  0.00    +0.000 HD
ENDROOT
BRANCH   1  35
ATOM     35  C   UNL     1     -13.758   0.356  14.967  0.00  0.00    +0.000 C 
ATOM     36  H   UNL     1     -14.802   0.069  15.083  0.00  0.00    +0.000 HD
ATOM     37  H   UNL     1     -13.625   1.436  14.896  0.00  0.00    +0.000 HD
ATOM     38  H   UNL     1     -13.190  -0.006  15.835  0.00  0.00    +0.000 HD
ENDBRANCH   1  35
BRANCH  11  39
ATOM     39  C   UNL     1      -9.168  -8.237  15.655  0.00  0.00    +0.000 C 
ATOM     40  H   UNL     1      -8.128  -8.461  15.382  0.00  0.00    +0.000 HD
ATOM     41  H   UNL     1      -9.659  -7.922  14.733  0.00  0.00    +0.000 HD
BRANCH  39  42
ATOM     42  C   UNL     1      -9.866  -9.479  16.224  0.00  0.00    +0.000 C 
ATOM     43  H   UNL     1     -10.522  -9.927  15.464  0.00  0.00    +0.000 HD
ATOM     44  H   UNL     1     -10.521  -9.145  17.040  0.00  0.00    +0.000 HD
BRANCH  42  45
ATOM     45  N   UNL     1      -8.926 -10.487  16.756  0.00  0.00    +0.000 NA
ATOM     46  C   UNL     1      -9.172 -11.819  16.183  0.00  0.00    +0.000 C 
ATOM     47  C   UNL     1      -8.205 -12.865  16.737  0.00  0.00    +0.000 C 
ATOM     48  C   UNL     1      -8.226 -12.910  18.258  0.00  0.00    +0.000 C 
ATOM     49  C   UNL     1      -8.052 -11.514  18.844  0.00  0.00    +0.000 C 
ATOM     50  C   UNL     1      -9.022 -10.510  18.226  0.00  0.00    +0.000 C 
ATOM     51  H   UNL     1      -9.021 -11.805  15.100  0.00  0.00    +0.000 HD
ATOM     52  H   UNL     1     -10.209 -12.133  16.357  0.00  0.00    +0.000 HD
ATOM     53  H   UNL     1      -7.190 -12.629  16.395  0.00  0.00    +0.000 HD
ATOM     54  H   UNL     1      -8.472 -13.845  16.326  0.00  0.00    +0.000 HD
ATOM     55  H   UNL     1      -7.412 -13.553  18.610  0.00  0.00    +0.000 HD
ATOM     56  H   UNL     1      -7.023 -11.172  18.667  0.00  0.00    +0.000 HD
ATOM     57  H   UNL     1      -8.209 -11.537  19.929  0.00  0.00    +0.000 HD
ATOM     58  H   UNL     1      -8.777  -9.518  18.625  0.00  0.00    +0.000 HD
ATOM     59  H   UNL     1     -10.049 -10.737  18.544  0.00  0.00    +0.000 HD
BRANCH  48  60
ATOM     60  O   UNL     1      -9.433 -13.508  18.725  0.00  0.00    +0.000 OA
ATOM     61  H   UNL     1     -10.066 -12.806  18.953  0.00  0.00    +0.000 HD
ENDBRANCH  48  60
ENDBRANCH  42  45
ENDBRANCH  39  42
ENDBRANCH  11  39
TORSDOF 5
ENDMDL
MODEL 2
REMARK VINA RESULT:   -10.504      4.202      7.261
REMARK INTER + INTRA:         -13.349
REMARK INTER:                 -13.009
REMARK INTRA:                  -0.341
REMARK UNBOUND:                -0.389
REMARK  Name = 
REMARK  5 active torsions:
REMARK  status: ('A' for Active; 'I' for Inactive)
REMARK    1  A    between atoms: C_1  and  N_2
REMARK    2  A    between atoms: C_12  and  C_13
REMARK    3  A    between atoms: C_13  and  C_14
REMARK    4  A    between atoms: C_14  and  N_15
REMARK    5  A    between atoms: C_18  and  O_19
REMARK                            x       y       z     vdW  Elec       q    Type
REMARK                         _______ _______ _______ _____ _____    ______ ____
ROOT
ATOM      1  N   UNL     1      -8.937   0.490  24.642  0.00  0.00    +0.000 N 
ATOM      2  C   UNL     1      -8.546   0.265  25.945  0.00  0.00    +0.000 A 
ATOM      3  C   UNL     1      -8.943  -0.997  26.297  0.00  0.00    +0.000 A 
ATOM      4  C   UNL     1      -9.071  -1.667  25.061  0.00  0.00    +0.000 A 
ATOM      5  C   UNL     1      -8.894  -3.031  24.770  0.00  0.00    +0.000 A 
ATOM      6  C   UNL     1      -8.734  -3.342  23.411  0.00  0.00    +0.000 A 
ATOM      7  C   UNL     1      -9.054  -2.406  22.394  0.00  0.00    +0.000 A 
ATOM      8  C   UNL     1      -8.969  -2.760  21.027  0.00  0.00    +0.000 A 
ATOM      9  N   UNL     1      -8.689  -3.944  20.427  0.00  0.00    +0.000 N 
ATOM     10  C   UNL     1      -9.261  -3.968  19.169  0.00  0.00    +0.000 A 
ATOM     11  C   UNL     1      -9.557  -5.079  18.362  0.00  0.00    +0.000 A 
ATOM     12  C   UNL     1     -10.263  -4.820  17.178  0.00  0.00    +0.000 A 
ATOM     13  C   UNL     1     -10.597  -3.524  16.799  0.00  0.00    +0.000 A 
ATOM     14  C   UNL     1     -10.249  -2.434  17.598  0.00  0.00    +0.000 A 
ATOM     15  C   UNL     1      -9.601  -2.650  18.830  0.00  0.00    +0.000 A 
ATOM     16  C   UNL     1      -9.282  -1.922  19.989  0.00  0.00    +0.000 A 
ATOM     17  C   UNL     1      -9.915  -0.659  20.276  0.00  0.00    +0.000 A 
ATOM     18  C   UNL     1     -10.255  -0.518  21.652  0.00  0.00    +0.000 A 
ATOM     19  C   UNL     1      -9.561  -1.136  22.718  0.00  0.00    +0.000 A 
ATOM     20  C   UNL     1      -9.304  -0.711  24.044  0.00  0.00    +0.000 A 
ATOM     21  C   UNL     1     -11.707  -0.373  21.547  0.00  0.00    +0.000 C 
ATOM     22  O   UNL     1     -12.632  -0.847  22.196  0.00  0.00    +0.000 OA
ATOM     23  N   UNL     1     -11.904   0.163  20.295  0.00  0.00    +0.000 N 
ATOM     24  C   UNL     1     -10.819   0.073  19.466  0.00  0.00    +0.000 C 
ATOM     25  O   UNL     1     -10.773   0.530  18.337  0.00  0.00    +0.000 OA
ATOM     26  H   UNL     1      -7.968   0.988  26.508  0.00  0.00    +0.000 HD
ATOM     27  H   UNL     1      -8.814  -1.454  27.269  0.00  0.00    +0.000 HD
ATOM     28  H   UNL     1      -8.669  -3.744  25.522  0.00  0.00    +0.000 HD
ATOM     29  H   UNL     1      -8.377  -4.343  23.155  0.00  0.00    +0.000 HD
ATOM     30  H   UNL     1      -8.437  -4.779  20.936  0.00  0.00    +0.000 HD
ATOM     31  H   UNL     1     -10.578  -5.646  16.542  0.00  0.00    +0.000 HD
ATOM     32  H   UNL     1     -11.163  -3.355  15.885  0.00  0.00    +0.000 HD
ATOM     33  H   UNL     1     -10.555  -1.447  17.267  0.00  0.00    +0.000 HD
ATOM     34  H   UNL     1     -12.814   0.153  19.860  0.00  0.00    +0.000 HD
ENDROOT
BRANCH   1  35
ATOM     35  C   UNL     1      -8.594   1.736  23.985  0.00  0.00    +0.000 C 
ATOM     36  H   UNL     1      -8.286   1.516  22.964  0.00  0.00    +0.000 HD
ATOM     37  H   UNL     1      -7.821   2.251  24.555  0.00  0.00    +0.000 HD
ATOM     38  H   UNL     1      -9.487   2.376  23.957  0.00  0.00    +0.000 HD
ENDBRANCH   1  35
BRANCH  11  39
ATOM     39  C   UNL     1      -9.218  -6.494  18.764  0.00  0.00    +0.000 C 
ATOM     40  H   UNL     1     -10.133  -7.015  19.076  0.00  0.00    +0.000 HD
ATOM     41  H   UNL     1      -8.576  -6.462  19.646  0.00  0.00    +0.000 HD
BRANCH  39  42
ATOM     42  C   UNL     1      -8.514  -7.252  17.631  0.00  0.00    +0.000 C 
ATOM     43  H   UNL     1      -7.496  -7.530  17.936  0.00  0.00    +0.000 HD
ATOM     44  H   UNL     1      -8.405  -6.557  16.787  0.00  0.00    +0.000 HD
BRANCH  42  45
ATOM     45  N   UNL     1      -9.260  -8.441  17.170  0.00  0.00    +0.000 NA
ATOM     46  C   UNL     1      -8.807  -9.666  17.847  0.00  0.00    +0.000 C 
ATOM     47  C   UNL     1      -9.572 -10.898  17.368  0.00  0.00    +0.000 C 
ATOM     48  C   UNL     1      -9.511 -11.053  15.855  0.00  0.00    +0.000 C 
ATOM     49  C   UNL     1      -9.904  -9.754  15.161  0.00  0.00    +0.000 C 
ATOM     50  C   UNL     1      -9.129  -8.557  15.708  0.00  0.00    +0.000 C 
ATOM     51  H   UNL     1      -8.982  -9.596  18.925  0.00  0.00    +0.000 HD
ATOM     52  H   UNL     1      -7.728  -9.812  17.708  0.00  0.00    +0.000 HD
ATOM     53  H   UNL     1     -10.620 -10.812  17.681  0.00  0.00    +0.000 HD
ATOM     54  H   UNL     1      -9.153 -11.785  17.856  0.00  0.00    +0.000 HD
ATOM     55  H   UNL     1     -10.198 -11.849  15.546  0.00  0.00    +0.000 HD
ATOM     56  H   UNL     1     -10.979  -9.579  15.302  0.00  0.00    +0.000 HD
ATOM     57  H   UNL     1      -9.721  -9.832  14.083  0.00  0.00    +0.000 HD
ATOM     58  H   UNL     1      -9.529  -7.654  15.230  0.00  0.00    +0.000 HD
ATOM     59  H   UNL     1      -8.073  -8.632  15.417  0.00  0.00    +0.000 HD
BRANCH  48  60
ATOM     60  O   UNL     1      -8.210 -11.472  15.446  0.00  0.00    +0.000 OA
ATOM     61  H   UNL     1      -7.960 -10.987  14.641  0.00  0.00    +0.000 HD
ENDBRANCH  48  60
ENDBRANCH  42  45
ENDBRANCH  39  42
ENDBRANCH  11  39
TORSDOF 5
ENDMDL
MODEL 3
REMARK VINA RESULT:   -10.114      1.138      1.611
REMARK INTER + INTRA:         -12.868
REMARK INTER:                 -12.473
REMARK INTRA:                  -0.395
REMARK UNBOUND:                -0.389
REMARK  Name = 
REMARK  5 active torsions:
REMARK  status: ('A' for Active; 'I' for Inactive)
REMARK    1  A    between atoms: C_1  and  N_2
REMARK    2  A    between atoms: C_12  and  C_13
REMARK    3  A    between atoms: C_13  and  C_14
REMARK    4  A    between atoms: C_14  and  N_15
REMARK    5  A    between atoms: C_18  and  O_19
REMARK                            x       y       z     vdW  Elec       q    Type
REMARK                         _______ _______ _______ _____ _____    ______ ____
ROOT
ATOM      1  N   UNL     1     -13.035  -0.492  13.952  0.00  0.00    +0.000 N 
ATOM      2  C   UNL     1     -13.651  -0.619  12.725  0.00  0.00    +0.000 A 
ATOM      3  C   UNL     1     -12.929  -1.507  11.975  0.00  0.00    +0.000 A 
ATOM      4  C   UNL     1     -12.237  -2.276  12.937  0.00  0.00    +0.000 A 
ATOM      5  C   UNL     1     -11.816  -3.614  12.865  0.00  0.00    +0.000 A 
ATOM      6  C   UNL     1     -11.479  -4.207  14.092  0.00  0.00    +0.000 A 
ATOM      7  C   UNL     1     -11.264  -3.427  15.258  0.00  0.00    +0.000 A 
ATOM      8  C   UNL     1     -10.843  -4.027  16.467  0.00  0.00    +0.000 A 
ATOM      9  N   UNL     1     -10.496  -5.307  16.755  0.00  0.00    +0.000 N 
ATOM     10  C   UNL     1      -9.640  -5.318  17.841  0.00  0.00    +0.000 A 
ATOM     11  C   UNL     1      -8.752  -6.328  18.246  0.00  0.00    +0.000 A 
ATOM     12  C   UNL     1      -7.899  -6.017  19.315  0.00  0.00    +0.000 A 
ATOM     13  C   UNL     1      -7.975  -4.795  19.975  0.00  0.00    +0.000 A 
ATOM     14  C   UNL     1      -8.900  -3.826  19.580  0.00  0.00    +0.000 A 
ATOM     15  C   UNL     1      -9.729  -4.066  18.466  0.00  0.00    +0.000 A 
ATOM     16  C   UNL     1     -10.593  -3.342  17.626  0.00  0.00    +0.000 A 
ATOM     17  C   UNL     1     -10.569  -1.900  17.595  0.00  0.00    +0.000 A 
ATOM     18  C   UNL     1     -10.688  -1.380  16.274  0.00  0.00    +0.000 A 
ATOM     19  C   UNL     1     -11.366  -2.026  15.215  0.00  0.00    +0.000 A 
ATOM     20  C   UNL     1     -12.107  -1.514  14.122  0.00  0.00    +0.000 A 
ATOM     21  C   UNL     1      -9.420  -0.659  16.164  0.00  0.00    +0.000 C 
ATOM     22  O   UNL     1      -8.597  -0.571  15.261  0.00  0.00    +0.000 OA
ATOM     23  N   UNL     1      -9.104  -0.328  17.463  0.00  0.00    +0.000 N 
ATOM     24  C   UNL     1      -9.814  -1.018  18.408  0.00  0.00    +0.000 C 
ATOM     25  O   UNL     1      -9.720  -0.838  19.610  0.00  0.00    +0.000 OA
ATOM     26  H   UNL     1     -14.582  -0.117  12.491  0.00  0.00    +0.000 HD
ATOM     27  H   UNL     1     -13.138  -1.790  10.952  0.00  0.00    +0.000 HD
ATOM     28  H   UNL     1     -11.957  -4.206  11.996  0.00  0.00    +0.000 HD
ATOM     29  H   UNL     1     -11.361  -5.293  14.119  0.00  0.00    +0.000 HD
ATOM     30  H   UNL     1     -10.552  -6.062  16.087  0.00  0.00    +0.000 HD
ATOM     31  H   UNL     1      -7.145  -6.734  19.634  0.00  0.00    +0.000 HD
ATOM     32  H   UNL     1      -7.288  -4.573  20.789  0.00  0.00    +0.000 HD
ATOM     33  H   UNL     1      -8.901  -2.882  20.113  0.00  0.00    +0.000 HD
ATOM     34  H   UNL     1      -8.173  -0.034  17.715  0.00  0.00    +0.000 HD
ENDROOT
BRANCH   1  35
ATOM     35  C   UNL     1     -13.621   0.350  14.976  0.00  0.00    +0.000 C 
ATOM     36  H   UNL     1     -13.672   1.370  14.599  0.00  0.00    +0.000 HD
ATOM     37  H   UNL     1     -13.039   0.271  15.895  0.00  0.00    +0.000 HD
ATOM     38  H   UNL     1     -14.641  -0.004  15.181  0.00  0.00    +0.000 HD
ENDBRANCH   1  35
BRANCH  11  39
ATOM     39  C   UNL     1      -8.643  -7.654  17.533  0.00  0.00    +0.000 C 
ATOM     40  H   UNL     1      -7.640  -7.754  17.097  0.00  0.00    +0.000 HD
ATOM     41  H   UNL     1      -9.336  -7.655  16.690  0.00  0.00    +0.000 HD
BRANCH  39  42
ATOM     42  C   UNL     1      -8.955  -8.828  18.470  0.00  0.00    +0.000 C 
ATOM     43  H   UNL     1      -9.743  -8.547  19.182  0.00  0.00    +0.000 HD
ATOM     44  H   UNL     1      -8.053  -9.022  19.067  0.00  0.00    +0.000 HD
BRANCH  42  45
ATOM     45  N   UNL     1      -9.322 -10.067  17.753  0.00  0.00    +0.000 NA
ATOM     46  C   UNL     1      -8.482 -11.203  18.162  0.00  0.00    +0.000 C 
ATOM     47  C   UNL     1      -8.855 -12.485  17.417  0.00  0.00    +0.000 C 
ATOM     48  C   UNL     1      -8.823 -12.295  15.908  0.00  0.00    +0.000 C 
ATOM     49  C   UNL     1      -9.630 -11.067  15.499  0.00  0.00    +0.000 C 
ATOM     50  C   UNL     1      -9.234  -9.830  16.302  0.00  0.00    +0.000 C 
ATOM     51  H   UNL     1      -8.616 -11.417  19.227  0.00  0.00    +0.000 HD
ATOM     52  H   UNL     1      -7.419 -10.975  18.014  0.00  0.00    +0.000 HD
ATOM     53  H   UNL     1      -9.861 -12.795  17.723  0.00  0.00    +0.000 HD
ATOM     54  H   UNL     1      -8.161 -13.279  17.713  0.00  0.00    +0.000 HD
ATOM     55  H   UNL     1      -9.248 -13.181  15.425  0.00  0.00    +0.000 HD
ATOM     56  H   UNL     1     -10.698 -11.268  15.655  0.00  0.00    +0.000 HD
ATOM     57  H   UNL     1      -9.485 -10.859  14.433  0.00  0.00    +0.000 HD
ATOM     58  H   UNL     1      -9.914  -9.017  16.021  0.00  0.00    +0.000 HD
ATOM     59  H   UNL     1      -8.221  -9.511  16.022  0.00  0.00    +0.000 HD
BRANCH  48  60
ATOM     60  O   UNL     1      -7.479 -12.194  15.443  0.00  0.00    +0.000 OA
ATOM     61  H   UNL     1      -7.323 -12.883  14.775  0.00  0.00    +0.000 HD
ENDBRANCH  48  60
ENDBRANCH  42  45
ENDBRANCH  39  42
ENDBRANCH  11  39
TORSDOF 5
ENDMDL
MODEL 4
REMARK VINA RESULT:    -9.442      2.014      2.684
REMARK INTER + INTRA:         -12.039
REMARK INTER:                 -11.617
REMARK INTRA:                  -0.422
REMARK UNBOUND:                -0.389
REMARK  Name = 
REMARK  5 active torsions:
REMARK  status: ('A' for Active; 'I' for Inactive)
REMARK    1  A    between atoms: C_1  and  N_2
REMARK    2  A    between atoms: C_12  and  C_13
REMARK    3  A    between atoms: C_13  and  C_14
REMARK    4  A    between atoms: C_14  and  N_15
REMARK    5  A    between atoms: C_18  and  O_19
REMARK                            x       y       z     vdW  Elec       q    Type
REMARK                         _______ _______ _______ _____ _____    ______ ____
ROOT
ATOM      1  N   UNL     1     -13.280   1.525  17.370  0.00  0.00    +0.000 N 
ATOM      2  C   UNL     1     -14.204   1.922  16.426  0.00  0.00    +0.000 A 
ATOM      3  C   UNL     1     -13.879   1.329  15.237  0.00  0.00    +0.000 A 
ATOM      4  C   UNL     1     -13.120   0.201  15.619  0.00  0.00    +0.000 A 
ATOM      5  C   UNL     1     -12.990  -1.040  14.973  0.00  0.00    +0.000 A 
ATOM      6  C   UNL     1     -12.466  -2.078  15.760  0.00  0.00    +0.000 A 
ATOM      7  C   UNL     1     -11.815  -1.817  16.993  0.00  0.00    +0.000 A 
ATOM      8  C   UNL     1     -11.218  -2.861  17.735  0.00  0.00    +0.000 A 
ATOM      9  N   UNL     1     -11.055  -4.178  17.453  0.00  0.00    +0.000 N 
ATOM     10  C   UNL     1      -9.966  -4.667  18.150  0.00  0.00    +0.000 A 
ATOM     11  C   UNL     1      -9.210  -5.823  17.895  0.00  0.00    +0.000 A 
ATOM     12  C   UNL     1      -8.068  -6.008  18.688  0.00  0.00    +0.000 A 
ATOM     13  C   UNL     1      -7.741  -5.124  19.711  0.00  0.00    +0.000 A 
ATOM     14  C   UNL     1      -8.538  -4.008  19.973  0.00  0.00    +0.000 A 
ATOM     15  C   UNL     1      -9.655  -3.742  19.157  0.00  0.00    +0.000 A 
ATOM     16  C   UNL     1     -10.554  -2.687  18.921  0.00  0.00    +0.000 A 
ATOM     17  C   UNL     1     -10.269  -1.348  19.373  0.00  0.00    +0.000 A 
ATOM     18  C   UNL     1     -10.624  -0.359  18.412  0.00  0.00    +0.000 A 
ATOM     19  C   UNL     1     -11.660  -0.500  17.460  0.00  0.00    +0.000 A 
ATOM     20  C   UNL     1     -12.548   0.445  16.890  0.00  0.00    +0.000 A 
ATOM     21  C   UNL     1      -9.315   0.246  18.167  0.00  0.00    +0.000 C 
ATOM     22  O   UNL     1      -8.751   0.603  17.140  0.00  0.00    +0.000 OA
ATOM     23  N   UNL     1      -8.620   0.035  19.336  0.00  0.00    +0.000 N 
ATOM     24  C   UNL     1      -9.179  -0.902  20.162  0.00  0.00    +0.000 C 
ATOM     25  O   UNL     1      -8.746  -1.198  21.263  0.00  0.00    +0.000 OA
ATOM     26  H   UNL     1     -15.052   2.548  16.676  0.00  0.00    +0.000 HD
ATOM     27  H   UNL     1     -14.394   1.472  14.296  0.00  0.00    +0.000 HD
ATOM     28  H   UNL     1     -13.458  -1.245  14.044  0.00  0.00    +0.000 HD
ATOM     29  H   UNL     1     -12.551  -3.099  15.380  0.00  0.00    +0.000 HD
ATOM     30  H   UNL     1     -11.421  -4.617  16.620  0.00  0.00    +0.000 HD
ATOM     31  H   UNL     1      -7.405  -6.850  18.497  0.00  0.00    +0.000 HD
ATOM     32  H   UNL     1      -6.838  -5.283  20.298  0.00  0.00    +0.000 HD
ATOM     33  H   UNL     1      -8.224  -3.339  20.766  0.00  0.00    +0.000 HD
ATOM     34  H   UNL     1      -7.616   0.137  19.373  0.00  0.00    +0.000 HD
ENDROOT
BRANCH   1  35
ATOM     35  C   UNL     1     -13.414   1.962  18.747  0.00  0.00    +0.000 C 
ATOM     36  H   UNL     1     -13.629   1.092  19.366  0.00  0.00    +0.000 HD
ATOM     37  H   UNL     1     -14.186   2.728  18.816  0.00  0.00    +0.000 HD
ATOM     38  H   UNL     1     -12.460   2.402  19.070  0.00  0.00    +0.000 HD
ENDBRANCH   1  35
BRANCH  11  39
ATOM     39  C   UNL     1      -9.539  -6.784  16.779  0.00  0.00    +0.000 C 
ATOM     40  H   UNL     1      -8.632  -6.989  16.194  0.00  0.00    +0.000 HD
ATOM     41  H   UNL     1     -10.234  -6.298  16.093  0.00  0.00    +0.000 HD
BRANCH  39  42
ATOM     42  C   UNL     1     -10.152  -8.085  17.315  0.00  0.00    +0.000 C 
ATOM     43  H   UNL     1     -11.028  -8.366  16.713  0.00  0.00    +0.000 HD
ATOM     44  H   UNL     1     -10.525  -7.881  18.328  0.00  0.00    +0.000 HD
BRANCH  42  45
ATOM     45  N   UNL     1      -9.188  -9.202  17.381  0.00  0.00    +0.000 NA
ATOM     46  C   UNL     1      -9.577 -10.311  16.496  0.00  0.00    +0.000 C 
ATOM     47  C   UNL     1      -8.585 -11.472  16.569  0.00  0.00    +0.000 C 
ATOM     48  C   UNL     1      -8.380 -11.956  17.997  0.00  0.00    +0.000 C 
ATOM     49  C   UNL     1      -8.058 -10.790  18.924  0.00  0.00    +0.000 C 
ATOM     50  C   UNL     1      -9.064  -9.651  18.779  0.00  0.00    +0.000 C 
ATOM     51  H   UNL     1      -9.589  -9.984  15.453  0.00  0.00    +0.000 HD
ATOM     52  H   UNL     1     -10.589 -10.663  16.733  0.00  0.00    +0.000 HD
ATOM     53  H   UNL     1      -7.623 -11.146  16.154  0.00  0.00    +0.000 HD
ATOM     54  H   UNL     1      -8.955 -12.291  15.941  0.00  0.00    +0.000 HD
ATOM     55  H   UNL     1      -7.551 -12.673  18.019  0.00  0.00    +0.000 HD
ATOM     56  H   UNL     1      -7.053 -10.411  18.693  0.00  0.00    +0.000 HD
ATOM     57  H   UNL     1      -8.051 -11.127  19.967  0.00  0.00    +0.000 HD
ATOM     58  H   UNL     1      -8.718  -8.817  19.402  0.00  0.00    +0.000 HD
ATOM     59  H   UNL     1     -10.040  -9.962  19.175  0.00  0.00    +0.000 HD
BRANCH  48  60
ATOM     60  O   UNL     1      -9.529 -12.665  18.457  0.00  0.00    +0.000 OA
ATOM     61  H   UNL     1      -9.913 -12.189  19.212  0.00  0.00    +0.000 HD
ENDBRANCH  48  60
ENDBRANCH  42  45
ENDBRANCH  39  42
ENDBRANCH  11  39
TORSDOF 5
ENDMDL
MODEL 5
REMARK VINA RESULT:    -9.400      1.950      2.782
REMARK INTER + INTRA:         -11.987
REMARK INTER:                 -11.407
REMARK INTRA:                  -0.581
REMARK UNBOUND:                -0.389
REMARK  Name = 
REMARK  5 active torsions:
REMARK  status: ('A' for Active; 'I' for Inactive)
REMARK    1  A    between atoms: C_1  and  N_2
REMARK    2  A    between atoms: C_12  and  C_13
REMARK    3  A    between atoms: C_13  and  C_14
REMARK    4  A    between atoms: C_14  and  N_15
REMARK    5  A    between atoms: C_18  and  O_19
REMARK                            x       y       z     vdW  Elec       q    Type
REMARK                         _______ _______ _______ _____ _____    ______ ____
ROOT
ATOM      1  N   UNL     1     -12.472   0.527  15.113  0.00  0.00    +0.000 N 
ATOM      2  C   UNL     1     -13.035   0.503  13.854  0.00  0.00    +0.000 A 
ATOM      3  C   UNL     1     -12.267  -0.304  13.059  0.00  0.00    +0.000 A 
ATOM      4  C   UNL     1     -11.603  -1.147  13.977  0.00  0.00    +0.000 A 
ATOM      5  C   UNL     1     -11.157  -2.469  13.804  0.00  0.00    +0.000 A 
ATOM      6  C   UNL     1     -10.861  -3.165  14.986  0.00  0.00    +0.000 A 
ATOM      7  C   UNL     1     -10.707  -2.491  16.225  0.00  0.00    +0.000 A 
ATOM      8  C   UNL     1     -10.327  -3.192  17.392  0.00  0.00    +0.000 A 
ATOM      9  N   UNL     1      -9.971  -4.487  17.580  0.00  0.00    +0.000 N 
ATOM     10  C   UNL     1      -9.160  -4.585  18.695  0.00  0.00    +0.000 A 
ATOM     11  C   UNL     1      -8.273  -5.616  19.046  0.00  0.00    +0.000 A 
ATOM     12  C   UNL     1      -7.470  -5.392  20.175  0.00  0.00    +0.000 A 
ATOM     13  C   UNL     1      -7.594  -4.235  20.937  0.00  0.00    +0.000 A 
ATOM     14  C   UNL     1      -8.518  -3.247  20.591  0.00  0.00    +0.000 A 
ATOM     15  C   UNL     1      -9.296  -3.396  19.426  0.00  0.00    +0.000 A 
ATOM     16  C   UNL     1     -10.136  -2.610  18.618  0.00  0.00    +0.000 A 
ATOM     17  C   UNL     1     -10.135  -1.171  18.717  0.00  0.00    +0.000 A 
ATOM     18  C   UNL     1     -10.209  -0.536  17.444  0.00  0.00    +0.000 A 
ATOM     19  C   UNL     1     -10.831  -1.093  16.303  0.00  0.00    +0.000 A 
ATOM     20  C   UNL     1     -11.535  -0.494  15.230  0.00  0.00    +0.000 A 
ATOM     21  C   UNL     1      -8.949   0.208  17.454  0.00  0.00    +0.000 C 
ATOM     22  O   UNL     1      -8.091   0.388  16.598  0.00  0.00    +0.000 OA
ATOM     23  N   UNL     1      -8.693   0.425  18.789  0.00  0.00    +0.000 N 
ATOM     24  C   UNL     1      -9.430  -0.356  19.637  0.00  0.00    +0.000 C 
ATOM     25  O   UNL     1      -9.388  -0.284  20.854  0.00  0.00    +0.000 OA
ATOM     26  H   UNL     1     -13.963   1.013  13.627  0.00  0.00    +0.000 HD
ATOM     27  H   UNL     1     -12.429  -0.497  12.007  0.00  0.00    +0.000 HD
ATOM     28  H   UNL     1     -11.252  -2.981  12.880  0.00  0.00    +0.000 HD
ATOM     29  H   UNL     1     -10.726  -4.247  14.921  0.00  0.00    +0.000 HD
ATOM     30  H   UNL     1      -9.986  -5.180  16.845  0.00  0.00    +0.000 HD
ATOM     31  H   UNL     1      -6.718  -6.125  20.460  0.00  0.00    +0.000 HD
ATOM     32  H   UNL     1      -6.945  -4.078  21.796  0.00  0.00    +0.000 HD
ATOM     33  H   UNL     1      -8.557  -2.354  21.207  0.00  0.00    +0.000 HD
ATOM     34  H   UNL     1      -7.778   0.707  19.107  0.00  0.00    +0.000 HD
ENDROOT
BRANCH   1  35
ATOM     35  C   UNL     1     -13.114   1.266  16.183  0.00  0.00    +0.000 C 
ATOM     36  H   UNL     1     -13.006   2.330  15.981  0.00  0.00    +0.000 HD
ATOM     37  H   UNL     1     -12.684   0.974  17.141  0.00  0.00    +0.000 HD
ATOM     38  H   UNL     1     -14.184   1.012  16.192  0.00  0.00    +0.000 HD
ENDBRANCH   1  35
BRANCH  11  39
ATOM     39  C   UNL     1      -8.112  -6.870  18.222  0.00  0.00    +0.000 C 
ATOM     40  H   UNL     1      -7.045  -7.052  18.036  0.00  0.00    +0.000 HD
ATOM     41  H   UNL     1      -8.563  -6.705  17.243  0.00  0.00    +0.000 HD
BRANCH  39  42
ATOM     42  C   UNL     1      -8.764  -8.082  18.903  0.00  0.00    +0.000 C 
ATOM     43  H   UNL     1      -9.372  -7.755  19.758  0.00  0.00    +0.000 HD
ATOM     44  H   UNL     1      -7.957  -8.702  19.315  0.00  0.00    +0.000 HD
BRANCH  42  45
ATOM     45  N   UNL     1      -9.570  -8.908  17.980  0.00  0.00    +0.000 NA
ATOM     46  C   UNL     1      -8.758  -9.944  17.325  0.00  0.00    +0.000 C 
ATOM     47  C   UNL     1      -9.587 -10.796  16.364  0.00  0.00    +0.000 C 
ATOM     48  C   UNL     1     -10.321  -9.944  15.338  0.00  0.00    +0.000 C 
ATOM     49  C   UNL     1     -11.095  -8.822  16.020  0.00  0.00    +0.000 C 
ATOM     50  C   UNL     1     -10.221  -8.032  16.990  0.00  0.00    +0.000 C 
ATOM     51  H   UNL     1      -8.344 -10.634  18.066  0.00  0.00    +0.000 HD
ATOM     52  H   UNL     1      -7.907  -9.496  16.795  0.00  0.00    +0.000 HD
ATOM     53  H   UNL     1     -10.317 -11.377  16.942  0.00  0.00    +0.000 HD
ATOM     54  H   UNL     1      -8.923 -11.507  15.860  0.00  0.00    +0.000 HD
ATOM     55  H   UNL     1     -11.020 -10.576  14.779  0.00  0.00    +0.000 HD
ATOM     56  H   UNL     1     -11.944  -9.250  16.570  0.00  0.00    +0.000 HD
ATOM     57  H   UNL     1     -11.502  -8.134  15.269  0.00  0.00    +0.000 HD
ATOM     58  H   UNL     1     -10.863  -7.308  17.507  0.00  0.00    +0.000 HD
ATOM     59  H   UNL     1      -9.472  -7.453  16.433  0.00  0.00    +0.000 HD
BRANCH  48  60
ATOM     60  O   UNL     1      -9.408  -9.418  14.378  0.00  0.00    +0.000 OA
ATOM     61  H   UNL     1      -8.964 -10.155  13.926  0.00  0.00    +0.000 HD
ENDBRANCH  48  60
ENDBRANCH  42  45
ENDBRANCH  39  42
ENDBRANCH  11  39
TORSDOF 5
ENDMDL
MODEL 6
REMARK VINA RESULT:    -9.387      1.235      1.681
REMARK INTER + INTRA:         -11.972
REMARK INTER:                 -11.619
REMARK INTRA:                  -0.353
REMARK UNBOUND:                -0.389
REMARK  Name = 
REMARK  5 active torsions:
REMARK  status: ('A' for Active; 'I' for Inactive)
REMARK    1  A    between atoms: C_1  and  N_2
REMARK    2  A    between atoms: C_12  and  C_13
REMARK    3  A    between atoms: C_13  and  C_14
REMARK    4  A    between atoms: C_14  and  N_15
REMARK    5  A    between atoms: C_18  and  O_19
REMARK                            x       y       z     vdW  Elec       q    Type
REMARK                         _______ _______ _______ _____ _____    ______ ____
ROOT
ATOM      1  N   UNL     1     -13.345  -0.100  12.562  0.00  0.00    +0.000 N 
ATOM      2  C   UNL     1     -13.808  -0.234  11.270  0.00  0.00    +0.000 A 
ATOM      3  C   UNL     1     -13.001  -1.126  10.617  0.00  0.00    +0.000 A 
ATOM      4  C   UNL     1     -12.429  -1.888  11.660  0.00  0.00    +0.000 A 
ATOM      5  C   UNL     1     -12.002  -3.227  11.648  0.00  0.00    +0.000 A 
ATOM      6  C   UNL     1     -11.816  -3.812  12.910  0.00  0.00    +0.000 A 
ATOM      7  C   UNL     1     -11.743  -3.025  14.088  0.00  0.00    +0.000 A 
ATOM      8  C   UNL     1     -11.471  -3.618  15.342  0.00  0.00    +0.000 A 
ATOM      9  N   UNL     1     -11.161  -4.896  15.678  0.00  0.00    +0.000 N 
ATOM     10  C   UNL     1     -10.442  -4.899  16.859  0.00  0.00    +0.000 A 
ATOM     11  C   UNL     1      -9.609  -5.906  17.374  0.00  0.00    +0.000 A 
ATOM     12  C   UNL     1      -8.892  -5.589  18.537  0.00  0.00    +0.000 A 
ATOM     13  C   UNL     1      -9.048  -4.362  19.176  0.00  0.00    +0.000 A 
ATOM     14  C   UNL     1      -9.919  -3.398  18.667  0.00  0.00    +0.000 A 
ATOM     15  C   UNL     1     -10.607  -3.644  17.462  0.00  0.00    +0.000 A 
ATOM     16  C   UNL     1     -11.363  -2.926  16.520  0.00  0.00    +0.000 A 
ATOM     17  C   UNL     1     -11.336  -1.484  16.483  0.00  0.00    +0.000 A 
ATOM     18  C   UNL     1     -11.295  -0.972  15.155  0.00  0.00    +0.000 A 
ATOM     19  C   UNL     1     -11.839  -1.625  14.025  0.00  0.00    +0.000 A 
ATOM     20  C   UNL     1     -12.443  -1.120  12.848  0.00  0.00    +0.000 A 
ATOM     21  C   UNL     1     -10.023  -0.250  15.195  0.00  0.00    +0.000 C 
ATOM     22  O   UNL     1      -9.097  -0.166  14.398  0.00  0.00    +0.000 OA
ATOM     23  N   UNL     1      -9.867   0.088  16.521  0.00  0.00    +0.000 N 
ATOM     24  C   UNL     1     -10.685  -0.597  17.376  0.00  0.00    +0.000 C 
ATOM     25  O   UNL     1     -10.737  -0.410  18.580  0.00  0.00    +0.000 OA
ATOM     26  H   UNL     1     -14.704   0.266  10.923  0.00  0.00    +0.000 HD
ATOM     27  H   UNL     1     -13.085  -1.414   9.578  0.00  0.00    +0.000 HD
ATOM     28  H   UNL     1     -12.037  -3.823  10.771  0.00  0.00    +0.000 HD
ATOM     29  H   UNL     1     -11.701  -4.898  12.957  0.00  0.00    +0.000 HD
ATOM     30  H   UNL     1     -11.135  -5.654  15.012  0.00  0.00    +0.000 HD
ATOM     31  H   UNL     1      -8.181  -6.303  18.949  0.00  0.00    +0.000 HD
ATOM     32  H   UNL     1      -8.464  -4.136  20.065  0.00  0.00    +0.000 HD
ATOM     33  H   UNL     1      -9.984  -2.450  19.190  0.00  0.00    +0.000 HD
ATOM     34  H   UNL     1      -8.973   0.385  16.882  0.00  0.00    +0.000 HD
ENDROOT
BRANCH   1  35
ATOM     35  C   UNL     1     -14.051   0.748  13.503  0.00  0.00    +0.000 C 
ATOM     36  H   UNL     1     -13.886   0.362  14.507  0.00  0.00    +0.000 HD
ATOM     37  H   UNL     1     -15.107   0.791  13.237  0.00  0.00    +0.000 HD
ATOM     38  H   UNL     1     -13.637   1.764  13.440  0.00  0.00    +0.000 HD
ENDBRANCH   1  35
BRANCH  11  39
ATOM     39  C   UNL     1      -9.414  -7.236  16.687  0.00  0.00    +0.000 C 
ATOM     40  H   UNL     1      -8.614  -7.148  15.939  0.00  0.00    +0.000 HD
ATOM     41  H   UNL     1     -10.320  -7.477  16.128  0.00  0.00    +0.000 HD
BRANCH  39  42
ATOM     42  C   UNL     1      -9.105  -8.353  17.692  0.00  0.00    +0.000 C 
ATOM     43  H   UNL     1      -9.612  -8.155  18.647  0.00  0.00    +0.000 HD
ATOM     44  H   UNL     1      -8.027  -8.320  17.901  0.00  0.00    +0.000 HD
BRANCH  42  45
ATOM     45  N   UNL     1      -9.448  -9.701  17.193  0.00  0.00    +0.000 NA
ATOM     46  C   UNL     1      -8.663 -10.748  17.866  0.00  0.00    +0.000 C 
ATOM     47  C   UNL     1      -9.011 -12.142  17.346  0.00  0.00    +0.000 C 
ATOM     48  C   UNL     1      -8.871 -12.238  15.834  0.00  0.00    +0.000 C 
ATOM     49  C   UNL     1      -9.620 -11.102  15.147  0.00  0.00    +0.000 C 
ATOM     50  C   UNL     1      -9.254  -9.740  15.734  0.00  0.00    +0.000 C 
ATOM     51  H   UNL     1      -8.876 -10.759  18.939  0.00  0.00    +0.000 HD
ATOM     52  H   UNL     1      -7.588 -10.560  17.755  0.00  0.00    +0.000 HD
ATOM     53  H   UNL     1     -10.043 -12.382  17.631  0.00  0.00    +0.000 HD
ATOM     54  H   UNL     1      -8.357 -12.873  17.834  0.00  0.00    +0.000 HD
ATOM     55  H   UNL     1      -9.279 -13.196  15.494  0.00  0.00    +0.000 HD
ATOM     56  H   UNL     1     -10.701 -11.261  15.260  0.00  0.00    +0.000 HD
ATOM     57  H   UNL     1      -9.397 -11.097  14.074  0.00  0.00    +0.000 HD
ATOM     58  H   UNL     1      -9.896  -8.988  15.258  0.00  0.00    +0.000 HD
ATOM     59  H   UNL     1      -8.218  -9.487  15.473  0.00  0.00    +0.000 HD
BRANCH  48  60
ATOM     60  O   UNL     1      -7.496 -12.237  15.457  0.00  0.00    +0.000 OA
ATOM     61  H   UNL     1      -7.119 -13.116  15.632  0.00  0.00    +0.000 HD
ENDBRANCH  48  60
ENDBRANCH  42  45
ENDBRANCH  39  42
ENDBRANCH  11  39
TORSDOF 5
ENDMDL
MODEL 7
REMARK VINA RESULT:    -9.235      4.228      7.738
REMARK INTER + INTRA:         -11.784
REMARK INTER:                 -11.128
REMARK INTRA:                  -0.656
REMARK UNBOUND:                -0.389
REMARK  Name = 
REMARK  5 active torsions:
REMARK  status: ('A' for Active; 'I' for Inactive)
REMARK    1  A    between atoms: C_1  and  N_2
REMARK    2  A    between atoms: C_12  and  C_13
REMARK    3  A    between atoms: C_13  and  C_14
REMARK    4  A    between atoms: C_14  and  N_15
REMARK    5  A    between atoms: C_18  and  O_19
REMARK                            x       y       z     vdW  Elec       q    Type
REMARK                         _______ _______ _______ _____ _____    ______ ____
ROOT
ATOM      1  N   UNL     1      -9.657   1.090  24.066  0.00  0.00    +0.000 N 
ATOM      2  C   UNL     1      -8.872   0.520  25.046  0.00  0.00    +0.000 A 
ATOM      3  C   UNL     1      -9.019  -0.839  24.974  0.00  0.00    +0.000 A 
ATOM      4  C   UNL     1      -9.445  -1.061  23.646  0.00  0.00    +0.000 A 
ATOM      5  C   UNL     1      -9.231  -2.179  22.822  0.00  0.00    +0.000 A 
ATOM      6  C   UNL     1      -9.456  -1.971  21.452  0.00  0.00    +0.000 A 
ATOM      7  C   UNL     1     -10.158  -0.831  20.981  0.00  0.00    +0.000 A 
ATOM      8  C   UNL     1     -10.452  -0.675  19.607  0.00  0.00    +0.000 A 
ATOM      9  N   UNL     1     -10.251  -1.501  18.551  0.00  0.00    +0.000 N 
ATOM     10  C   UNL     1     -11.169  -1.212  17.559  0.00  0.00    +0.000 A 
ATOM     11  C   UNL     1     -11.582  -2.019  16.485  0.00  0.00    +0.000 A 
ATOM     12  C   UNL     1     -12.634  -1.523  15.701  0.00  0.00    +0.000 A 
ATOM     13  C   UNL     1     -13.192  -0.271  15.940  0.00  0.00    +0.000 A 
ATOM     14  C   UNL     1     -12.729   0.529  16.985  0.00  0.00    +0.000 A 
ATOM     15  C   UNL     1     -11.723   0.044  17.844  0.00  0.00    +0.000 A 
ATOM     16  C   UNL     1     -11.143   0.384  19.079  0.00  0.00    +0.000 A 
ATOM     17  C   UNL     1     -11.783   1.318  19.972  0.00  0.00    +0.000 A 
ATOM     18  C   UNL     1     -11.705   0.911  21.335  0.00  0.00    +0.000 A 
ATOM     19  C   UNL     1     -10.666   0.123  21.880  0.00  0.00    +0.000 A 
ATOM     20  C   UNL     1     -10.066   0.115  23.162  0.00  0.00    +0.000 A 
ATOM     21  C   UNL     1     -13.129   0.786  21.648  0.00  0.00    +0.000 C 
ATOM     22  O   UNL     1     -13.765  -0.057  22.270  0.00  0.00    +0.000 OA
ATOM     23  N   UNL     1     -13.745   1.664  20.785  0.00  0.00    +0.000 N 
ATOM     24  C   UNL     1     -12.956   2.081  19.749  0.00  0.00    +0.000 C 
ATOM     25  O   UNL     1     -13.296   2.895  18.906  0.00  0.00    +0.000 OA
ATOM     26  H   UNL     1      -8.226   1.110  25.685  0.00  0.00    +0.000 HD
ATOM     27  H   UNL     1      -8.559  -1.562  25.633  0.00  0.00    +0.000 HD
ATOM     28  H   UNL     1      -8.721  -3.044  23.164  0.00  0.00    +0.000 HD
ATOM     29  H   UNL     1      -9.096  -2.730  20.754  0.00  0.00    +0.000 HD
ATOM     30  H   UNL     1      -9.776  -2.390  18.623  0.00  0.00    +0.000 HD
ATOM     31  H   UNL     1     -13.042  -2.129  14.894  0.00  0.00    +0.000 HD
ATOM     32  H   UNL     1     -14.020   0.080  15.327  0.00  0.00    +0.000 HD
ATOM     33  H   UNL     1     -13.216   1.486  17.142  0.00  0.00    +0.000 HD
ATOM     34  H   UNL     1     -14.738   1.617  20.614  0.00  0.00    +0.000 HD
ENDROOT
BRANCH   1  35
ATOM     35  C   UNL     1      -9.651   2.527  23.875  0.00  0.00    +0.000 C 
ATOM     36  H   UNL     1      -9.811   2.736  22.818  0.00  0.00    +0.000 HD
ATOM     37  H   UNL     1      -8.716   2.944  24.249  0.00  0.00    +0.000 HD
ATOM     38  H   UNL     1     -10.479   2.962  24.453  0.00  0.00    +0.000 HD
ENDBRANCH   1  35
BRANCH  11  39
ATOM     39  C   UNL     1     -11.000  -3.386  16.220  0.00  0.00    +0.000 C 
ATOM     40  H   UNL     1      -9.943  -3.399  16.520  0.00  0.00    +0.000 HD
ATOM     41  H   UNL     1     -11.008  -3.566  15.144  0.00  0.00    +0.000 HD
BRANCH  39  42
ATOM     42  C   UNL     1     -11.788  -4.487  16.943  0.00  0.00    +0.000 C 
ATOM     43  H   UNL     1     -12.616  -4.837  16.312  0.00  0.00    +0.000 HD
ATOM     44  H   UNL     1     -12.247  -4.034  17.833  0.00  0.00    +0.000 HD
BRANCH  42  45
ATOM     45  N   UNL     1     -10.947  -5.623  17.372  0.00  0.00    +0.000 NA
ATOM     46  C   UNL     1      -9.862  -5.192  18.266  0.00  0.00    +0.000 C 
ATOM     47  C   UNL     1      -8.985  -6.365  18.705  0.00  0.00    +0.000 C 
ATOM     48  C   UNL     1      -8.440  -7.144  17.517  0.00  0.00    +0.000 C 
ATOM     49  C   UNL     1      -9.560  -7.517  16.553  0.00  0.00    +0.000 C 
ATOM     50  C   UNL     1     -10.419  -6.310  16.180  0.00  0.00    +0.000 C 
ATOM     51  H   UNL     1     -10.269  -4.755  19.182  0.00  0.00    +0.000 HD
ATOM     52  H   UNL     1      -9.247  -4.419  17.788  0.00  0.00    +0.000 HD
ATOM     53  H   UNL     1      -9.579  -7.036  19.337  0.00  0.00    +0.000 HD
ATOM     54  H   UNL     1      -8.161  -5.980  19.316  0.00  0.00    +0.000 HD
ATOM     55  H   UNL     1      -7.956  -8.058  17.877  0.00  0.00    +0.000 HD
ATOM     56  H   UNL     1     -10.199  -8.280  17.018  0.00  0.00    +0.000 HD
ATOM     57  H   UNL     1      -9.142  -7.950  15.637  0.00  0.00    +0.000 HD
ATOM     58  H   UNL     1     -11.252  -6.669  15.564  0.00  0.00    +0.000 HD
ATOM     59  H   UNL     1      -9.838  -5.616  15.558  0.00  0.00    +0.000 HD
BRANCH  48  60
ATOM     60  O   UNL     1      -7.427  -6.395  16.849  0.00  0.00    +0.000 OA
ATOM     61  H   UNL     1      -7.635  -6.356  15.900  0.00  0.00    +0.000 HD
ENDBRANCH  48  60
ENDBRANCH  42  45
ENDBRANCH  39  42
ENDBRANCH  11  39
TORSDOF 5
ENDMDL
MODEL 8
REMARK VINA RESULT:    -9.038      3.331      8.171
REMARK INTER + INTRA:         -11.541
REMARK INTER:                 -11.004
REMARK INTRA:                  -0.537
REMARK UNBOUND:                -0.389
REMARK  Name = 
REMARK  5 active torsions:
REMARK  status: ('A' for Active; 'I' for Inactive)
REMARK    1  A    between atoms: C_1  and  N_2
REMARK    2  A    between atoms: C_12  and  C_13
REMARK    3  A    between atoms: C_13  and  C_14
REMARK    4  A    between atoms: C_14  and  N_15
REMARK    5  A    between atoms: C_18  and  O_19
REMARK                            x       y       z     vdW  Elec       q    Type
REMARK                         _______ _______ _______ _____ _____    ______ ____
ROOT
ATOM      1  N   UNL     1     -10.209  -9.307  16.603  0.00  0.00    +0.000 N 
ATOM      2  C   UNL     1      -9.657 -10.363  17.296  0.00  0.00    +0.000 A 
ATOM      3  C   UNL     1      -8.636  -9.880  18.069  0.00  0.00    +0.000 A 
ATOM      4  C   UNL     1      -8.953  -8.512  18.228  0.00  0.00    +0.000 A 
ATOM      5  C   UNL     1      -8.655  -7.653  19.299  0.00  0.00    +0.000 A 
ATOM      6  C   UNL     1      -9.399  -6.463  19.342  0.00  0.00    +0.000 A 
ATOM      7  C   UNL     1     -10.146  -6.015  18.222  0.00  0.00    +0.000 A 
ATOM      8  C   UNL     1     -10.822  -4.774  18.248  0.00  0.00    +0.000 A 
ATOM      9  N   UNL     1     -10.849  -3.791  19.183  0.00  0.00    +0.000 N 
ATOM     10  C   UNL     1     -11.142  -2.585  18.574  0.00  0.00    +0.000 A 
ATOM     11  C   UNL     1     -10.909  -1.284  19.050  0.00  0.00    +0.000 A 
ATOM     12  C   UNL     1     -11.186  -0.235  18.160  0.00  0.00    +0.000 A 
ATOM     13  C   UNL     1     -11.720  -0.474  16.898  0.00  0.00    +0.000 A 
ATOM     14  C   UNL     1     -11.985  -1.776  16.469  0.00  0.00    +0.000 A 
ATOM     15  C   UNL     1     -11.657  -2.865  17.300  0.00  0.00    +0.000 A 
ATOM     16  C   UNL     1     -11.544  -4.263  17.202  0.00  0.00    +0.000 A 
ATOM     17  C   UNL     1     -11.477  -4.918  15.919  0.00  0.00    +0.000 A 
ATOM     18  C   UNL     1     -10.525  -5.977  15.896  0.00  0.00    +0.000 A 
ATOM     19  C   UNL     1     -10.151  -6.746  17.022  0.00  0.00    +0.000 A 
ATOM     20  C   UNL     1      -9.769  -8.104  17.147  0.00  0.00    +0.000 A 
ATOM     21  C   UNL     1      -9.619  -5.487  14.856  0.00  0.00    +0.000 C 
ATOM     22  O   UNL     1      -8.398  -5.462  14.771  0.00  0.00    +0.000 OA
ATOM     23  N   UNL     1     -10.414  -4.691  14.062  0.00  0.00    +0.000 N 
ATOM     24  C   UNL     1     -11.607  -4.341  14.632  0.00  0.00    +0.000 C 
ATOM     25  O   UNL     1     -12.472  -3.684  14.076  0.00  0.00    +0.000 OA
ATOM     26  H   UNL     1     -10.059 -11.367  17.235  0.00  0.00    +0.000 HD
ATOM     27  H   UNL     1      -7.985 -10.469  18.701  0.00  0.00    +0.000 HD
ATOM     28  H   UNL     1      -8.086  -7.969  20.136  0.00  0.00    +0.000 HD
ATOM     29  H   UNL     1      -9.366  -5.873  20.261  0.00  0.00    +0.000 HD
ATOM     30  H   UNL     1     -10.383  -3.861  20.076  0.00  0.00    +0.000 HD
ATOM     31  H   UNL     1     -10.966   0.791  18.447  0.00  0.00    +0.000 HD
ATOM     32  H   UNL     1     -11.906   0.357  16.221  0.00  0.00    +0.000 HD
ATOM     33  H   UNL     1     -12.378  -1.906  15.467  0.00  0.00    +0.000 HD
ATOM     34  H   UNL     1     -10.011  -4.038  13.407  0.00  0.00    +0.000 HD
ENDROOT
BRANCH   1  35
ATOM     35  C   UNL     1     -11.356  -9.522  15.743  0.00  0.00    +0.000 C 
ATOM     36  H   UNL     1     -12.222  -9.732  16.367  0.00  0.00    +0.000 HD
ATOM     37  H   UNL     1     -11.141 -10.325  15.038  0.00  0.00    +0.000 HD
ATOM     38  H   UNL     1     -11.543  -8.602  15.171  0.00  0.00    +0.000 HD
ENDBRANCH   1  35
BRANCH  11  39
ATOM     39  C   UNL     1     -10.315  -1.006  20.409  0.00  0.00    +0.000 C 
ATOM     40  H   UNL     1      -9.788  -0.043  20.388  0.00  0.00    +0.000 HD
ATOM     41  H   UNL     1      -9.554  -1.759  20.619  0.00  0.00    +0.000 HD
BRANCH  39  42
ATOM     42  C   UNL     1     -11.386  -1.021  21.509  0.00  0.00    +0.000 C 
ATOM     43  H   UNL     1     -12.145  -1.785  21.289  0.00  0.00    +0.000 HD
ATOM     44  H   UNL     1     -11.903  -0.053  21.479  0.00  0.00    +0.000 HD
BRANCH  42  45
ATOM     45  N   UNL     1     -10.830  -1.219  22.864  0.00  0.00    +0.000 NA
ATOM     46  C   UNL     1      -9.362  -1.305  22.844  0.00  0.00    +0.000 C 
ATOM     47  C   UNL     1      -8.784  -1.517  24.243  0.00  0.00    +0.000 C 
ATOM     48  C   UNL     1      -9.395  -2.728  24.933  0.00  0.00    +0.000 C 
ATOM     49  C   UNL     1     -10.917  -2.672  24.878  0.00  0.00    +0.000 C 
ATOM     50  C   UNL     1     -11.429  -2.425  23.461  0.00  0.00    +0.000 C 
ATOM     51  H   UNL     1      -8.927  -0.373  22.471  0.00  0.00    +0.000 HD
ATOM     52  H   UNL     1      -9.027  -2.105  22.171  0.00  0.00    +0.000 HD
ATOM     53  H   UNL     1      -8.975  -0.621  24.847  0.00  0.00    +0.000 HD
ATOM     54  H   UNL     1      -7.698  -1.635  24.162  0.00  0.00    +0.000 HD
ATOM     55  H   UNL     1      -9.073  -2.746  25.980  0.00  0.00    +0.000 HD
ATOM     56  H   UNL     1     -11.274  -1.866  25.533  0.00  0.00    +0.000 HD
ATOM     57  H   UNL     1     -11.343  -3.612  25.250  0.00  0.00    +0.000 HD
ATOM     58  H   UNL     1     -12.518  -2.306  23.514  0.00  0.00    +0.000 HD
ATOM     59  H   UNL     1     -11.235  -3.306  22.834  0.00  0.00    +0.000 HD
BRANCH  48  60
ATOM     60  O   UNL     1      -8.912  -3.935  24.348  0.00  0.00    +0.000 OA
ATOM     61  H   UNL     1      -9.202  -4.688  24.890  0.00  0.00    +0.000 HD
ENDBRANCH  48  60
ENDBRANCH  42  45
ENDBRANCH  39  42
ENDBRANCH  11  39
TORSDOF 5
ENDMDL
MODEL 9
REMARK VINA RESULT:    -8.643      7.370     12.489
REMARK INTER + INTRA:         -11.053
REMARK INTER:                 -10.639
REMARK INTRA:                  -0.413
REMARK UNBOUND:                -0.389
REMARK  Name = 
REMARK  5 active torsions:
REMARK  status: ('A' for Active; 'I' for Inactive)
REMARK    1  A    between atoms: C_1  and  N_2
REMARK    2  A    between atoms: C_12  and  C_13
REMARK    3  A    between atoms: C_13  and  C_14
REMARK    4  A    between atoms: C_14  and  N_15
REMARK    5  A    between atoms: C_18  and  O_19
REMARK                            x       y       z     vdW  Elec       q    Type
REMARK                         _______ _______ _______ _____ _____    ______ ____
ROOT
ATOM      1  N   UNL     1      -8.742  -3.605  20.502  0.00  0.00    +0.000 N 
ATOM      2  C   UNL     1      -8.910  -3.984  19.187  0.00  0.00    +0.000 A 
ATOM      3  C   UNL     1     -10.021  -3.350  18.700  0.00  0.00    +0.000 A 
ATOM      4  C   UNL     1     -10.162  -2.224  19.541  0.00  0.00    +0.000 A 
ATOM      5  C   UNL     1     -10.706  -0.962  19.248  0.00  0.00    +0.000 A 
ATOM      6  C   UNL     1     -10.387   0.058  20.159  0.00  0.00    +0.000 A 
ATOM      7  C   UNL     1      -9.843  -0.233  21.437  0.00  0.00    +0.000 A 
ATOM      8  C   UNL     1      -9.606   0.796  22.377  0.00  0.00    +0.000 A 
ATOM      9  N   UNL     1      -9.884   2.123  22.339  0.00  0.00    +0.000 N 
ATOM     10  C   UNL     1     -10.008   2.605  23.628  0.00  0.00    +0.000 A 
ATOM     11  C   UNL     1     -10.642   3.778  24.068  0.00  0.00    +0.000 A 
ATOM     12  C   UNL     1     -10.735   3.955  25.457  0.00  0.00    +0.000 A 
ATOM     13  C   UNL     1     -10.172   3.044  26.345  0.00  0.00    +0.000 A 
ATOM     14  C   UNL     1      -9.506   1.909  25.878  0.00  0.00    +0.000 A 
ATOM     15  C   UNL     1      -9.449   1.653  24.494  0.00  0.00    +0.000 A 
ATOM     16  C   UNL     1      -9.105   0.594  23.636  0.00  0.00    +0.000 A 
ATOM     17  C   UNL     1      -8.975  -0.755  24.130  0.00  0.00    +0.000 A 
ATOM     18  C   UNL     1      -9.534  -1.718  23.241  0.00  0.00    +0.000 A 
ATOM     19  C   UNL     1      -9.620  -1.561  21.838  0.00  0.00    +0.000 A 
ATOM     20  C   UNL     1      -9.539  -2.500  20.781  0.00  0.00    +0.000 A 
ATOM     21  C   UNL     1     -10.565  -2.297  24.102  0.00  0.00    +0.000 C 
ATOM     22  O   UNL     1     -11.730  -2.614  23.895  0.00  0.00    +0.000 OA
ATOM     23  N   UNL     1     -10.083  -2.113  25.379  0.00  0.00    +0.000 N 
ATOM     24  C   UNL     1      -9.059  -1.210  25.469  0.00  0.00    +0.000 C 
ATOM     25  O   UNL     1      -8.464  -0.943  26.499  0.00  0.00    +0.000 OA
ATOM     26  H   UNL     1      -8.206  -4.629  18.677  0.00  0.00    +0.000 HD
ATOM     27  H   UNL     1     -10.435  -3.470  17.708  0.00  0.00    +0.000 HD
ATOM     28  H   UNL     1     -11.129  -0.734  18.303  0.00  0.00    +0.000 HD
ATOM     29  H   UNL     1     -10.596   1.089  19.864  0.00  0.00    +0.000 HD
ATOM     30  H   UNL     1     -10.288   2.583  21.535  0.00  0.00    +0.000 HD
ATOM     31  H   UNL     1     -11.271   4.811  25.860  0.00  0.00    +0.000 HD
ATOM     32  H   UNL     1     -10.276   3.196  27.417  0.00  0.00    +0.000 HD
ATOM     33  H   UNL     1      -9.107   1.220  26.614  0.00  0.00    +0.000 HD
ATOM     34  H   UNL     1     -10.687  -2.202  26.182  0.00  0.00    +0.000 HD
ENDROOT
BRANCH   1  35
ATOM     35  C   UNL     1      -7.600  -4.086  21.257  0.00  0.00    +0.000 C 
ATOM     36  H   UNL     1      -6.820  -4.376  20.556  0.00  0.00    +0.000 HD
ATOM     37  H   UNL     1      -7.908  -4.905  21.906  0.00  0.00    +0.000 HD
ATOM     38  H   UNL     1      -7.226  -3.267  21.887  0.00  0.00    +0.000 HD
ENDBRANCH   1  35
BRANCH  11  39
ATOM     39  C   UNL     1     -11.273   4.769  23.121  0.00  0.00    +0.000 C 
ATOM     40  H   UNL     1     -10.676   4.829  22.201  0.00  0.00    +0.000 HD
ATOM     41  H   UNL     1     -11.227   5.762  23.572  0.00  0.00    +0.000 HD
BRANCH  39  42
ATOM     42  C   UNL     1     -12.730   4.403  22.806  0.00  0.00    +0.000 C 
ATOM     43  H   UNL     1     -12.915   3.346  23.041  0.00  0.00    +0.000 HD
ATOM     44  H   UNL     1     -12.869   4.508  21.721  0.00  0.00    +0.000 HD
BRANCH  42  45
ATOM     45  N   UNL     1     -13.712   5.267  23.494  0.00  0.00    +0.000 NA
ATOM     46  C   UNL     1     -14.046   4.754  24.832  0.00  0.00    +0.000 C 
ATOM     47  C   UNL     1     -15.068   5.641  25.543  0.00  0.00    +0.000 C 
ATOM     48  C   UNL     1     -16.322   5.848  24.706  0.00  0.00    +0.000 C 
ATOM     49  C   UNL     1     -15.964   6.300  23.295  0.00  0.00    +0.000 C 
ATOM     50  C   UNL     1     -14.915   5.394  22.653  0.00  0.00    +0.000 C 
ATOM     51  H   UNL     1     -13.157   4.738  25.470  0.00  0.00    +0.000 HD
ATOM     52  H   UNL     1     -14.416   3.723  24.773  0.00  0.00    +0.000 HD
ATOM     53  H   UNL     1     -14.608   6.615  25.754  0.00  0.00    +0.000 HD
ATOM     54  H   UNL     1     -15.325   5.182  26.503  0.00  0.00    +0.000 HD
ATOM     55  H   UNL     1     -16.950   6.610  25.180  0.00  0.00    +0.000 HD
ATOM     56  H   UNL     1     -15.575   7.327  23.332  0.00  0.00    +0.000 HD
ATOM     57  H   UNL     1     -16.859   6.309  22.663  0.00  0.00    +0.000 HD
ATOM     58  H   UNL     1     -14.642   5.832  21.685  0.00  0.00    +0.000 HD
ATOM     59  H   UNL     1     -15.351   4.407  22.446  0.00  0.00    +0.000 HD
BRANCH  48  60
ATOM     60  O   UNL     1     -17.103   4.656  24.671  0.00  0.00    +0.000 OA
ATOM     61  H   UNL     1     -16.933   4.142  25.479  0.00  0.00    +0.000 HD
ENDBRANCH  48  60
ENDBRANCH  42  45
ENDBRANCH  39  42
ENDBRANCH  11  39
TORSDOF 5
ENDMDL
