MODEL 1
REMARK VINA RESULT:   -10.620      0.000      0.000
REMARK INTER + INTRA:         -12.172
REMARK INTER:                 -12.172
REMARK INTRA:                   0.000
REMARK UNBOUND:                 0.000
REMARK  Name = 
REMARK  5 active torsions:
REMARK  status: ('A' for Active; 'I' for Inactive)
REMARK    1  A    between atoms: O_1  and  C_2
REMARK    2  A    between atoms: C_6  and  O_7
REMARK    3  A    between atoms: C_9  and  O_10
REMARK    4  A    between atoms: C_11  and  O_12
REMARK    5  A    between atoms: C_18  and  O_19
REMARK                            x       y       z     vdW  Elec       q    Type
REMARK                         _______ _______ _______ _____ _____    ______ ____
ROOT
ATOM      1  C   UNL     1      -8.764 -14.102  16.447  0.00  0.00    +0.000 A 
ATOM      2  C   UNL     1      -8.869 -13.213  15.382  0.00  0.00    +0.000 A 
ATOM      3  C   UNL     1      -8.935 -11.840  15.589  0.00  0.00    +0.000 A 
ATOM      4  N   UNL     1      -9.035 -11.062  14.505  0.00  0.00    +0.000 NA
ATOM      5  C   UNL     1      -9.099  -9.740  14.710  0.00  0.00    +0.000 A 
ATOM      6  C   UNL     1      -9.074  -9.079  15.938  0.00  0.00    +0.000 A 
ATOM      7  C   UNL     1      -9.145  -7.673  16.088  0.00  0.00    +0.000 A 
ATOM      8  C   UNL     1      -9.113  -7.085  17.346  0.00  0.00    +0.000 A 
ATOM      9  C   UNL     1      -9.010  -7.862  18.481  0.00  0.00    +0.000 A 
ATOM     10  C   UNL     1      -8.938  -9.251  18.348  0.00  0.00    +0.000 A 
ATOM     11  C   UNL     1      -8.967  -9.900  17.083  0.00  0.00    +0.000 A 
ATOM     12  C   UNL     1      -8.896 -11.326  16.910  0.00  0.00    +0.000 A 
ATOM     13  C   UNL     1      -8.790 -12.252  17.980  0.00  0.00    +0.000 A 
ATOM     14  C   UNL     1      -8.723 -13.622  17.746  0.00  0.00    +0.000 A 
ATOM     15  H   UNL     1      -8.900 -13.583  14.361  0.00  0.00    +0.000 HD
ATOM     16  H   UNL     1      -8.984  -7.397  19.462  0.00  0.00    +0.000 HD
ATOM     17  H   UNL     1      -8.858  -9.821  19.270  0.00  0.00    +0.000 HD
ATOM     18  H   UNL     1      -8.757 -11.904  19.006  0.00  0.00    +0.000 HD
ENDROOT
BRANCH   1  19
ATOM     19  O   UNL     1      -8.698 -15.449  16.227  0.00  0.00    +0.000 OA
ATOM     20  H   UNL     1      -8.442 -15.617  15.306  0.00  0.00    +0.000 HD
ENDBRANCH   1  19
BRANCH   5  21
ATOM     21  O   UNL     1      -9.199  -9.039  13.543  0.00  0.00    +0.000 OA
ATOM     22  H   UNL     1     -10.154  -9.153  13.371  0.00  0.00    +0.000 HD
ENDBRANCH   5  21
BRANCH   7  23
ATOM     23  O   UNL     1      -9.249  -6.808  15.023  0.00  0.00    +0.000 OA
ATOM     24  H   UNL     1      -9.779  -6.040  15.325  0.00  0.00    +0.000 HD
ENDBRANCH   7  23
BRANCH   8  25
ATOM     25  O   UNL     1      -9.182  -5.728  17.473  0.00  0.00    +0.000 OA
ATOM     26  H   UNL     1      -8.912  -5.556  18.398  0.00  0.00    +0.000 HD
ENDBRANCH   8  25
BRANCH  14  27
ATOM     27  O   UNL     1      -8.621 -14.501  18.786  0.00  0.00    +0.000 OA
ATOM     28  H   UNL     1      -8.808 -14.045  19.620  0.00  0.00    +0.000 HD
ENDBRANCH  14  27
TORSDOF 5
ENDMDL
MODEL 2
REMARK VINA RESULT:   -10.280      0.930      1.173
REMARK INTER + INTRA:         -11.782
REMARK INTER:                 -11.782
REMARK INTRA:                   0.000
REMARK UNBOUND:                 0.000
REMARK  Name = 
REMARK  5 active torsions:
REMARK  status: ('A' for Active; 'I' for Inactive)
REMARK    1  A    between atoms: O_1  and  C_2
REMARK    2  A    between atoms: C_6  and  O_7
REMARK    3  A    between atoms: C_9  and  O_10
REMARK    4  A    between atoms: C_11  and  O_12
REMARK    5  A    between atoms: C_18  and  O_19
REMARK                            x       y       z     vdW  Elec       q    Type
REMARK                         _______ _______ _______ _____ _____    ______ ____
ROOT
ATOM      1  C   UNL     1      -8.725 -13.841  16.203  0.00  0.00    +0.000 A 
ATOM      2  C   UNL     1      -8.856 -12.691  15.430  0.00  0.00    +0.000 A 
ATOM      3  C   UNL     1      -8.921 -11.431  16.015  0.00  0.00    +0.000 A 
ATOM      4  N   UNL     1      -9.046 -10.382  15.194  0.00  0.00    +0.000 NA
ATOM      5  C   UNL     1      -9.108  -9.170  15.761  0.00  0.00    +0.000 A 
ATOM      6  C   UNL     1      -9.058  -8.878  17.124  0.00  0.00    +0.000 A 
ATOM      7  C   UNL     1      -9.129  -7.571  17.661  0.00  0.00    +0.000 A 
ATOM      8  C   UNL     1      -9.071  -7.357  19.033  0.00  0.00    +0.000 A 
ATOM      9  C   UNL     1      -8.942  -8.419  19.903  0.00  0.00    +0.000 A 
ATOM     10  C   UNL     1      -8.870  -9.715  19.387  0.00  0.00    +0.000 A 
ATOM     11  C   UNL     1      -8.925  -9.986  17.991  0.00  0.00    +0.000 A 
ATOM     12  C   UNL     1      -8.854 -11.306  17.426  0.00  0.00    +0.000 A 
ATOM     13  C   UNL     1      -8.722 -12.493  18.192  0.00  0.00    +0.000 A 
ATOM     14  C   UNL     1      -8.658 -13.743  17.583  0.00  0.00    +0.000 A 
ATOM     15  H   UNL     1      -8.908 -12.761  14.348  0.00  0.00    +0.000 HD
ATOM     16  H   UNL     1      -8.896  -8.247  20.974  0.00  0.00    +0.000 HD
ATOM     17  H   UNL     1      -8.768 -10.520  20.111  0.00  0.00    +0.000 HD
ATOM     18  H   UNL     1      -8.668 -12.445  19.273  0.00  0.00    +0.000 HD
ENDROOT
BRANCH   1  19
ATOM     19  O   UNL     1      -8.662 -15.073  15.614  0.00  0.00    +0.000 OA
ATOM     20  H   UNL     1      -7.739 -15.373  15.588  0.00  0.00    +0.000 HD
ENDBRANCH   1  19
BRANCH   5  21
ATOM     21  O   UNL     1      -9.235  -8.172  14.838  0.00  0.00    +0.000 OA
ATOM     22  H   UNL     1      -8.627  -8.513  14.152  0.00  0.00    +0.000 HD
ENDBRANCH   5  21
BRANCH   7  23
ATOM     23  O   UNL     1      -9.258  -6.444  16.883  0.00  0.00    +0.000 OA
ATOM     24  H   UNL     1      -9.621  -6.730  16.018  0.00  0.00    +0.000 HD
ENDBRANCH   7  23
BRANCH   8  25
ATOM     25  O   UNL     1      -9.141  -6.090  19.535  0.00  0.00    +0.000 OA
ATOM     26  H   UNL     1      -9.670  -5.596  18.877  0.00  0.00    +0.000 HD
ENDBRANCH   8  25
BRANCH  14  27
ATOM     27  O   UNL     1      -8.532 -14.876  18.334  0.00  0.00    +0.000 OA
ATOM     28  H   UNL     1      -9.409 -15.225  18.551  0.00  0.00    +0.000 HD
ENDBRANCH  14  27
TORSDOF 5
ENDMDL
MODEL 3
REMARK VINA RESULT:    -9.733      1.614      6.310
REMARK INTER + INTRA:         -11.155
REMARK INTER:                 -11.155
REMARK INTRA:                   0.000
REMARK UNBOUND:                 0.000
REMARK  Name = 
REMARK  5 active torsions:
REMARK  status: ('A' for Active; 'I' for Inactive)
REMARK    1  A    between atoms: O_1  and  C_2
REMARK    2  A    between atoms: C_6  and  O_7
REMARK    3  A    between atoms: C_9  and  O_10
REMARK    4  A    between atoms: C_11  and  O_12
REMARK    5  A    between atoms: C_18  and  O_19
REMARK                            x       y       z     vdW  Elec       q    Type
REMARK                         _______ _______ _______ _____ _____    ______ ____
ROOT
ATOM      1  C   UNL     1      -9.328  -6.227  17.006  0.00  0.00    +0.000 A 
ATOM      2  C   UNL     1      -9.129  -7.094  18.076  0.00  0.00    +0.000 A 
ATOM      3  C   UNL     1      -8.991  -8.464  17.881  0.00  0.00    +0.000 A 
ATOM      4  N   UNL     1      -8.803  -9.220  18.969  0.00  0.00    +0.000 NA
ATOM      5  C   UNL     1      -8.671 -10.539  18.777  0.00  0.00    +0.000 A 
ATOM      6  C   UNL     1      -8.709 -11.218  17.558  0.00  0.00    +0.000 A 
ATOM      7  C   UNL     1      -8.562 -12.619  17.422  0.00  0.00    +0.000 A 
ATOM      8  C   UNL     1      -8.610 -13.225  16.173  0.00  0.00    +0.000 A 
ATOM      9  C   UNL     1      -8.802 -12.470  15.035  0.00  0.00    +0.000 A 
ATOM     10  C   UNL     1      -8.948 -11.086  15.154  0.00  0.00    +0.000 A 
ATOM     11  C   UNL     1      -8.907 -10.419  16.410  0.00  0.00    +0.000 A 
ATOM     12  C   UNL     1      -9.054  -8.997  16.569  0.00  0.00    +0.000 A 
ATOM     13  C   UNL     1      -9.258  -8.094  15.494  0.00  0.00    +0.000 A 
ATOM     14  C   UNL     1      -9.392  -6.726  15.715  0.00  0.00    +0.000 A 
ATOM     15  H   UNL     1      -9.077  -6.709  19.091  0.00  0.00    +0.000 HD
ATOM     16  H   UNL     1      -8.838 -12.949  14.060  0.00  0.00    +0.000 HD
ATOM     17  H   UNL     1      -9.097 -10.534  14.229  0.00  0.00    +0.000 HD
ATOM     18  H   UNL     1      -9.313  -8.458  14.475  0.00  0.00    +0.000 HD
ENDROOT
BRANCH   1  19
ATOM     19  O   UNL     1      -9.461  -4.883  17.213  0.00  0.00    +0.000 OA
ATOM     20  H   UNL     1      -9.184  -4.403  16.416  0.00  0.00    +0.000 HD
ENDBRANCH   1  19
BRANCH   5  21
ATOM     21  O   UNL     1      -8.484 -11.217  19.947  0.00  0.00    +0.000 OA
ATOM     22  H   UNL     1      -9.228 -11.848  19.885  0.00  0.00    +0.000 HD
ENDBRANCH   5  21
BRANCH   7  23
ATOM     23  O   UNL     1      -8.366 -13.461  18.491  0.00  0.00    +0.000 OA
ATOM     24  H   UNL     1      -8.199 -12.899  19.277  0.00  0.00    +0.000 HD
ENDBRANCH   7  23
BRANCH   8  25
ATOM     25  O   UNL     1      -8.466 -14.577  16.058  0.00  0.00    +0.000 OA
ATOM     26  H   UNL     1      -8.268 -14.721  15.110  0.00  0.00    +0.000 HD
ENDBRANCH   8  25
BRANCH  14  27
ATOM     27  O   UNL     1      -9.589  -5.870  14.671  0.00  0.00    +0.000 OA
ATOM     28  H   UNL     1     -10.538  -5.775  14.499  0.00  0.00    +0.000 HD
ENDBRANCH  14  27
TORSDOF 5
ENDMDL
MODEL 4
REMARK VINA RESULT:    -9.575      1.687      2.929
REMARK INTER + INTRA:         -10.975
REMARK INTER:                 -10.975
REMARK INTRA:                   0.000
REMARK UNBOUND:                 0.000
REMARK  Name = 
REMARK  5 active torsions:
REMARK  status: ('A' for Active; 'I' for Inactive)
REMARK    1  A    between atoms: O_1  and  C_2
REMARK    2  A    between atoms: C_6  and  O_7
REMARK    3  A    between atoms: C_9  and  O_10
REMARK    4  A    between atoms: C_11  and  O_12
REMARK    5  A    between atoms: C_18  and  O_19
REMARK                            x       y       z     vdW  Elec       q    Type
REMARK                         _______ _______ _______ _____ _____    ______ ____
ROOT
ATOM      1  C   UNL     1      -8.863 -14.325  16.622  0.00  0.00    +0.000 A 
ATOM      2  C   UNL     1      -8.852 -13.507  17.748  0.00  0.00    +0.000 A 
ATOM      3  C   UNL     1      -8.859 -12.122  17.635  0.00  0.00    +0.000 A 
ATOM      4  N   UNL     1      -8.847 -11.415  18.771  0.00  0.00    +0.000 NA
ATOM      5  C   UNL     1      -8.855 -10.081  18.658  0.00  0.00    +0.000 A 
ATOM      6  C   UNL     1      -8.873  -9.339  17.477  0.00  0.00    +0.000 A 
ATOM      7  C   UNL     1      -8.881  -7.925  17.424  0.00  0.00    +0.000 A 
ATOM      8  C   UNL     1      -8.900  -7.254  16.208  0.00  0.00    +0.000 A 
ATOM      9  C   UNL     1      -8.914  -7.956  15.021  0.00  0.00    +0.000 A 
ATOM     10  C   UNL     1      -8.907  -9.352  15.057  0.00  0.00    +0.000 A 
ATOM     11  C   UNL     1      -8.887 -10.085  16.277  0.00  0.00    +0.000 A 
ATOM     12  C   UNL     1      -8.879 -11.521  16.350  0.00  0.00    +0.000 A 
ATOM     13  C   UNL     1      -8.890 -12.375  15.218  0.00  0.00    +0.000 A 
ATOM     14  C   UNL     1      -8.882 -13.760  15.357  0.00  0.00    +0.000 A 
ATOM     15  H   UNL     1      -8.837 -13.944  18.742  0.00  0.00    +0.000 HD
ATOM     16  H   UNL     1      -8.930  -7.427  14.072  0.00  0.00    +0.000 HD
ATOM     17  H   UNL     1      -8.918  -9.861  14.096  0.00  0.00    +0.000 HD
ATOM     18  H   UNL     1      -8.904 -11.960  14.217  0.00  0.00    +0.000 HD
ENDROOT
BRANCH   1  19
ATOM     19  O   UNL     1      -8.856 -15.686  16.748  0.00  0.00    +0.000 OA
ATOM     20  H   UNL     1      -8.377 -16.079  16.001  0.00  0.00    +0.000 HD
ENDBRANCH   1  19
BRANCH   5  21
ATOM     21  O   UNL     1      -8.842  -9.458  19.873  0.00  0.00    +0.000 OA
ATOM     22  H   UNL     1      -8.299 -10.098  20.373  0.00  0.00    +0.000 HD
ENDBRANCH   5  21
BRANCH   7  23
ATOM     23  O   UNL     1      -8.869  -7.131  18.547  0.00  0.00    +0.000 OA
ATOM     24  H   UNL     1      -8.026  -6.631  18.540  0.00  0.00    +0.000 HD
ENDBRANCH   7  23
BRANCH   8  25
ATOM     25  O   UNL     1      -8.908  -5.890  16.174  0.00  0.00    +0.000 OA
ATOM     26  H   UNL     1      -9.782  -5.661  15.797  0.00  0.00    +0.000 HD
ENDBRANCH   8  25
BRANCH  14  27
ATOM     27  O   UNL     1      -8.892 -14.569  14.258  0.00  0.00    +0.000 OA
ATOM     28  H   UNL     1      -9.177 -15.461  14.510  0.00  0.00    +0.000 HD
ENDBRANCH  14  27
TORSDOF 5
ENDMDL
MODEL 5
REMARK VINA RESULT:    -9.420      2.190      6.378
REMARK INTER + INTRA:         -10.797
REMARK INTER:                 -10.797
REMARK INTRA:                   0.000
REMARK UNBOUND:                 0.000
REMARK  Name = 
REMARK  5 active torsions:
REMARK  status: ('A' for Active; 'I' for Inactive)
REMARK    1  A    between atoms: O_1  and  C_2
REMARK    2  A    between atoms: C_6  and  O_7
REMARK    3  A    between atoms: C_9  and  O_10
REMARK    4  A    between atoms: C_11  and  O_12
REMARK    5  A    between atoms: C_18  and  O_19
REMARK                            x       y       z     vdW  Elec       q    Type
REMARK                         _______ _______ _______ _____ _____    ______ ____
ROOT
ATOM      1  C   UNL     1     -10.937  -5.941  17.750  0.00  0.00    +0.000 A 
ATOM      2  C   UNL     1     -10.322  -6.777  18.677  0.00  0.00    +0.000 A 
ATOM      3  C   UNL     1      -9.872  -8.043  18.322  0.00  0.00    +0.000 A 
ATOM      4  N   UNL     1      -9.293  -8.777  19.279  0.00  0.00    +0.000 NA
ATOM      5  C   UNL     1      -8.861  -9.997  18.932  0.00  0.00    +0.000 A 
ATOM      6  C   UNL     1      -8.949 -10.592  17.673  0.00  0.00    +0.000 A 
ATOM      7  C   UNL     1      -8.471 -11.889  17.370  0.00  0.00    +0.000 A 
ATOM      8  C   UNL     1      -8.593 -12.415  16.091  0.00  0.00    +0.000 A 
ATOM      9  C   UNL     1      -9.184 -11.682  15.084  0.00  0.00    +0.000 A 
ATOM     10  C   UNL     1      -9.660 -10.399  15.368  0.00  0.00    +0.000 A 
ATOM     11  C   UNL     1      -9.559  -9.816  16.662  0.00  0.00    +0.000 A 
ATOM     12  C   UNL     1     -10.038  -8.501  16.989  0.00  0.00    +0.000 A 
ATOM     13  C   UNL     1     -10.668  -7.631  16.063  0.00  0.00    +0.000 A 
ATOM     14  C   UNL     1     -11.110  -6.367  16.443  0.00  0.00    +0.000 A 
ATOM     15  H   UNL     1     -10.183  -6.448  19.703  0.00  0.00    +0.000 HD
ATOM     16  H   UNL     1      -9.276 -12.097  14.085  0.00  0.00    +0.000 HD
ATOM     17  H   UNL     1     -10.118  -9.860  14.543  0.00  0.00    +0.000 HD
ATOM     18  H   UNL     1     -10.817  -7.939  15.034  0.00  0.00    +0.000 HD
ENDROOT
BRANCH   1  19
ATOM     19  O   UNL     1     -11.374  -4.698  18.113  0.00  0.00    +0.000 OA
ATOM     20  H   UNL     1     -10.699  -4.037  17.887  0.00  0.00    +0.000 HD
ENDBRANCH   1  19
BRANCH   5  21
ATOM     21  O   UNL     1      -8.288 -10.660  19.979  0.00  0.00    +0.000 OA
ATOM     22  H   UNL     1      -8.469 -11.580  19.702  0.00  0.00    +0.000 HD
ENDBRANCH   5  21
BRANCH   7  23
ATOM     23  O   UNL     1      -7.865 -12.703  18.299  0.00  0.00    +0.000 OA
ATOM     24  H   UNL     1      -6.946 -12.379  18.412  0.00  0.00    +0.000 HD
ENDBRANCH   7  23
BRANCH   8  25
ATOM     25  O   UNL     1      -8.126 -13.668  15.815  0.00  0.00    +0.000 OA
ATOM     26  H   UNL     1      -8.395 -14.204  16.588  0.00  0.00    +0.000 HD
ENDBRANCH   8  25
BRANCH  14  27
ATOM     27  O   UNL     1     -11.715  -5.541  15.540  0.00  0.00    +0.000 OA
ATOM     28  H   UNL     1     -12.587  -5.277  15.870  0.00  0.00    +0.000 HD
ENDBRANCH  14  27
TORSDOF 5
ENDMDL
MODEL 6
REMARK VINA RESULT:    -9.392      1.668      5.723
REMARK INTER + INTRA:         -10.765
REMARK INTER:                 -10.765
REMARK INTRA:                   0.000
REMARK UNBOUND:                 0.000
REMARK  Name = 
REMARK  5 active torsions:
REMARK  status: ('A' for Active; 'I' for Inactive)
REMARK    1  A    between atoms: O_1  and  C_2
REMARK    2  A    between atoms: C_6  and  O_7
REMARK    3  A    between atoms: C_9  and  O_10
REMARK    4  A    between atoms: C_11  and  O_12
REMARK    5  A    between atoms: C_18  and  O_19
REMARK                            x       y       z     vdW  Elec       q    Type
REMARK                         _______ _______ _______ _____ _____    ______ ____
ROOT
ATOM      1  C   UNL     1      -9.035  -5.644  18.249  0.00  0.00    +0.000 A 
ATOM      2  C   UNL     1      -9.271  -6.242  17.015  0.00  0.00    +0.000 A 
ATOM      3  C   UNL     1      -9.183  -7.620  16.851  0.00  0.00    +0.000 A 
ATOM      4  N   UNL     1      -9.426  -8.107  15.628  0.00  0.00    +0.000 NA
ATOM      5  C   UNL     1      -9.340  -9.434  15.475  0.00  0.00    +0.000 A 
ATOM      6  C   UNL     1      -9.022 -10.374  16.455  0.00  0.00    +0.000 A 
ATOM      7  C   UNL     1      -8.947 -11.769  16.228  0.00  0.00    +0.000 A 
ATOM      8  C   UNL     1      -8.625 -12.645  17.257  0.00  0.00    +0.000 A 
ATOM      9  C   UNL     1      -8.370 -12.172  18.527  0.00  0.00    +0.000 A 
ATOM     10  C   UNL     1      -8.440 -10.797  18.766  0.00  0.00    +0.000 A 
ATOM     11  C   UNL     1      -8.766  -9.860  17.747  0.00  0.00    +0.000 A 
ATOM     12  C   UNL     1      -8.847  -8.440  17.958  0.00  0.00    +0.000 A 
ATOM     13  C   UNL     1      -8.611  -7.807  19.205  0.00  0.00    +0.000 A 
ATOM     14  C   UNL     1      -8.706  -6.426  19.345  0.00  0.00    +0.000 A 
ATOM     15  H   UNL     1      -9.530  -5.635  16.153  0.00  0.00    +0.000 HD
ATOM     16  H   UNL     1      -8.120 -12.861  19.327  0.00  0.00    +0.000 HD
ATOM     17  H   UNL     1      -8.232 -10.472  19.782  0.00  0.00    +0.000 HD
ATOM     18  H   UNL     1      -8.350  -8.395  20.078  0.00  0.00    +0.000 HD
ENDROOT
BRANCH   1  19
ATOM     19  O   UNL     1      -9.126  -4.288  18.396  0.00  0.00    +0.000 OA
ATOM     20  H   UNL     1      -8.751  -4.028  19.253  0.00  0.00    +0.000 HD
ENDBRANCH   1  19
BRANCH   5  21
ATOM     21  O   UNL     1      -9.605  -9.826  14.194  0.00  0.00    +0.000 OA
ATOM     22  H   UNL     1     -10.427 -10.331  14.350  0.00  0.00    +0.000 HD
ENDBRANCH   5  21
BRANCH   7  23
ATOM     23  O   UNL     1      -9.183 -12.344  15.001  0.00  0.00    +0.000 OA
ATOM     24  H   UNL     1     -10.155 -12.358  14.870  0.00  0.00    +0.000 HD
ENDBRANCH   7  23
BRANCH   8  25
ATOM     25  O   UNL     1      -8.558 -13.988  17.021  0.00  0.00    +0.000 OA
ATOM     26  H   UNL     1      -7.927 -14.321  17.692  0.00  0.00    +0.000 HD
ENDBRANCH   8  25
BRANCH  14  27
ATOM     27  O   UNL     1      -8.475  -5.831  20.551  0.00  0.00    +0.000 OA
ATOM     28  H   UNL     1      -9.247  -5.946  21.126  0.00  0.00    +0.000 HD
ENDBRANCH  14  27
TORSDOF 5
ENDMDL
MODEL 7
REMARK VINA RESULT:    -8.669      2.106      3.579
REMARK INTER + INTRA:          -9.936
REMARK INTER:                  -9.936
REMARK INTRA:                   0.000
REMARK UNBOUND:                 0.000
REMARK  Name = 
REMARK  5 active torsions:
REMARK  status: ('A' for Active; 'I' for Inactive)
REMARK    1  A    between atoms: O_1  and  C_2
REMARK    2  A    between atoms: C_6  and  O_7
REMARK    3  A    between atoms: C_9  and  O_10
REMARK    4  A    between atoms: C_11  and  O_12
REMARK    5  A    between atoms: C_18  and  O_19
REMARK                            x       y       z     vdW  Elec       q    Type
REMARK                         _______ _______ _______ _____ _____    ______ ____
ROOT
ATOM      1  C   UNL     1      -8.613 -12.289  17.462  0.00  0.00    +0.000 A 
ATOM      2  C   UNL     1      -8.558 -11.439  18.562  0.00  0.00    +0.000 A 
ATOM      3  C   UNL     1      -8.797 -10.076  18.435  0.00  0.00    +0.000 A 
ATOM      4  N   UNL     1      -8.723  -9.335  19.548  0.00  0.00    +0.000 NA
ATOM      5  C   UNL     1      -8.955  -8.022  19.421  0.00  0.00    +0.000 A 
ATOM      6  C   UNL     1      -9.267  -7.335  18.248  0.00  0.00    +0.000 A 
ATOM      7  C   UNL     1      -9.501  -5.940  18.180  0.00  0.00    +0.000 A 
ATOM      8  C   UNL     1      -9.808  -5.325  16.973  0.00  0.00    +0.000 A 
ATOM      9  C   UNL     1      -9.893  -6.062  15.811  0.00  0.00    +0.000 A 
ATOM     10  C   UNL     1      -9.664  -7.439  15.863  0.00  0.00    +0.000 A 
ATOM     11  C   UNL     1      -9.346  -8.116  17.073  0.00  0.00    +0.000 A 
ATOM     12  C   UNL     1      -9.105  -9.531  17.162  0.00  0.00    +0.000 A 
ATOM     13  C   UNL     1      -9.154 -10.417  16.056  0.00  0.00    +0.000 A 
ATOM     14  C   UNL     1      -8.911 -11.779  16.208  0.00  0.00    +0.000 A 
ATOM     15  H   UNL     1      -8.325 -11.833  19.547  0.00  0.00    +0.000 HD
ATOM     16  H   UNL     1     -10.134  -5.576  14.871  0.00  0.00    +0.000 HD
ATOM     17  H   UNL     1      -9.742  -7.978  14.922  0.00  0.00    +0.000 HD
ATOM     18  H   UNL     1      -9.384 -10.044  15.064  0.00  0.00    +0.000 HD
ENDROOT
BRANCH   1  19
ATOM     19  O   UNL     1      -8.376 -13.628  17.602  0.00  0.00    +0.000 OA
ATOM     20  H   UNL     1      -8.739 -14.104  16.838  0.00  0.00    +0.000 HD
ENDBRANCH   1  19
BRANCH   5  21
ATOM     21  O   UNL     1      -8.854  -7.361  20.611  0.00  0.00    +0.000 OA
ATOM     22  H   UNL     1      -9.427  -6.595  20.415  0.00  0.00    +0.000 HD
ENDBRANCH   5  21
BRANCH   7  23
ATOM     23  O   UNL     1      -9.443  -5.115  19.278  0.00  0.00    +0.000 OA
ATOM     24  H   UNL     1     -10.083  -4.387  19.128  0.00  0.00    +0.000 HD
ENDBRANCH   7  23
BRANCH   8  25
ATOM     25  O   UNL     1     -10.032  -3.979  16.925  0.00  0.00    +0.000 OA
ATOM     26  H   UNL     1     -10.177  -3.723  17.859  0.00  0.00    +0.000 HD
ENDBRANCH   8  25
BRANCH  14  27
ATOM     27  O   UNL     1      -8.962 -12.619  15.134  0.00  0.00    +0.000 OA
ATOM     28  H   UNL     1      -9.773 -13.148  15.169  0.00  0.00    +0.000 HD
ENDBRANCH  14  27
TORSDOF 5
ENDMDL
MODEL 8
REMARK VINA RESULT:    -8.320      1.818      2.674
REMARK INTER + INTRA:          -9.536
REMARK INTER:                  -9.536
REMARK INTRA:                   0.000
REMARK UNBOUND:                 0.000
REMARK  Name = 
REMARK  5 active torsions:
REMARK  status: ('A' for Active; 'I' for Inactive)
REMARK    1  A    between atoms: O_1  and  C_2
REMARK    2  A    between atoms: C_6  and  O_7
REMARK    3  A    between atoms: C_9  and  O_10
REMARK    4  A    between atoms: C_11  and  O_12
REMARK    5  A    between atoms: C_18  and  O_19
REMARK                            x       y       z     vdW  Elec       q    Type
REMARK                         _______ _______ _______ _____ _____    ______ ____
ROOT
ATOM      1  C   UNL     1      -9.115 -11.916  16.775  0.00  0.00    +0.000 A 
ATOM      2  C   UNL     1      -9.749 -10.849  16.146  0.00  0.00    +0.000 A 
ATOM      3  C   UNL     1      -9.704  -9.566  16.679  0.00  0.00    +0.000 A 
ATOM      4  N   UNL     1     -10.343  -8.601  16.006  0.00  0.00    +0.000 NA
ATOM      5  C   UNL     1     -10.297  -7.367  16.524  0.00  0.00    +0.000 A 
ATOM      6  C   UNL     1      -9.653  -6.971  17.696  0.00  0.00    +0.000 A 
ATOM      7  C   UNL     1      -9.642  -5.645  18.191  0.00  0.00    +0.000 A 
ATOM      8  C   UNL     1      -8.977  -5.326  19.368  0.00  0.00    +0.000 A 
ATOM      9  C   UNL     1      -8.310  -6.299  20.082  0.00  0.00    +0.000 A 
ATOM     10  C   UNL     1      -8.312  -7.613  19.606  0.00  0.00    +0.000 A 
ATOM     11  C   UNL     1      -8.978  -7.989  18.406  0.00  0.00    +0.000 A 
ATOM     12  C   UNL     1      -9.000  -9.330  17.888  0.00  0.00    +0.000 A 
ATOM     13  C   UNL     1      -8.363 -10.434  18.510  0.00  0.00    +0.000 A 
ATOM     14  C   UNL     1      -8.421 -11.710  17.957  0.00  0.00    +0.000 A 
ATOM     15  H   UNL     1     -10.293 -11.004  15.219  0.00  0.00    +0.000 HD
ATOM     16  H   UNL     1      -7.791  -6.044  21.001  0.00  0.00    +0.000 HD
ATOM     17  H   UNL     1      -7.772  -8.344  20.202  0.00  0.00    +0.000 HD
ATOM     18  H   UNL     1      -7.815 -10.301  19.436  0.00  0.00    +0.000 HD
ENDROOT
BRANCH   1  19
ATOM     19  O   UNL     1      -9.167 -13.172  16.238  0.00  0.00    +0.000 OA
ATOM     20  H   UNL     1      -8.588 -13.765  16.744  0.00  0.00    +0.000 HD
ENDBRANCH   1  19
BRANCH   5  21
ATOM     21  O   UNL     1     -10.978  -6.461  15.762  0.00  0.00    +0.000 OA
ATOM     22  H   UNL     1     -11.676  -6.212  16.399  0.00  0.00    +0.000 HD
ENDBRANCH   5  21
BRANCH   7  23
ATOM     23  O   UNL     1     -10.275  -4.602  17.557  0.00  0.00    +0.000 OA
ATOM     24  H   UNL     1      -9.895  -3.772  17.916  0.00  0.00    +0.000 HD
ENDBRANCH   7  23
BRANCH   8  25
ATOM     25  O   UNL     1      -8.975  -4.042  19.831  0.00  0.00    +0.000 OA
ATOM     26  H   UNL     1      -9.559  -3.560  19.211  0.00  0.00    +0.000 HD
ENDBRANCH   8  25
BRANCH  14  27
ATOM     27  O   UNL     1      -7.803 -12.762  18.567  0.00  0.00    +0.000 OA
ATOM     28  H   UNL     1      -8.423 -13.202  19.169  0.00  0.00    +0.000 HD
ENDBRANCH  14  27
TORSDOF 5
ENDMDL
MODEL 9
REMARK VINA RESULT:    -7.859      2.665      6.529
REMARK INTER + INTRA:          -9.008
REMARK INTER:                  -9.008
REMARK INTRA:                   0.000
REMARK UNBOUND:                 0.000
REMARK  Name = 
REMARK  5 active torsions:
REMARK  status: ('A' for Active; 'I' for Inactive)
REMARK    1  A    between atoms: O_1  and  C_2
REMARK    2  A    between atoms: C_6  and  O_7
REMARK    3  A    between atoms: C_9  and  O_10
REMARK    4  A    between atoms: C_11  and  O_12
REMARK    5  A    between atoms: C_18  and  O_19
REMARK                            x       y       z     vdW  Elec       q    Type
REMARK                         _______ _______ _______ _____ _____    ______ ____
ROOT
ATOM      1  C   UNL     1      -8.880  -4.157  19.430  0.00  0.00    +0.000 A 
ATOM      2  C   UNL     1      -9.580  -4.717  18.366  0.00  0.00    +0.000 A 
ATOM      3  C   UNL     1      -9.561  -6.087  18.129  0.00  0.00    +0.000 A 
ATOM      4  N   UNL     1     -10.264  -6.536  17.083  0.00  0.00    +0.000 NA
ATOM      5  C   UNL     1     -10.243  -7.856  16.859  0.00  0.00    +0.000 A 
ATOM      6  C   UNL     1      -9.564  -8.823  17.600  0.00  0.00    +0.000 A 
ATOM      7  C   UNL     1      -9.582 -10.208  17.310  0.00  0.00    +0.000 A 
ATOM      8  C   UNL     1      -8.880 -11.113  18.096  0.00  0.00    +0.000 A 
ATOM      9  C   UNL     1      -8.148 -10.679  19.181  0.00  0.00    +0.000 A 
ATOM     10  C   UNL     1      -8.121  -9.315  19.480  0.00  0.00    +0.000 A 
ATOM     11  C   UNL     1      -8.823  -8.349  18.706  0.00  0.00    +0.000 A 
ATOM     12  C   UNL     1      -8.816  -6.938  18.984  0.00  0.00    +0.000 A 
ATOM     13  C   UNL     1      -8.110  -6.344  20.061  0.00  0.00    +0.000 A 
ATOM     14  C   UNL     1      -8.145  -4.970  20.279  0.00  0.00    +0.000 A 
ATOM     15  H   UNL     1     -10.159  -4.085  17.698  0.00  0.00    +0.000 HD
ATOM     16  H   UNL     1      -7.602 -11.391  19.793  0.00  0.00    +0.000 HD
ATOM     17  H   UNL     1      -7.531  -9.021  20.344  0.00  0.00    +0.000 HD
ATOM     18  H   UNL     1      -7.527  -6.956  20.740  0.00  0.00    +0.000 HD
ENDROOT
BRANCH   1  19
ATOM     19  O   UNL     1      -8.908  -2.809  19.651  0.00  0.00    +0.000 OA
ATOM     20  H   UNL     1      -8.123  -2.546  20.159  0.00  0.00    +0.000 HD
ENDBRANCH   1  19
BRANCH   5  21
ATOM     21  O   UNL     1     -10.990  -8.209  15.771  0.00  0.00    +0.000 OA
ATOM     22  H   UNL     1     -11.203  -9.130  16.017  0.00  0.00    +0.000 HD
ENDBRANCH   5  21
BRANCH   7  23
ATOM     23  O   UNL     1     -10.280 -10.746  16.254  0.00  0.00    +0.000 OA
ATOM     24  H   UNL     1     -10.020 -11.689  16.184  0.00  0.00    +0.000 HD
ENDBRANCH   7  23
BRANCH   8  25
ATOM     25  O   UNL     1      -8.909 -12.446  17.803  0.00  0.00    +0.000 OA
ATOM     26  H   UNL     1      -9.658 -12.542  17.180  0.00  0.00    +0.000 HD
ENDBRANCH   8  25
BRANCH  14  27
ATOM     27  O   UNL     1      -7.460  -4.412  21.319  0.00  0.00    +0.000 OA
ATOM     28  H   UNL     1      -7.101  -5.111  21.887  0.00  0.00    +0.000 HD
ENDBRANCH  14  27
TORSDOF 5
ENDMDL
