REMARK  Name = 
REMARK  6 active torsions:
REMARK  status: ('A' for Active; 'I' for Inactive)
REMARK    1  A    between atoms: O_1  and  C_2
REMARK    2  A    between atoms: C_8  and  O_9
REMARK    3  A    between atoms: C_10  and  O_11
REMARK    4  A    between atoms: N_13  and  C_14
REMARK    5  A    between atoms: C_14  and  C_15
REMARK    6  A    between atoms: C_25  and  O_26
REMARK                            x       y       z     vdW  Elec       q    Type
REMARK                         _______ _______ _______ _____ _____    ______ ____
ROOT
ATOM      1  C   UNL     1      -3.980   0.367  -0.821  0.00  0.00    +0.000 A 
ATOM      2  C   UNL     1      -3.321  -0.865  -0.839  0.00  0.00    +0.000 A 
ATOM      3  C   UNL     1      -1.911  -0.894  -0.782  0.00  0.00    +0.000 A 
ATOM      4  C   UNL     1      -0.955  -1.958  -0.779  0.00  0.00    +0.000 A 
ATOM      5  C   UNL     1      -1.063  -3.364  -0.871  0.00  0.00    +0.000 A 
ATOM      6  C   UNL     1       0.080  -4.167  -0.786  0.00  0.00    +0.000 A 
ATOM      7  C   UNL     1       1.314  -3.575  -0.569  0.00  0.00    +0.000 A 
ATOM      8  C   UNL     1       1.449  -2.188  -0.464  0.00  0.00    +0.000 A 
ATOM      9  C   UNL     1       0.311  -1.386  -0.617  0.00  0.00    +0.000 A 
ATOM     10  N   UNL     1       0.136  -0.012  -0.621  0.00  0.00    +0.000 N 
ATOM     11  C   UNL     1      -1.210   0.310  -0.698  0.00  0.00    +0.000 A 
ATOM     12  C   UNL     1      -1.865   1.556  -0.692  0.00  0.00    +0.000 A 
ATOM     13  C   UNL     1      -3.260   1.556  -0.750  0.00  0.00    +0.000 A 
ATOM     14  H   UNL     1      -3.875  -1.797  -0.887  0.00  0.00    +0.000 HD
ATOM     15  H   UNL     1      -2.039  -3.824  -1.007  0.00  0.00    +0.000 HD
ATOM     16  H   UNL     1      -0.025  -5.244  -0.868  0.00  0.00    +0.000 HD
ATOM     17  H   UNL     1      -1.305   2.480  -0.622  0.00  0.00    +0.000 HD
ENDROOT
BRANCH  10  18
ATOM     18  C   UNL     1       1.221   0.964  -0.697  0.00  0.00    +0.000 C 
ATOM     19  H   UNL     1       0.852   1.723  -1.400  0.00  0.00    +0.000 HD
ATOM     20  H   UNL     1       2.069   0.481  -1.196  0.00  0.00    +0.000 HD
BRANCH  18  21
ATOM     21  C   UNL     1       1.679   1.656   0.574  0.00  0.00    +0.000 A 
ATOM     22  C   UNL     1       1.351   1.305   1.899  0.00  0.00    +0.000 A 
ATOM     23 CL   UNL     1       0.338  -0.013   2.370  0.00  0.00    +0.000 Cl
ATOM     24  C   UNL     1       1.851   2.041   2.988  0.00  0.00    +0.000 A 
ATOM     25  C   UNL     1       2.699   3.120   2.800  0.00  0.00    +0.000 A 
ATOM     26  C   UNL     1       3.064   3.475   1.507  0.00  0.00    +0.000 A 
ATOM     27  C   UNL     1       2.568   2.751   0.416  0.00  0.00    +0.000 A 
ATOM     28 CL   UNL     1       3.107   3.281  -1.147  0.00  0.00    +0.000 Cl
ATOM     29  H   UNL     1       1.577   1.763   4.004  0.00  0.00    +0.000 HD
ATOM     30  H   UNL     1       3.078   3.680   3.650  0.00  0.00    +0.000 HD
ATOM     31  H   UNL     1       3.740   4.312   1.353  0.00  0.00    +0.000 HD
ENDBRANCH  18  21
ENDBRANCH  10  18
BRANCH   1  32
ATOM     32  O   UNL     1      -5.347   0.413  -0.861  0.00  0.00    +0.000 OA
ATOM     33  H   UNL     1      -5.692  -0.492  -0.840  0.00  0.00    +0.000 HD
ENDBRANCH   1  32
BRANCH   7  34
ATOM     34  O   UNL     1       2.454  -4.326  -0.446  0.00  0.00    +0.000 OA
ATOM     35  H   UNL     1       2.236  -5.242  -0.689  0.00  0.00    +0.000 HD
ENDBRANCH   7  34
BRANCH   8  36
ATOM     36  O   UNL     1       2.683  -1.659  -0.175  0.00  0.00    +0.000 OA
ATOM     37  H   UNL     1       3.240  -2.443   0.001  0.00  0.00    +0.000 HD
ENDBRANCH   8  36
BRANCH  13  38
ATOM     38  O   UNL     1      -3.943   2.744  -0.741  0.00  0.00    +0.000 OA
ATOM     39  H   UNL     1      -3.307   3.472  -0.697  0.00  0.00    +0.000 HD
ENDBRANCH  13  38
TORSDOF 6
