MODEL 1
REMARK VINA RESULT:    -8.915      0.000      0.000
REMARK INTER + INTRA:         -10.412
REMARK INTER:                 -10.999
REMARK INTRA:                   0.587
REMARK UNBOUND:                 0.587
REMARK  Name = 
REMARK  6 active torsions:
REMARK  status: ('A' for Active; 'I' for Inactive)
REMARK    1  A    between atoms: S_2  and  C_4
REMARK    2  A    between atoms: S_2  and  N_12
REMARK    3  A    between atoms: C_15  and  O_16
REMARK    4  A    between atoms: C_17  and  O_18
REMARK    5  A    between atoms: C_24  and  O_25
REMARK    6  A    between atoms: C_26  and  O_27
REMARK                            x       y       z     vdW  Elec       q    Type
REMARK                         _______ _______ _______ _____ _____    ______ ____
ROOT
ATOM      1  N   UNL     1      -8.761  -9.437  17.771  0.00  0.00    +0.000 N 
ATOM      2  C   UNL     1      -8.878  -8.625  16.649  0.00  0.00    +0.000 A 
ATOM      3  C   UNL     1      -8.937  -7.224  16.474  0.00  0.00    +0.000 A 
ATOM      4  C   UNL     1      -8.968  -6.721  15.176  0.00  0.00    +0.000 A 
ATOM      5  C   UNL     1      -8.974  -7.570  14.081  0.00  0.00    +0.000 A 
ATOM      6  C   UNL     1      -8.958  -8.948  14.241  0.00  0.00    +0.000 A 
ATOM      7  C   UNL     1      -8.906  -9.488  15.546  0.00  0.00    +0.000 A 
ATOM      8  C   UNL     1      -8.866 -10.831  16.037  0.00  0.00    +0.000 A 
ATOM      9  C   UNL     1      -8.865 -12.087  15.386  0.00  0.00    +0.000 A 
ATOM     10  C   UNL     1      -8.788 -13.270  16.125  0.00  0.00    +0.000 A 
ATOM     11  C   UNL     1      -8.713 -13.198  17.504  0.00  0.00    +0.000 A 
ATOM     12  C   UNL     1      -8.716 -11.970  18.175  0.00  0.00    +0.000 A 
ATOM     13  C   UNL     1      -8.794 -10.781  17.435  0.00  0.00    +0.000 A 
ATOM     14  H   UNL     1      -8.941  -6.538  17.312  0.00  0.00    +0.000 HD
ATOM     15  H   UNL     1      -8.970  -9.594  13.368  0.00  0.00    +0.000 HD
ATOM     16  H   UNL     1      -8.912 -12.132  14.299  0.00  0.00    +0.000 HD
ATOM     17  H   UNL     1      -8.772 -14.220  15.601  0.00  0.00    +0.000 HD
ENDROOT
BRANCH   1  19
ATOM     18  O   UNL     1      -7.505  -9.529  19.936  0.00  0.00    +0.000 OA
ATOM     19  S   UNL     1      -8.653  -8.844  19.368  0.00  0.00    +0.000 S 
ATOM     20  O   UNL     1      -9.962  -8.990  19.976  0.00  0.00    +0.000 OA
BRANCH  19  21
ATOM     21  C   UNL     1      -8.361  -7.106  19.386  0.00  0.00    +0.000 A 
ATOM     22  C   UNL     1      -7.069  -6.723  19.791  0.00  0.00    +0.000 A 
ATOM     23  C   UNL     1      -6.736  -5.376  19.883  0.00  0.00    +0.000 A 
ATOM     24 CL   UNL     1      -5.162  -4.916  20.397  0.00  0.00    +0.000 Cl
ATOM     25  C   UNL     1      -7.677  -4.402  19.572  0.00  0.00    +0.000 A 
ATOM     26  C   UNL     1      -8.967  -4.781  19.191  0.00  0.00    +0.000 A 
ATOM     27  C   UNL     1      -9.326  -6.134  19.116  0.00  0.00    +0.000 A 
ATOM     28 CL   UNL     1     -10.983  -6.448  18.770  0.00  0.00    +0.000 Cl
ATOM     29  H   UNL     1      -6.330  -7.480  20.051  0.00  0.00    +0.000 HD
ATOM     30  H   UNL     1      -7.423  -3.347  19.641  0.00  0.00    +0.000 HD
ATOM     31  H   UNL     1      -9.700  -4.007  18.972  0.00  0.00    +0.000 HD
ENDBRANCH  19  21
ENDBRANCH   1  19
BRANCH   4  32
ATOM     32  O   UNL     1      -8.980  -5.373  14.938  0.00  0.00    +0.000 OA
ATOM     33  H   UNL     1      -8.911  -5.237  13.976  0.00  0.00    +0.000 HD
ENDBRANCH   4  32
BRANCH   5  34
ATOM     34  O   UNL     1      -8.991  -7.047  12.819  0.00  0.00    +0.000 OA
ATOM     35  H   UNL     1      -8.247  -6.411  12.810  0.00  0.00    +0.000 HD
ENDBRANCH   5  34
BRANCH  11  36
ATOM     36  O   UNL     1      -8.612 -14.330  18.272  0.00  0.00    +0.000 OA
ATOM     37  H   UNL     1      -8.447 -15.084  17.681  0.00  0.00    +0.000 HD
ENDBRANCH  11  36
BRANCH  12  38
ATOM     38  O   UNL     1      -8.593 -11.978  19.540  0.00  0.00    +0.000 OA
ATOM     39  H   UNL     1      -7.630 -11.889  19.702  0.00  0.00    +0.000 HD
ENDBRANCH  12  38
TORSDOF 6
ENDMDL
MODEL 2
REMARK VINA RESULT:    -8.671      4.340      6.754
REMARK INTER + INTRA:         -10.111
REMARK INTER:                  -9.915
REMARK INTRA:                  -0.196
REMARK UNBOUND:                 0.587
REMARK  Name = 
REMARK  6 active torsions:
REMARK  status: ('A' for Active; 'I' for Inactive)
REMARK    1  A    between atoms: S_2  and  C_4
REMARK    2  A    between atoms: S_2  and  N_12
REMARK    3  A    between atoms: C_15  and  O_16
REMARK    4  A    between atoms: C_17  and  O_18
REMARK    5  A    between atoms: C_24  and  O_25
REMARK    6  A    between atoms: C_26  and  O_27
REMARK                            x       y       z     vdW  Elec       q    Type
REMARK                         _______ _______ _______ _____ _____    ______ ____
ROOT
ATOM      1  N   UNL     1     -10.110  -4.218  18.793  0.00  0.00    +0.000 N 
ATOM      2  C   UNL     1      -8.968  -4.000  19.554  0.00  0.00    +0.000 A 
ATOM      3  C   UNL     1      -8.551  -2.937  20.388  0.00  0.00    +0.000 A 
ATOM      4  C   UNL     1      -7.357  -3.078  21.090  0.00  0.00    +0.000 A 
ATOM      5  C   UNL     1      -6.578  -4.215  20.954  0.00  0.00    +0.000 A 
ATOM      6  C   UNL     1      -6.956  -5.247  20.107  0.00  0.00    +0.000 A 
ATOM      7  C   UNL     1      -8.172  -5.143  19.396  0.00  0.00    +0.000 A 
ATOM      8  C   UNL     1      -8.835  -6.016  18.478  0.00  0.00    +0.000 A 
ATOM      9  C   UNL     1      -8.502  -7.291  17.961  0.00  0.00    +0.000 A 
ATOM     10  C   UNL     1      -9.366  -7.948  17.081  0.00  0.00    +0.000 A 
ATOM     11  C   UNL     1     -10.552  -7.336  16.720  0.00  0.00    +0.000 A 
ATOM     12  C   UNL     1     -10.905  -6.074  17.212  0.00  0.00    +0.000 A 
ATOM     13  C   UNL     1     -10.040  -5.412  18.095  0.00  0.00    +0.000 A 
ATOM     14  H   UNL     1      -9.137  -2.035  20.506  0.00  0.00    +0.000 HD
ATOM     15  H   UNL     1      -6.326  -6.126  20.012  0.00  0.00    +0.000 HD
ATOM     16  H   UNL     1      -7.572  -7.769  18.262  0.00  0.00    +0.000 HD
ATOM     17  H   UNL     1      -9.095  -8.932  16.712  0.00  0.00    +0.000 HD
ENDROOT
BRANCH   1  19
ATOM     18  O   UNL     1     -12.426  -3.662  19.566  0.00  0.00    +0.000 OA
ATOM     19  S   UNL     1     -11.408  -3.114  18.688  0.00  0.00    +0.000 S 
ATOM     20  O   UNL     1     -11.693  -2.910  17.280  0.00  0.00    +0.000 OA
BRANCH  19  21
ATOM     21  C   UNL     1     -10.938  -1.517  19.267  0.00  0.00    +0.000 A 
ATOM     22  C   UNL     1     -11.549  -1.116  20.469  0.00  0.00    +0.000 A 
ATOM     23  C   UNL     1     -11.286   0.142  21.002  0.00  0.00    +0.000 A 
ATOM     24 CL   UNL     1     -12.050   0.632  22.460  0.00  0.00    +0.000 Cl
ATOM     25  C   UNL     1     -10.415   1.006  20.350  0.00  0.00    +0.000 A 
ATOM     26  C   UNL     1      -9.825   0.617  19.144  0.00  0.00    +0.000 A 
ATOM     27  C   UNL     1     -10.098  -0.637  18.582  0.00  0.00    +0.000 A 
ATOM     28 CL   UNL     1      -9.412  -0.924  17.029  0.00  0.00    +0.000 Cl
ATOM     29  H   UNL     1     -12.244  -1.782  20.979  0.00  0.00    +0.000 HD
ATOM     30  H   UNL     1     -10.204   1.991  20.760  0.00  0.00    +0.000 HD
ATOM     31  H   UNL     1      -9.162   1.314  18.634  0.00  0.00    +0.000 HD
ENDBRANCH  19  21
ENDBRANCH   1  19
BRANCH   4  32
ATOM     32  O   UNL     1      -6.922  -2.104  21.948  0.00  0.00    +0.000 OA
ATOM     33  H   UNL     1      -6.369  -2.529  22.629  0.00  0.00    +0.000 HD
ENDBRANCH   4  32
BRANCH   5  34
ATOM     34  O   UNL     1      -5.418  -4.330  21.667  0.00  0.00    +0.000 OA
ATOM     35  H   UNL     1      -4.712  -4.184  21.006  0.00  0.00    +0.000 HD
ENDBRANCH   5  34
BRANCH  11  36
ATOM     36  O   UNL     1     -11.443  -7.951  15.877  0.00  0.00    +0.000 OA
ATOM     37  H   UNL     1     -10.991  -8.699  15.452  0.00  0.00    +0.000 HD
ENDBRANCH  11  36
BRANCH  12  38
ATOM     38  O   UNL     1     -12.118  -5.553  16.844  0.00  0.00    +0.000 OA
ATOM     39  H   UNL     1     -12.621  -6.319  16.497  0.00  0.00    +0.000 HD
ENDBRANCH  12  38
TORSDOF 6
ENDMDL
MODEL 3
REMARK VINA RESULT:    -8.476      3.295      6.832
REMARK INTER + INTRA:          -9.871
REMARK INTER:                 -10.764
REMARK INTRA:                   0.893
REMARK UNBOUND:                 0.587
REMARK  Name = 
REMARK  6 active torsions:
REMARK  status: ('A' for Active; 'I' for Inactive)
REMARK    1  A    between atoms: S_2  and  C_4
REMARK    2  A    between atoms: S_2  and  N_12
REMARK    3  A    between atoms: C_15  and  O_16
REMARK    4  A    between atoms: C_17  and  O_18
REMARK    5  A    between atoms: C_24  and  O_25
REMARK    6  A    between atoms: C_26  and  O_27
REMARK                            x       y       z     vdW  Elec       q    Type
REMARK                         _______ _______ _______ _____ _____    ______ ____
ROOT
ATOM      1  N   UNL     1      -8.867  -5.898  17.972  0.00  0.00    +0.000 N 
ATOM      2  C   UNL     1      -7.740  -5.634  18.742  0.00  0.00    +0.000 A 
ATOM      3  C   UNL     1      -6.476  -6.258  18.847  0.00  0.00    +0.000 A 
ATOM      4  C   UNL     1      -5.518  -5.674  19.672  0.00  0.00    +0.000 A 
ATOM      5  C   UNL     1      -5.802  -4.528  20.396  0.00  0.00    +0.000 A 
ATOM      6  C   UNL     1      -7.052  -3.930  20.333  0.00  0.00    +0.000 A 
ATOM      7  C   UNL     1      -8.039  -4.488  19.490  0.00  0.00    +0.000 A 
ATOM      8  C   UNL     1      -9.387  -4.112  19.197  0.00  0.00    +0.000 A 
ATOM      9  C   UNL     1     -10.204  -3.049  19.652  0.00  0.00    +0.000 A 
ATOM     10  C   UNL     1     -11.505  -2.897  19.167  0.00  0.00    +0.000 A 
ATOM     11  C   UNL     1     -11.989  -3.799  18.238  0.00  0.00    +0.000 A 
ATOM     12  C   UNL     1     -11.205  -4.862  17.774  0.00  0.00    +0.000 A 
ATOM     13  C   UNL     1      -9.898  -5.018  18.258  0.00  0.00    +0.000 A 
ATOM     14  H   UNL     1      -6.230  -7.158  18.298  0.00  0.00    +0.000 HD
ATOM     15  H   UNL     1      -7.254  -3.036  20.915  0.00  0.00    +0.000 HD
ATOM     16  H   UNL     1      -9.810  -2.337  20.374  0.00  0.00    +0.000 HD
ATOM     17  H   UNL     1     -12.106  -2.064  19.520  0.00  0.00    +0.000 HD
ENDROOT
BRANCH   1  19
ATOM     18  O   UNL     1      -7.816  -7.039  16.007  0.00  0.00    +0.000 OA
ATOM     19  S   UNL     1      -8.980  -7.188  16.861  0.00  0.00    +0.000 S 
ATOM     20  O   UNL     1     -10.313  -7.154  16.289  0.00  0.00    +0.000 OA
BRANCH  19  21
ATOM     21  C   UNL     1      -8.904  -8.747  17.681  0.00  0.00    +0.000 A 
ATOM     22  C   UNL     1      -8.789  -8.678  19.081  0.00  0.00    +0.000 A 
ATOM     23  C   UNL     1      -8.679  -9.844  19.832  0.00  0.00    +0.000 A 
ATOM     24 CL   UNL     1      -8.519  -9.751  21.540  0.00  0.00    +0.000 Cl
ATOM     25  C   UNL     1      -8.685 -11.082  19.201  0.00  0.00    +0.000 A 
ATOM     26  C   UNL     1      -8.777 -11.150  17.808  0.00  0.00    +0.000 A 
ATOM     27  C   UNL     1      -8.864  -9.984  17.036  0.00  0.00    +0.000 A 
ATOM     28 CL   UNL     1      -8.831 -10.216  15.330  0.00  0.00    +0.000 Cl
ATOM     29  H   UNL     1      -8.768  -7.711  19.582  0.00  0.00    +0.000 HD
ATOM     30  H   UNL     1      -8.600 -11.997  19.781  0.00  0.00    +0.000 HD
ATOM     31  H   UNL     1      -8.758 -12.127  17.327  0.00  0.00    +0.000 HD
ENDBRANCH  19  21
ENDBRANCH   1  19
BRANCH   4  32
ATOM     32  O   UNL     1      -4.261  -6.204  19.782  0.00  0.00    +0.000 OA
ATOM     33  H   UNL     1      -4.336  -7.063  20.236  0.00  0.00    +0.000 HD
ENDBRANCH   4  32
BRANCH   5  34
ATOM     34  O   UNL     1      -4.837  -3.971  21.187  0.00  0.00    +0.000 OA
ATOM     35  H   UNL     1      -4.867  -3.017  20.969  0.00  0.00    +0.000 HD
ENDBRANCH   5  34
BRANCH  11  36
ATOM     36  O   UNL     1     -13.251  -3.678  17.716  0.00  0.00    +0.000 OA
ATOM     37  H   UNL     1     -13.517  -2.745  17.780  0.00  0.00    +0.000 HD
ENDBRANCH  11  36
BRANCH  12  38
ATOM     38  O   UNL     1     -11.737  -5.688  16.818  0.00  0.00    +0.000 OA
ATOM     39  H   UNL     1     -11.074  -6.402  16.713  0.00  0.00    +0.000 HD
ENDBRANCH  12  38
TORSDOF 6
ENDMDL
MODEL 4
REMARK VINA RESULT:    -8.374      4.130      6.761
REMARK INTER + INTRA:          -9.745
REMARK INTER:                 -10.254
REMARK INTRA:                   0.509
REMARK UNBOUND:                 0.587
REMARK  Name = 
REMARK  6 active torsions:
REMARK  status: ('A' for Active; 'I' for Inactive)
REMARK    1  A    between atoms: S_2  and  C_4
REMARK    2  A    between atoms: S_2  and  N_12
REMARK    3  A    between atoms: C_15  and  O_16
REMARK    4  A    between atoms: C_17  and  O_18
REMARK    5  A    between atoms: C_24  and  O_25
REMARK    6  A    between atoms: C_26  and  O_27
REMARK                            x       y       z     vdW  Elec       q    Type
REMARK                         _______ _______ _______ _____ _____    ______ ____
ROOT
ATOM      1  N   UNL     1     -10.263  -4.503  17.920  0.00  0.00    +0.000 N 
ATOM      2  C   UNL     1      -9.375  -4.134  18.924  0.00  0.00    +0.000 A 
ATOM      3  C   UNL     1      -9.163  -2.926  19.628  0.00  0.00    +0.000 A 
ATOM      4  C   UNL     1      -8.227  -2.920  20.659  0.00  0.00    +0.000 A 
ATOM      5  C   UNL     1      -7.497  -4.056  20.969  0.00  0.00    +0.000 A 
ATOM      6  C   UNL     1      -7.668  -5.235  20.258  0.00  0.00    +0.000 A 
ATOM      7  C   UNL     1      -8.624  -5.279  19.219  0.00  0.00    +0.000 A 
ATOM      8  C   UNL     1      -9.039  -6.318  18.330  0.00  0.00    +0.000 A 
ATOM      9  C   UNL     1      -8.635  -7.666  18.179  0.00  0.00    +0.000 A 
ATOM     10  C   UNL     1      -9.243  -8.488  17.226  0.00  0.00    +0.000 A 
ATOM     11  C   UNL     1     -10.246  -7.967  16.429  0.00  0.00    +0.000 A 
ATOM     12  C   UNL     1     -10.663  -6.636  16.553  0.00  0.00    +0.000 A 
ATOM     13  C   UNL     1     -10.054  -5.809  17.509  0.00  0.00    +0.000 A 
ATOM     14  H   UNL     1      -9.714  -2.023  19.401  0.00  0.00    +0.000 HD
ATOM     15  H   UNL     1      -7.080  -6.110  20.515  0.00  0.00    +0.000 HD
ATOM     16  H   UNL     1      -7.853  -8.070  18.820  0.00  0.00    +0.000 HD
ATOM     17  H   UNL     1      -8.926  -9.522  17.142  0.00  0.00    +0.000 HD
ENDROOT
BRANCH   1  19
ATOM     18  O   UNL     1     -11.545  -2.371  18.201  0.00  0.00    +0.000 OA
ATOM     19  S   UNL     1     -11.422  -3.451  17.239  0.00  0.00    +0.000 S 
ATOM     20  O   UNL     1     -12.581  -4.249  16.888  0.00  0.00    +0.000 OA
BRANCH  19  21
ATOM     21  C   UNL     1     -10.866  -2.797  15.700  0.00  0.00    +0.000 A 
ATOM     22  C   UNL     1     -11.338  -3.474  14.560  0.00  0.00    +0.000 A 
ATOM     23  C   UNL     1     -10.933  -3.074  13.291  0.00  0.00    +0.000 A 
ATOM     24 CL   UNL     1     -11.498  -3.917  11.905  0.00  0.00    +0.000 Cl
ATOM     25  C   UNL     1     -10.063  -2.001  13.144  0.00  0.00    +0.000 A 
ATOM     26  C   UNL     1      -9.576  -1.341  14.276  0.00  0.00    +0.000 A 
ATOM     27  C   UNL     1      -9.956  -1.748  15.562  0.00  0.00    +0.000 A 
ATOM     28 CL   UNL     1      -9.172  -0.936  16.862  0.00  0.00    +0.000 Cl
ATOM     29  H   UNL     1     -12.009  -4.326  14.668  0.00  0.00    +0.000 HD
ATOM     30  H   UNL     1      -9.743  -1.681  12.155  0.00  0.00    +0.000 HD
ATOM     31  H   UNL     1      -8.878  -0.516  14.145  0.00  0.00    +0.000 HD
ENDBRANCH  19  21
ENDBRANCH   1  19
BRANCH   4  32
ATOM     32  O   UNL     1      -8.007  -1.795  21.408  0.00  0.00    +0.000 OA
ATOM     33  H   UNL     1      -7.763  -2.077  22.308  0.00  0.00    +0.000 HD
ENDBRANCH   4  32
BRANCH   5  34
ATOM     34  O   UNL     1      -6.596  -4.021  21.995  0.00  0.00    +0.000 OA
ATOM     35  H   UNL     1      -5.785  -3.649  21.593  0.00  0.00    +0.000 HD
ENDBRANCH   5  34
BRANCH  11  36
ATOM     36  O   UNL     1     -10.888  -8.739  15.496  0.00  0.00    +0.000 OA
ATOM     37  H   UNL     1     -11.350  -8.147  14.879  0.00  0.00    +0.000 HD
ENDBRANCH  11  36
BRANCH  12  38
ATOM     38  O   UNL     1     -11.694  -6.206  15.760  0.00  0.00    +0.000 OA
ATOM     39  H   UNL     1     -12.274  -5.697  16.364  0.00  0.00    +0.000 HD
ENDBRANCH  12  38
TORSDOF 6
ENDMDL
MODEL 5
REMARK VINA RESULT:    -8.208      4.193      6.759
REMARK INTER + INTRA:          -9.540
REMARK INTER:                  -9.441
REMARK INTRA:                  -0.098
REMARK UNBOUND:                 0.587
REMARK  Name = 
REMARK  6 active torsions:
REMARK  status: ('A' for Active; 'I' for Inactive)
REMARK    1  A    between atoms: S_2  and  C_4
REMARK    2  A    between atoms: S_2  and  N_12
REMARK    3  A    between atoms: C_15  and  O_16
REMARK    4  A    between atoms: C_17  and  O_18
REMARK    5  A    between atoms: C_24  and  O_25
REMARK    6  A    between atoms: C_26  and  O_27
REMARK                            x       y       z     vdW  Elec       q    Type
REMARK                         _______ _______ _______ _____ _____    ______ ____
ROOT
ATOM      1  N   UNL     1     -10.284  -4.806  18.280  0.00  0.00    +0.000 N 
ATOM      2  C   UNL     1     -10.232  -6.100  17.775  0.00  0.00    +0.000 A 
ATOM      3  C   UNL     1     -11.064  -6.826  16.892  0.00  0.00    +0.000 A 
ATOM      4  C   UNL     1     -10.669  -8.106  16.515  0.00  0.00    +0.000 A 
ATOM      5  C   UNL     1      -9.506  -8.671  17.013  0.00  0.00    +0.000 A 
ATOM      6  C   UNL     1      -8.703  -7.984  17.912  0.00  0.00    +0.000 A 
ATOM      7  C   UNL     1      -9.067  -6.675  18.299  0.00  0.00    +0.000 A 
ATOM      8  C   UNL     1      -8.461  -5.721  19.174  0.00  0.00    +0.000 A 
ATOM      9  C   UNL     1      -7.284  -5.755  19.960  0.00  0.00    +0.000 A 
ATOM     10  C   UNL     1      -6.903  -4.644  20.716  0.00  0.00    +0.000 A 
ATOM     11  C   UNL     1      -7.690  -3.508  20.690  0.00  0.00    +0.000 A 
ATOM     12  C   UNL     1      -8.862  -3.448  19.926  0.00  0.00    +0.000 A 
ATOM     13  C   UNL     1      -9.248  -4.561  19.165  0.00  0.00    +0.000 A 
ATOM     14  H   UNL     1     -11.981  -6.411  16.494  0.00  0.00    +0.000 HD
ATOM     15  H   UNL     1      -7.800  -8.450  18.295  0.00  0.00    +0.000 HD
ATOM     16  H   UNL     1      -6.664  -6.650  19.963  0.00  0.00    +0.000 HD
ATOM     17  H   UNL     1      -5.987  -4.691  21.297  0.00  0.00    +0.000 HD
ENDROOT
BRANCH   1  19
ATOM     18  O   UNL     1     -11.948  -3.167  19.185  0.00  0.00    +0.000 OA
ATOM     19  S   UNL     1     -11.514  -3.685  17.900  0.00  0.00    +0.000 S 
ATOM     20  O   UNL     1     -12.460  -4.355  17.027  0.00  0.00    +0.000 OA
BRANCH  19  21
ATOM     21  C   UNL     1     -10.889  -2.359  16.920  0.00  0.00    +0.000 A 
ATOM     22  C   UNL     1     -11.093  -1.075  17.456  0.00  0.00    +0.000 A 
ATOM     23  C   UNL     1     -10.680   0.051  16.751  0.00  0.00    +0.000 A 
ATOM     24 CL   UNL     1     -10.950   1.617  17.403  0.00  0.00    +0.000 Cl
ATOM     25  C   UNL     1     -10.059  -0.089  15.516  0.00  0.00    +0.000 A 
ATOM     26  C   UNL     1      -9.875  -1.364  14.973  0.00  0.00    +0.000 A 
ATOM     27  C   UNL     1     -10.308  -2.507  15.659  0.00  0.00    +0.000 A 
ATOM     28 CL   UNL     1     -10.142  -3.994  14.809  0.00  0.00    +0.000 Cl
ATOM     29  H   UNL     1     -11.593  -0.955  18.417  0.00  0.00    +0.000 HD
ATOM     30  H   UNL     1      -9.732   0.786  14.960  0.00  0.00    +0.000 HD
ATOM     31  H   UNL     1      -9.407  -1.457  13.994  0.00  0.00    +0.000 HD
ENDBRANCH  19  21
ENDBRANCH   1  19
BRANCH   4  32
ATOM     32  O   UNL     1     -11.407  -8.843  15.628  0.00  0.00    +0.000 OA
ATOM     33  H   UNL     1     -11.453  -8.348  14.791  0.00  0.00    +0.000 HD
ENDBRANCH   4  32
BRANCH   5  34
ATOM     34  O   UNL     1      -9.137  -9.924  16.613  0.00  0.00    +0.000 OA
ATOM     35  H   UNL     1      -9.111  -9.869  15.637  0.00  0.00    +0.000 HD
ENDBRANCH   5  34
BRANCH  11  36
ATOM     36  O   UNL     1      -7.346  -2.385  21.398  0.00  0.00    +0.000 OA
ATOM     37  H   UNL     1      -6.448  -2.124  21.133  0.00  0.00    +0.000 HD
ENDBRANCH  11  36
BRANCH  12  38
ATOM     38  O   UNL     1      -9.566  -2.271  19.915  0.00  0.00    +0.000 OA
ATOM     39  H   UNL     1     -10.012  -2.242  20.786  0.00  0.00    +0.000 HD
ENDBRANCH  12  38
TORSDOF 6
ENDMDL
MODEL 6
REMARK VINA RESULT:    -8.141      4.639      7.282
REMARK INTER + INTRA:          -9.458
REMARK INTER:                  -9.353
REMARK INTRA:                  -0.105
REMARK UNBOUND:                 0.587
REMARK  Name = 
REMARK  6 active torsions:
REMARK  status: ('A' for Active; 'I' for Inactive)
REMARK    1  A    between atoms: S_2  and  C_4
REMARK    2  A    between atoms: S_2  and  N_12
REMARK    3  A    between atoms: C_15  and  O_16
REMARK    4  A    between atoms: C_17  and  O_18
REMARK    5  A    between atoms: C_24  and  O_25
REMARK    6  A    between atoms: C_26  and  O_27
REMARK                            x       y       z     vdW  Elec       q    Type
REMARK                         _______ _______ _______ _____ _____    ______ ____
ROOT
ATOM      1  N   UNL     1      -9.928  -3.698  19.078  0.00  0.00    +0.000 N 
ATOM      2  C   UNL     1      -9.909  -4.888  18.358  0.00  0.00    +0.000 A 
ATOM      3  C   UNL     1     -10.782  -5.450  17.400  0.00  0.00    +0.000 A 
ATOM      4  C   UNL     1     -10.415  -6.649  16.795  0.00  0.00    +0.000 A 
ATOM      5  C   UNL     1      -9.239  -7.294  17.143  0.00  0.00    +0.000 A 
ATOM      6  C   UNL     1      -8.394  -6.772  18.112  0.00  0.00    +0.000 A 
ATOM      7  C   UNL     1      -8.730  -5.547  18.730  0.00  0.00    +0.000 A 
ATOM      8  C   UNL     1      -8.081  -4.757  19.729  0.00  0.00    +0.000 A 
ATOM      9  C   UNL     1      -6.875  -4.928  20.450  0.00  0.00    +0.000 A 
ATOM     10  C   UNL     1      -6.452  -3.963  21.367  0.00  0.00    +0.000 A 
ATOM     11  C   UNL     1      -7.229  -2.837  21.566  0.00  0.00    +0.000 A 
ATOM     12  C   UNL     1      -8.429  -2.643  20.871  0.00  0.00    +0.000 A 
ATOM     13  C   UNL     1      -8.855  -3.610  19.949  0.00  0.00    +0.000 A 
ATOM     14  H   UNL     1     -11.710  -4.971  17.115  0.00  0.00    +0.000 HD
ATOM     15  H   UNL     1      -7.482  -7.299  18.374  0.00  0.00    +0.000 HD
ATOM     16  H   UNL     1      -6.264  -5.813  20.276  0.00  0.00    +0.000 HD
ATOM     17  H   UNL     1      -5.515  -4.111  21.895  0.00  0.00    +0.000 HD
ENDROOT
BRANCH   1  19
ATOM     18  O   UNL     1     -11.585  -2.280  20.309  0.00  0.00    +0.000 OA
ATOM     19  S   UNL     1     -11.161  -2.524  18.943  0.00  0.00    +0.000 S 
ATOM     20  O   UNL     1     -12.113  -3.004  17.959  0.00  0.00    +0.000 OA
BRANCH  19  21
ATOM     21  C   UNL     1     -10.543  -1.026  18.249  0.00  0.00    +0.000 A 
ATOM     22  C   UNL     1      -9.568  -1.191  17.248  0.00  0.00    +0.000 A 
ATOM     23  C   UNL     1      -8.978  -0.079  16.657  0.00  0.00    +0.000 A 
ATOM     24 CL   UNL     1      -7.774  -0.288  15.450  0.00  0.00    +0.000 Cl
ATOM     25  C   UNL     1      -9.352   1.200  17.049  0.00  0.00    +0.000 A 
ATOM     26  C   UNL     1     -10.305   1.365  18.059  0.00  0.00    +0.000 A 
ATOM     27  C   UNL     1     -10.891   0.255  18.681  0.00  0.00    +0.000 A 
ATOM     28 CL   UNL     1     -11.941   0.607  19.999  0.00  0.00    +0.000 Cl
ATOM     29  H   UNL     1      -9.258  -2.190  16.945  0.00  0.00    +0.000 HD
ATOM     30  H   UNL     1      -8.896   2.074  16.591  0.00  0.00    +0.000 HD
ATOM     31  H   UNL     1     -10.572   2.373  18.371  0.00  0.00    +0.000 HD
ENDBRANCH  19  21
ENDBRANCH   1  19
BRANCH   4  32
ATOM     32  O   UNL     1     -11.195  -7.222  15.827  0.00  0.00    +0.000 OA
ATOM     33  H   UNL     1     -10.605  -7.638  15.173  0.00  0.00    +0.000 HD
ENDBRANCH   4  32
BRANCH   5  34
ATOM     34  O   UNL     1      -8.899  -8.462  16.522  0.00  0.00    +0.000 OA
ATOM     35  H   UNL     1      -7.923  -8.491  16.578  0.00  0.00    +0.000 HD
ENDBRANCH   5  34
BRANCH  11  36
ATOM     36  O   UNL     1      -6.846  -1.851  22.439  0.00  0.00    +0.000 OA
ATOM     37  H   UNL     1      -6.937  -0.995  21.989  0.00  0.00    +0.000 HD
ENDBRANCH  11  36
BRANCH  12  38
ATOM     38  O   UNL     1      -9.121  -1.480  21.088  0.00  0.00    +0.000 OA
ATOM     39  H   UNL     1      -8.454  -0.771  20.972  0.00  0.00    +0.000 HD
ENDBRANCH  12  38
TORSDOF 6
ENDMDL
MODEL 7
REMARK VINA RESULT:    -8.127      3.665      5.820
REMARK INTER + INTRA:          -9.441
REMARK INTER:                  -9.548
REMARK INTRA:                   0.108
REMARK UNBOUND:                 0.587
REMARK  Name = 
REMARK  6 active torsions:
REMARK  status: ('A' for Active; 'I' for Inactive)
REMARK    1  A    between atoms: S_2  and  C_4
REMARK    2  A    between atoms: S_2  and  N_12
REMARK    3  A    between atoms: C_15  and  O_16
REMARK    4  A    between atoms: C_17  and  O_18
REMARK    5  A    between atoms: C_24  and  O_25
REMARK    6  A    between atoms: C_26  and  O_27
REMARK                            x       y       z     vdW  Elec       q    Type
REMARK                         _______ _______ _______ _____ _____    ______ ____
ROOT
ATOM      1  N   UNL     1      -9.879  -5.536  17.656  0.00  0.00    +0.000 N 
ATOM      2  C   UNL     1      -9.168  -4.944  18.693  0.00  0.00    +0.000 A 
ATOM      3  C   UNL     1      -9.014  -3.603  19.116  0.00  0.00    +0.000 A 
ATOM      4  C   UNL     1      -8.281  -3.357  20.274  0.00  0.00    +0.000 A 
ATOM      5  C   UNL     1      -7.691  -4.392  20.980  0.00  0.00    +0.000 A 
ATOM      6  C   UNL     1      -7.801  -5.707  20.552  0.00  0.00    +0.000 A 
ATOM      7  C   UNL     1      -8.554  -5.992  19.391  0.00  0.00    +0.000 A 
ATOM      8  C   UNL     1      -8.863  -7.212  18.714  0.00  0.00    +0.000 A 
ATOM      9  C   UNL     1      -8.521  -8.561  18.970  0.00  0.00    +0.000 A 
ATOM     10  C   UNL     1      -8.995  -9.583  18.143  0.00  0.00    +0.000 A 
ATOM     11  C   UNL     1      -9.804  -9.260  17.069  0.00  0.00    +0.000 A 
ATOM     12  C   UNL     1     -10.154  -7.934  16.789  0.00  0.00    +0.000 A 
ATOM     13  C   UNL     1      -9.680  -6.906  17.617  0.00  0.00    +0.000 A 
ATOM     14  H   UNL     1      -9.458  -2.776  18.578  0.00  0.00    +0.000 HD
ATOM     15  H   UNL     1      -7.323  -6.500  21.118  0.00  0.00    +0.000 HD
ATOM     16  H   UNL     1      -7.895  -8.806  19.825  0.00  0.00    +0.000 HD
ATOM     17  H   UNL     1      -8.732 -10.611  18.370  0.00  0.00    +0.000 HD
ENDROOT
BRANCH   1  19
ATOM     18  O   UNL     1     -12.163  -5.223  16.678  0.00  0.00    +0.000 OA
ATOM     19  S   UNL     1     -10.830  -4.667  16.536  0.00  0.00    +0.000 S 
ATOM     20  O   UNL     1     -10.151  -4.720  15.255  0.00  0.00    +0.000 OA
BRANCH  19  21
ATOM     21  C   UNL     1     -10.871  -2.949  16.930  0.00  0.00    +0.000 A 
ATOM     22  C   UNL     1     -10.141  -2.121  16.059  0.00  0.00    +0.000 A 
ATOM     23  C   UNL     1     -10.067  -0.752  16.294  0.00  0.00    +0.000 A 
ATOM     24 CL   UNL     1      -9.157   0.251  15.237  0.00  0.00    +0.000 Cl
ATOM     25  C   UNL     1     -10.717  -0.196  17.388  0.00  0.00    +0.000 A 
ATOM     26  C   UNL     1     -11.425  -1.022  18.267  0.00  0.00    +0.000 A 
ATOM     27  C   UNL     1     -11.490  -2.406  18.057  0.00  0.00    +0.000 A 
ATOM     28 CL   UNL     1     -12.276  -3.311  19.293  0.00  0.00    +0.000 Cl
ATOM     29  H   UNL     1      -9.615  -2.550  15.206  0.00  0.00    +0.000 HD
ATOM     30  H   UNL     1     -10.665   0.873  17.578  0.00  0.00    +0.000 HD
ATOM     31  H   UNL     1     -11.912  -0.575  19.132  0.00  0.00    +0.000 HD
ENDBRANCH  19  21
ENDBRANCH   1  19
BRANCH   4  32
ATOM     32  O   UNL     1      -8.133  -2.085  20.760  0.00  0.00    +0.000 OA
ATOM     33  H   UNL     1      -7.248  -1.768  20.505  0.00  0.00    +0.000 HD
ENDBRANCH   4  32
BRANCH   5  34
ATOM     34  O   UNL     1      -6.990  -4.118  22.120  0.00  0.00    +0.000 OA
ATOM     35  H   UNL     1      -7.293  -4.795  22.759  0.00  0.00    +0.000 HD
ENDBRANCH   5  34
BRANCH  11  36
ATOM     36  O   UNL     1     -10.312 -10.229  16.242  0.00  0.00    +0.000 OA
ATOM     37  H   UNL     1     -10.267 -11.080  16.710  0.00  0.00    +0.000 HD
ENDBRANCH  11  36
BRANCH  12  38
ATOM     38  O   UNL     1     -10.996  -7.697  15.734  0.00  0.00    +0.000 OA
ATOM     39  H   UNL     1     -10.985  -6.723  15.623  0.00  0.00    +0.000 HD
ENDBRANCH  12  38
TORSDOF 6
ENDMDL
MODEL 8
REMARK VINA RESULT:    -8.099      4.410      7.785
REMARK INTER + INTRA:          -9.406
REMARK INTER:                  -9.547
REMARK INTRA:                   0.141
REMARK UNBOUND:                 0.587
REMARK  Name = 
REMARK  6 active torsions:
REMARK  status: ('A' for Active; 'I' for Inactive)
REMARK    1  A    between atoms: S_2  and  C_4
REMARK    2  A    between atoms: S_2  and  N_12
REMARK    3  A    between atoms: C_15  and  O_16
REMARK    4  A    between atoms: C_17  and  O_18
REMARK    5  A    between atoms: C_24  and  O_25
REMARK    6  A    between atoms: C_26  and  O_27
REMARK                            x       y       z     vdW  Elec       q    Type
REMARK                         _______ _______ _______ _____ _____    ______ ____
ROOT
ATOM      1  N   UNL     1     -10.609  -3.050  16.742  0.00  0.00    +0.000 N 
ATOM      2  C   UNL     1     -10.035  -1.928  17.330  0.00  0.00    +0.000 A 
ATOM      3  C   UNL     1      -9.884  -1.514  18.673  0.00  0.00    +0.000 A 
ATOM      4  C   UNL     1      -9.166  -0.348  18.927  0.00  0.00    +0.000 A 
ATOM      5  C   UNL     1      -8.638   0.406  17.892  0.00  0.00    +0.000 A 
ATOM      6  C   UNL     1      -8.816   0.031  16.568  0.00  0.00    +0.000 A 
ATOM      7  C   UNL     1      -9.523  -1.157  16.279  0.00  0.00    +0.000 A 
ATOM      8  C   UNL     1      -9.857  -1.810  15.052  0.00  0.00    +0.000 A 
ATOM      9  C   UNL     1      -9.596  -1.492  13.697  0.00  0.00    +0.000 A 
ATOM     10  C   UNL     1     -10.022  -2.342  12.674  0.00  0.00    +0.000 A 
ATOM     11  C   UNL     1     -10.705  -3.500  13.000  0.00  0.00    +0.000 A 
ATOM     12  C   UNL     1     -10.981  -3.837  14.330  0.00  0.00    +0.000 A 
ATOM     13  C   UNL     1     -10.554  -2.986  15.360  0.00  0.00    +0.000 A 
ATOM     14  H   UNL     1     -10.293  -2.080  19.500  0.00  0.00    +0.000 HD
ATOM     15  H   UNL     1      -8.399   0.642  15.774  0.00  0.00    +0.000 HD
ATOM     16  H   UNL     1      -9.047  -0.585  13.452  0.00  0.00    +0.000 HD
ATOM     17  H   UNL     1      -9.796  -2.084  11.644  0.00  0.00    +0.000 HD
ENDROOT
BRANCH   1  19
ATOM     18  O   UNL     1     -12.567  -4.603  16.895  0.00  0.00    +0.000 OA
ATOM     19  S   UNL     1     -11.344  -4.315  17.621  0.00  0.00    +0.000 S 
ATOM     20  O   UNL     1     -11.401  -3.903  19.011  0.00  0.00    +0.000 OA
BRANCH  19  21
ATOM     21  C   UNL     1     -10.326  -5.754  17.641  0.00  0.00    +0.000 A 
ATOM     22  C   UNL     1     -10.872  -6.879  16.997  0.00  0.00    +0.000 A 
ATOM     23  C   UNL     1     -10.178  -8.084  16.984  0.00  0.00    +0.000 A 
ATOM     24 CL   UNL     1     -10.860  -9.458  16.212  0.00  0.00    +0.000 Cl
ATOM     25  C   UNL     1      -8.939  -8.181  17.605  0.00  0.00    +0.000 A 
ATOM     26  C   UNL     1      -8.405  -7.070  18.265  0.00  0.00    +0.000 A 
ATOM     27  C   UNL     1      -9.103  -5.855  18.307  0.00  0.00    +0.000 A 
ATOM     28 CL   UNL     1      -8.391  -4.619  19.271  0.00  0.00    +0.000 Cl
ATOM     29  H   UNL     1     -11.850  -6.816  16.520  0.00  0.00    +0.000 HD
ATOM     30  H   UNL     1      -8.390  -9.119  17.599  0.00  0.00    +0.000 HD
ATOM     31  H   UNL     1      -7.444  -7.167  18.766  0.00  0.00    +0.000 HD
ENDBRANCH  19  21
ENDBRANCH   1  19
BRANCH   4  32
ATOM     32  O   UNL     1      -8.946   0.083  20.208  0.00  0.00    +0.000 OA
ATOM     33  H   UNL     1      -9.247   1.007  20.270  0.00  0.00    +0.000 HD
ENDBRANCH   4  32
BRANCH   5  34
ATOM     34  O   UNL     1      -7.927   1.538  18.174  0.00  0.00    +0.000 OA
ATOM     35  H   UNL     1      -7.645   1.871  17.299  0.00  0.00    +0.000 HD
ENDBRANCH   5  34
BRANCH  11  36
ATOM     36  O   UNL     1     -11.124  -4.376  12.032  0.00  0.00    +0.000 OA
ATOM     37  H   UNL     1     -11.956  -4.040  11.658  0.00  0.00    +0.000 HD
ENDBRANCH  11  36
BRANCH  12  38
ATOM     38  O   UNL     1     -11.622  -5.023  14.576  0.00  0.00    +0.000 OA
ATOM     39  H   UNL     1     -12.496  -4.926  14.144  0.00  0.00    +0.000 HD
ENDBRANCH  12  38
TORSDOF 6
ENDMDL
MODEL 9
REMARK VINA RESULT:    -7.866      4.232      6.522
REMARK INTER + INTRA:          -9.119
REMARK INTER:                  -9.744
REMARK INTRA:                   0.626
REMARK UNBOUND:                 0.587
REMARK  Name = 
REMARK  6 active torsions:
REMARK  status: ('A' for Active; 'I' for Inactive)
REMARK    1  A    between atoms: S_2  and  C_4
REMARK    2  A    between atoms: S_2  and  N_12
REMARK    3  A    between atoms: C_15  and  O_16
REMARK    4  A    between atoms: C_17  and  O_18
REMARK    5  A    between atoms: C_24  and  O_25
REMARK    6  A    between atoms: C_26  and  O_27
REMARK                            x       y       z     vdW  Elec       q    Type
REMARK                         _______ _______ _______ _____ _____    ______ ____
ROOT
ATOM      1  N   UNL     1     -10.281  -4.678  17.914  0.00  0.00    +0.000 N 
ATOM      2  C   UNL     1      -9.390  -4.267  18.899  0.00  0.00    +0.000 A 
ATOM      3  C   UNL     1      -9.228  -3.055  19.608  0.00  0.00    +0.000 A 
ATOM      4  C   UNL     1      -8.267  -3.003  20.615  0.00  0.00    +0.000 A 
ATOM      5  C   UNL     1      -7.467  -4.098  20.896  0.00  0.00    +0.000 A 
ATOM      6  C   UNL     1      -7.589  -5.280  20.179  0.00  0.00    +0.000 A 
ATOM      7  C   UNL     1      -8.568  -5.370  19.164  0.00  0.00    +0.000 A 
ATOM      8  C   UNL     1      -8.947  -6.424  18.276  0.00  0.00    +0.000 A 
ATOM      9  C   UNL     1      -8.471  -7.746  18.103  0.00  0.00    +0.000 A 
ATOM     10  C   UNL     1      -9.057  -8.593  17.159  0.00  0.00    +0.000 A 
ATOM     11  C   UNL     1     -10.108  -8.124  16.392  0.00  0.00    +0.000 A 
ATOM     12  C   UNL     1     -10.596  -6.820  16.539  0.00  0.00    +0.000 A 
ATOM     13  C   UNL     1     -10.010  -5.967  17.486  0.00  0.00    +0.000 A 
ATOM     14  H   UNL     1      -9.834  -2.182  19.403  0.00  0.00    +0.000 HD
ATOM     15  H   UNL     1      -6.947  -6.122  20.413  0.00  0.00    +0.000 HD
ATOM     16  H   UNL     1      -7.652  -8.110  18.720  0.00  0.00    +0.000 HD
ATOM     17  H   UNL     1      -8.685  -9.608  17.057  0.00  0.00    +0.000 HD
ENDROOT
BRANCH   1  19
ATOM     18  O   UNL     1     -12.215  -3.176  18.436  0.00  0.00    +0.000 OA
ATOM     19  S   UNL     1     -11.515  -3.688  17.273  0.00  0.00    +0.000 S 
ATOM     20  O   UNL     1     -12.227  -4.468  16.279  0.00  0.00    +0.000 OA
BRANCH  19  21
ATOM     21  C   UNL     1     -10.841  -2.339  16.359  0.00  0.00    +0.000 A 
ATOM     22  C   UNL     1     -11.078  -1.068  16.912  0.00  0.00    +0.000 A 
ATOM     23  C   UNL     1     -10.630   0.075  16.257  0.00  0.00    +0.000 A 
ATOM     24 CL   UNL     1     -10.940   1.625  16.928  0.00  0.00    +0.000 Cl
ATOM     25  C   UNL     1      -9.943  -0.036  15.055  0.00  0.00    +0.000 A 
ATOM     26  C   UNL     1      -9.726  -1.297  14.493  0.00  0.00    +0.000 A 
ATOM     27  C   UNL     1     -10.192  -2.456  15.129  0.00  0.00    +0.000 A 
ATOM     28 CL   UNL     1      -9.976  -3.924  14.255  0.00  0.00    +0.000 Cl
ATOM     29  H   UNL     1     -11.630  -0.971  17.847  0.00  0.00    +0.000 HD
ATOM     30  H   UNL     1      -9.589   0.852  14.537  0.00  0.00    +0.000 HD
ATOM     31  H   UNL     1      -9.205  -1.366  13.540  0.00  0.00    +0.000 HD
ENDBRANCH  19  21
ENDBRANCH   1  19
BRANCH   4  32
ATOM     32  O   UNL     1      -8.092  -1.873  21.368  0.00  0.00    +0.000 OA
ATOM     33  H   UNL     1      -7.449  -1.303  20.908  0.00  0.00    +0.000 HD
ENDBRANCH   4  32
BRANCH   5  34
ATOM     34  O   UNL     1      -6.543  -4.021  21.899  0.00  0.00    +0.000 OA
ATOM     35  H   UNL     1      -6.874  -4.639  22.582  0.00  0.00    +0.000 HD
ENDBRANCH   5  34
BRANCH  11  36
ATOM     36  O   UNL     1     -10.729  -8.924  15.468  0.00  0.00    +0.000 OA
ATOM     37  H   UNL     1     -11.285  -9.563  15.946  0.00  0.00    +0.000 HD
ENDBRANCH  11  36
BRANCH  12  38
ATOM     38  O   UNL     1     -11.669  -6.442  15.776  0.00  0.00    +0.000 OA
ATOM     39  H   UNL     1     -11.868  -7.227  15.223  0.00  0.00    +0.000 HD
ENDBRANCH  12  38
TORSDOF 6
ENDMDL
