
 OpenBabel01112422483D

 65 69  0  0  1  0  0  0  0  0999 V2000
    4.3047    0.1657   -2.5707 O   0  0  0  0  0  0  0  0  0  0  0  0
    4.0268   -0.6712   -3.4214 C   0  0  0  0  0  0  0  0  0  0  0  0
    3.0325   -1.6099   -3.2613 N   0  0  0  0  0  0  0  0  0  0  0  0
    2.1833   -1.5900   -2.0929 C   0  0  2  0  0  0  0  0  0  0  0  0
    1.7112   -2.9558   -1.6653 C   0  0  0  0  0  0  0  0  0  0  0  0
    2.4314   -4.1401   -1.5882 C   0  0  0  0  0  0  0  0  0  0  0  0
    1.8052   -5.2694   -1.0536 C   0  0  0  0  0  0  0  0  0  0  0  0
    0.4834   -5.2010   -0.5886 C   0  0  0  0  0  0  0  0  0  0  0  0
   -0.2294   -4.0021   -0.6502 C   0  0  0  0  0  0  0  0  0  0  0  0
    0.3944   -2.8901   -1.1944 C   0  0  0  0  0  0  0  0  0  0  0  0
   -0.1461   -1.4915   -1.2933 C   0  0  0  0  0  0  0  0  0  0  0  0
    0.8391   -0.8292   -2.2852 C   0  0  2  0  0  0  0  0  0  0  0  0
    0.2728   -1.0212   -3.6088 O   0  0  0  0  0  0  0  0  0  0  0  0
    0.1485    0.0730   -4.4029 C   0  0  0  0  0  0  0  0  0  0  0  0
    0.7125    1.1489   -4.2462 O   0  0  0  0  0  0  0  0  0  0  0  0
   -0.8649   -0.1647   -5.4631 C   0  0  0  0  0  0  0  0  0  0  0  0
   -1.2556    0.8992   -6.2902 C   0  0  0  0  0  0  0  0  0  0  0  0
   -2.3106    0.7326   -7.1956 C   0  0  0  0  0  0  0  0  0  0  0  0
   -2.7315    1.8284   -7.9085 O   0  0  0  0  0  0  0  0  0  0  0  0
   -2.9683   -0.5075   -7.3401 C   0  0  0  0  0  0  0  0  0  0  0  0
   -4.1167   -0.6495   -8.2732 C   0  0  0  0  0  0  0  0  0  0  0  0
   -4.0459   -0.1128   -9.3856 O   0  0  0  0  0  0  0  0  0  0  0  0
   -5.2933   -1.5519   -8.0479 C   0  0  0  0  0  0  0  0  0  0  0  0
   -5.8180   -2.1906   -9.1966 C   0  0  0  0  0  0  0  0  0  0  0  0
   -5.3153   -2.0100  -10.4629 O   0  0  0  0  0  0  0  0  0  0  0  0
   -6.8714   -3.0998   -9.1192 C   0  0  0  0  0  0  0  0  0  0  0  0
   -7.4239   -3.4111   -7.8856 C   0  0  0  0  0  0  0  0  0  0  0  0
   -6.9265   -2.8058   -6.7330 C   0  0  0  0  0  0  0  0  0  0  0  0
   -5.8658   -1.8755   -6.7954 C   0  0  0  0  0  0  0  0  0  0  0  0
   -5.4367   -1.2361   -5.5228 C   0  0  0  0  0  0  0  0  0  0  0  0
   -5.0713   -0.0768   -5.4552 O   0  0  0  0  0  0  0  0  0  0  0  0
   -5.4682   -2.0460   -4.4401 O   0  0  0  0  0  0  0  0  0  0  0  0
   -2.5089   -1.5870   -6.5579 C   0  0  0  0  0  0  0  0  0  0  0  0
   -3.0094   -2.8599   -6.6187 O   0  0  0  0  0  0  0  0  0  0  0  0
   -1.5038   -1.4063   -5.6108 C   0  0  0  0  0  0  0  0  0  0  0  0
    4.8157   -0.7383   -4.6827 C   0  0  0  0  0  0  0  0  0  0  0  0
    6.1464   -0.2929   -4.6615 C   0  0  0  0  0  0  0  0  0  0  0  0
    6.9207   -0.3175   -5.8247 C   0  0  0  0  0  0  0  0  0  0  0  0
    6.3542   -0.7803   -7.0085 C   0  0  0  0  0  0  0  0  0  0  0  0
    7.0628   -0.8112   -8.1723 O   0  0  0  0  0  0  0  0  0  0  0  0
    5.0344   -1.2190   -7.0454 C   0  0  0  0  0  0  0  0  0  0  0  0
    4.2588   -1.1974   -5.8834 C   0  0  0  0  0  0  0  0  0  0  0  0
    2.8489   -2.3116   -3.9639 H   0  0  0  0  0  0  0  0  0  0  0  0
    2.7237   -1.1542   -1.2421 H   0  0  0  0  0  0  0  0  0  0  0  0
    3.4670   -4.1888   -1.9110 H   0  0  0  0  0  0  0  0  0  0  0  0
    2.3534   -6.2059   -0.9765 H   0  0  0  0  0  0  0  0  0  0  0  0
    0.0172   -6.0853   -0.1603 H   0  0  0  0  0  0  0  0  0  0  0  0
   -1.2430   -3.9445   -0.2652 H   0  0  0  0  0  0  0  0  0  0  0  0
   -0.0957   -1.0175   -0.3078 H   0  0  0  0  0  0  0  0  0  0  0  0
   -1.1744   -1.4933   -1.6673 H   0  0  0  0  0  0  0  0  0  0  0  0
    0.9476    0.2389   -2.0655 H   0  0  0  0  0  0  0  0  0  0  0  0
   -0.7508    1.8567   -6.1950 H   0  0  0  0  0  0  0  0  0  0  0  0
   -2.2516    2.6206   -7.6191 H   0  0  0  0  0  0  0  0  0  0  0  0
   -4.7339   -1.2133  -10.4554 H   0  0  0  0  0  0  0  0  0  0  0  0
   -7.2597   -3.5589  -10.0263 H   0  0  0  0  0  0  0  0  0  0  0  0
   -8.2524   -4.1142   -7.8252 H   0  0  0  0  0  0  0  0  0  0  0  0
   -7.4078   -3.0521   -5.7889 H   0  0  0  0  0  0  0  0  0  0  0  0
   -5.7020   -2.9824   -4.5768 H   0  0  0  0  0  0  0  0  0  0  0  0
   -3.4213   -3.0266   -7.4819 H   0  0  0  0  0  0  0  0  0  0  0  0
   -1.2379   -2.2432   -4.9718 H   0  0  0  0  0  0  0  0  0  0  0  0
    6.5811    0.0774   -3.7345 H   0  0  0  0  0  0  0  0  0  0  0  0
    7.9481    0.0305   -5.7876 H   0  0  0  0  0  0  0  0  0  0  0  0
    7.9454   -0.4382   -8.0116 H   0  0  0  0  0  0  0  0  0  0  0  0
    4.6056   -1.5621   -7.9830 H   0  0  0  0  0  0  0  0  0  0  0  0
    3.2212   -1.5070   -5.9418 H   0  0  0  0  0  0  0  0  0  0  0  0
  1  2  2  0  0  0  0
  2  3  1  0  0  0  0
  2 36  1  0  0  0  0
  3 43  1  0  0  0  0
  4  5  1  0  0  0  0
  4 12  1  0  0  0  0
  4  3  1  0  0  0  0
  4 44  1  1  0  0  0
  5  6  1  0  0  0  0
  5 10  2  0  0  0  0
  6  7  2  0  0  0  0
  6 45  1  0  0  0  0
  7  8  1  0  0  0  0
  7 46  1  0  0  0  0
  8  9  2  0  0  0  0
  8 47  1  0  0  0  0
  9 10  1  0  0  0  0
  9 48  1  0  0  0  0
 10 11  1  0  0  0  0
 11 12  1  0  0  0  0
 11 49  1  0  0  0  0
 11 50  1  0  0  0  0
 12 13  1  0  0  0  0
 12 51  1  1  0  0  0
 13 14  1  0  0  0  0
 14 15  2  0  0  0  0
 14 16  1  0  0  0  0
 16 17  1  0  0  0  0
 16 35  2  0  0  0  0
 17 18  2  0  0  0  0
 17 52  1  0  0  0  0
 18 19  1  0  0  0  0
 18 20  1  0  0  0  0
 19 53  1  0  0  0  0
 20 21  1  0  0  0  0
 20 33  2  0  0  0  0
 21 22  2  0  0  0  0
 21 23  1  0  0  0  0
 23 24  1  0  0  0  0
 23 29  2  0  0  0  0
 24 25  1  0  0  0  0
 24 26  2  0  0  0  0
 25 54  1  0  0  0  0
 26 27  1  0  0  0  0
 26 55  1  0  0  0  0
 27 28  2  0  0  0  0
 27 56  1  0  0  0  0
 28 29  1  0  0  0  0
 28 57  1  0  0  0  0
 29 30  1  0  0  0  0
 30 31  2  0  0  0  0
 30 32  1  0  0  0  0
 32 58  1  0  0  0  0
 33 34  1  0  0  0  0
 33 35  1  0  0  0  0
 34 59  1  0  0  0  0
 35 60  1  0  0  0  0
 36 37  1  0  0  0  0
 36 42  2  0  0  0  0
 37 38  2  0  0  0  0
 37 61  1  0  0  0  0
 38 39  1  0  0  0  0
 38 62  1  0  0  0  0
 39 40  1  0  0  0  0
 39 41  2  0  0  0  0
 40 63  1  0  0  0  0
 41 42  1  0  0  0  0
 41 64  1  0  0  0  0
 42 65  1  0  0  0  0
M  END
$$$$
