
 OpenBabel01112422293D

 74 78  0  0  1  0  0  0  0  0999 V2000
    0.8529   -0.1695   -0.0125 C   0  0  0  0  0  0  0  0  0  0  0  0
    2.3937   -0.0828    0.0343 C   0  0  0  0  0  0  0  0  0  0  0  0
    2.7409   -0.1081    1.5329 C   0  0  0  0  0  0  0  0  0  0  0  0
    3.1243   -1.1602   -0.8064 C   0  0  3  0  0  0  0  0  0  0  0  0
    2.6596   -0.8587   -2.2480 C   0  0  0  0  0  0  0  0  0  0  0  0
    2.6001    0.6752   -2.2697 C   0  0  0  0  0  0  0  0  0  0  0  0
    3.0102    1.0695   -0.8203 C   0  0  3  0  0  0  0  0  0  0  0  0
    2.5298    2.4683   -0.4671 C   0  0  0  0  0  0  0  0  0  0  0  0
    4.5617    0.8147   -0.7341 C   0  0  3  0  0  0  0  0  0  0  0  0
    5.1217    1.3713    0.4684 O   0  0  0  0  0  0  0  0  0  0  0  0
    5.4902    2.6748    0.4114 C   0  0  0  0  0  0  0  0  0  0  0  0
    5.7431    3.3130   -0.5902 O   0  0  0  0  0  0  0  0  0  0  0  0
    5.3293    3.2894    1.7633 C   0  0  0  0  0  0  0  0  0  0  0  0
    5.4993    4.6680    1.9125 C   0  0  0  0  0  0  0  0  0  0  0  0
    5.2147    5.2701    3.1439 C   0  0  0  0  0  0  0  0  0  0  0  0
    5.4268    6.6160    3.2770 O   0  0  0  0  0  0  0  0  0  0  0  0
    4.7321    4.5124    4.2318 C   0  0  0  0  0  0  0  0  0  0  0  0
    4.4199    5.1766    5.5185 C   0  0  0  0  0  0  0  0  0  0  0  0
    3.8193    6.2558    5.4934 O   0  0  0  0  0  0  0  0  0  0  0  0
    4.5935    4.5374    6.8597 C   0  0  0  0  0  0  0  0  0  0  0  0
    3.6089    4.8493    7.8254 C   0  0  0  0  0  0  0  0  0  0  0  0
    2.5331    5.6670    7.5755 O   0  0  0  0  0  0  0  0  0  0  0  0
    3.6348    4.2995    9.1048 C   0  0  0  0  0  0  0  0  0  0  0  0
    4.6355    3.4035    9.4498 C   0  0  0  0  0  0  0  0  0  0  0  0
    5.6090    3.0580    8.5142 C   0  0  0  0  0  0  0  0  0  0  0  0
    5.6003    3.6121    7.2169 C   0  0  0  0  0  0  0  0  0  0  0  0
    6.7063    3.2199    6.3044 C   0  0  0  0  0  0  0  0  0  0  0  0
    7.2307    3.9931    5.5246 O   0  0  0  0  0  0  0  0  0  0  0  0
    7.0793    1.9219    6.3975 O   0  0  0  0  0  0  0  0  0  0  0  0
    4.5314    3.1401    4.0525 C   0  0  0  0  0  0  0  0  0  0  0  0
    4.0083    2.2855    4.9883 O   0  0  0  0  0  0  0  0  0  0  0  0
    4.8729    2.5338    2.8492 C   0  0  0  0  0  0  0  0  0  0  0  0
    4.6327   -0.7511   -0.7534 C   0  0  3  0  0  0  0  0  0  0  0  0
    5.3596   -1.3701    0.3462 N   0  0  0  0  0  0  0  0  0  0  0  0
    5.5541   -2.7354    0.3786 C   0  0  0  0  0  0  0  0  0  0  0  0
    5.0990   -3.4985   -0.4735 O   0  0  0  0  0  0  0  0  0  0  0  0
    6.3944   -3.2835    1.4749 C   0  0  0  0  0  0  0  0  0  0  0  0
    6.5209   -2.6396    2.7130 C   0  0  0  0  0  0  0  0  0  0  0  0
    7.3314   -3.1910    3.7104 C   0  0  0  0  0  0  0  0  0  0  0  0
    8.0061   -4.3865    3.4650 C   0  0  0  0  0  0  0  0  0  0  0  0
    8.8139   -4.9550    4.4007 O   0  0  0  0  0  0  0  0  0  0  0  0
    7.8692   -5.0441    2.2457 C   0  0  0  0  0  0  0  0  0  0  0  0
    7.0586   -4.4998    1.2573 C   0  0  0  0  0  0  0  0  0  0  0  0
    0.5081   -1.0870    0.4784 H   0  0  0  0  0  0  0  0  0  0  0  0
    0.4259   -0.1671   -1.0162 H   0  0  0  0  0  0  0  0  0  0  0  0
    0.4057    0.6767    0.5227 H   0  0  0  0  0  0  0  0  0  0  0  0
    2.3190   -0.9992    2.0121 H   0  0  0  0  0  0  0  0  0  0  0  0
    2.3294    0.7692    2.0442 H   0  0  0  0  0  0  0  0  0  0  0  0
    3.8026   -0.1414    1.7557 H   0  0  0  0  0  0  0  0  0  0  0  0
    2.9118   -2.1880   -0.5036 H   0  0  0  0  0  0  0  0  0  0  0  0
    1.6745   -1.2916   -2.4498 H   0  0  0  0  0  0  0  0  0  0  0  0
    3.3454   -1.2513   -3.0055 H   0  0  0  0  0  0  0  0  0  0  0  0
    1.5909    1.0184   -2.5226 H   0  0  0  0  0  0  0  0  0  0  0  0
    3.2794    1.0948   -3.0200 H   0  0  0  0  0  0  0  0  0  0  0  0
    1.4459    2.5593   -0.5943 H   0  0  0  0  0  0  0  0  0  0  0  0
    2.9938    3.2185   -1.1154 H   0  0  0  0  0  0  0  0  0  0  0  0
    2.7446    2.7270    0.5724 H   0  0  0  0  0  0  0  0  0  0  0  0
    5.0924    1.2079   -1.6098 H   0  0  0  0  0  0  0  0  0  0  0  0
    5.8466    5.2613    1.0696 H   0  0  0  0  0  0  0  0  0  0  0  0
    5.6068    7.0177    2.4112 H   0  0  0  0  0  0  0  0  0  0  0  0
    2.7075    6.1653    6.7424 H   0  0  0  0  0  0  0  0  0  0  0  0
    2.8745    4.5815    9.8300 H   0  0  0  0  0  0  0  0  0  0  0  0
    4.6642    2.9837   10.4534 H   0  0  0  0  0  0  0  0  0  0  0  0
    6.3954    2.3753    8.8292 H   0  0  0  0  0  0  0  0  0  0  0  0
    6.5449    1.3454    6.9764 H   0  0  0  0  0  0  0  0  0  0  0  0
    3.4219    2.7660    5.5974 H   0  0  0  0  0  0  0  0  0  0  0  0
    4.7352    1.4638    2.7670 H   0  0  0  0  0  0  0  0  0  0  0  0
    5.1394   -1.0813   -1.6711 H   0  0  0  0  0  0  0  0  0  0  0  0
    5.9539   -0.7673    0.9030 H   0  0  0  0  0  0  0  0  0  0  0  0
    5.9734   -1.7258    2.9229 H   0  0  0  0  0  0  0  0  0  0  0  0
    7.4241   -2.6784    4.6643 H   0  0  0  0  0  0  0  0  0  0  0  0
    8.8220   -4.3951    5.1941 H   0  0  0  0  0  0  0  0  0  0  0  0
    8.3955   -5.9802    2.0744 H   0  0  0  0  0  0  0  0  0  0  0  0
    6.9391   -5.0249    0.3067 H   0  0  0  0  0  0  0  0  0  0  0  0
  1  2  1  0  0  0  0
  1 44  1  0  0  0  0
  1 45  1  0  0  0  0
  1 46  1  0  0  0  0
  2  3  1  0  0  0  0
  2  4  1  0  0  0  0
  2  7  1  0  0  0  0
  3 47  1  0  0  0  0
  3 48  1  0  0  0  0
  3 49  1  0  0  0  0
  4  5  1  0  0  0  0
  4 33  1  0  0  0  0
  4 50  1  0  0  0  0
  5  6  1  0  0  0  0
  5 51  1  0  0  0  0
  5 52  1  0  0  0  0
  6  7  1  0  0  0  0
  6 53  1  0  0  0  0
  6 54  1  0  0  0  0
  7  8  1  0  0  0  0
  7  9  1  0  0  0  0
  8 55  1  0  0  0  0
  8 56  1  0  0  0  0
  8 57  1  0  0  0  0
  9 10  1  0  0  0  0
  9 33  1  0  0  0  0
  9 58  1  0  0  0  0
 10 11  1  0  0  0  0
 11 12  2  0  0  0  0
 11 13  1  0  0  0  0
 13 14  1  0  0  0  0
 13 32  2  0  0  0  0
 14 15  2  0  0  0  0
 14 59  1  0  0  0  0
 15 16  1  0  0  0  0
 15 17  1  0  0  0  0
 16 60  1  0  0  0  0
 17 18  1  0  0  0  0
 17 30  2  0  0  0  0
 18 19  2  0  0  0  0
 18 20  1  0  0  0  0
 20 21  1  0  0  0  0
 20 26  2  0  0  0  0
 21 22  1  0  0  0  0
 21 23  2  0  0  0  0
 22 61  1  0  0  0  0
 23 24  1  0  0  0  0
 23 62  1  0  0  0  0
 24 25  2  0  0  0  0
 24 63  1  0  0  0  0
 25 26  1  0  0  0  0
 25 64  1  0  0  0  0
 26 27  1  0  0  0  0
 27 28  2  0  0  0  0
 27 29  1  0  0  0  0
 29 65  1  0  0  0  0
 30 31  1  0  0  0  0
 30 32  1  0  0  0  0
 31 66  1  0  0  0  0
 32 67  1  0  0  0  0
 33 34  1  0  0  0  0
 33 68  1  0  0  0  0
 34 35  1  0  0  0  0
 34 69  1  0  0  0  0
 35 36  2  0  0  0  0
 35 37  1  0  0  0  0
 37 38  1  0  0  0  0
 37 43  2  0  0  0  0
 38 39  2  0  0  0  0
 38 70  1  0  0  0  0
 39 40  1  0  0  0  0
 39 71  1  0  0  0  0
 40 41  1  0  0  0  0
 40 42  2  0  0  0  0
 41 72  1  0  0  0  0
 42 43  1  0  0  0  0
 42 73  1  0  0  0  0
 43 74  1  0  0  0  0
M  END
$$$$
