REMARK  Name = 
REMARK  8 active torsions:
REMARK  status: ('A' for Active; 'I' for Inactive)
REMARK    1  A    between atoms: N_1  and  C_2
REMARK    2  A    between atoms: C_2  and  C_3
REMARK    3  A    between atoms: C_2  and  C_20
REMARK    4  A    between atoms: C_3  and  O_4
REMARK    5  A    between atoms: O_4  and  C_5
REMARK    6  A    between atoms: C_9  and  C_10
REMARK    7  A    between atoms: C_20  and  C_21
REMARK    8  A    between atoms: C_25  and  C_26
REMARK                            x       y       z     vdW  Elec       q    Type
REMARK                         _______ _______ _______ _____ _____    ______ ____
ROOT
ATOM      1  C   UNL     1       1.779   1.205  -0.647  0.00  0.00    +0.000 C 
ATOM      2  H   UNL     1       1.422   1.606  -1.606  0.00  0.00    +0.000 HD
ATOM      3  H   UNL     1       1.376   0.195  -0.515  0.00  0.00    +0.000 HD
ENDROOT
BRANCH   1   4
ATOM      4  C   UNL     1       3.322   1.133  -0.665  0.00  0.00    +0.000 C 
ATOM      5  H   UNL     1       3.616   0.459  -1.478  0.00  0.00    +0.000 HD
BRANCH   4   6
ATOM      6  N   UNL     1       3.886   2.460  -0.983  0.00  0.00    +0.000 NA
ATOM      7  H   UNL     1       4.904   2.411  -1.000  0.00  0.00    +0.000 HD
ATOM      8  H   UNL     1       3.639   3.109  -0.235  0.00  0.00    +0.000 HD
ENDBRANCH   4   6
BRANCH   4   9
ATOM      9  C   UNL     1       3.891   0.612   0.676  0.00  0.00    +0.000 C 
ATOM     10  H   UNL     1       3.622   1.301   1.488  0.00  0.00    +0.000 HD
ATOM     11  H   UNL     1       4.989   0.618   0.639  0.00  0.00    +0.000 HD
BRANCH   9  12
ATOM     12  C   UNL     1       3.455  -0.792   1.029  0.00  0.00    +0.000 A 
ATOM     13  C   UNL     1       2.719  -1.029   2.197  0.00  0.00    +0.000 A 
ATOM     14  C   UNL     1       2.322  -2.321   2.539  0.00  0.00    +0.000 A 
ATOM     15  C   UNL     1       2.660  -3.397   1.717  0.00  0.00    +0.000 A 
ATOM     16  C   UNL     1       3.399  -3.189   0.545  0.00  0.00    +0.000 A 
ATOM     17  C   UNL     1       3.788  -1.880   0.208  0.00  0.00    +0.000 A 
ATOM     18  H   UNL     1       2.445  -0.204   2.855  0.00  0.00    +0.000 HD
ATOM     19  H   UNL     1       1.752  -2.492   3.449  0.00  0.00    +0.000 HD
ATOM     20  H   UNL     1       2.347  -4.400   2.001  0.00  0.00    +0.000 HD
ATOM     21  H   UNL     1       4.365  -1.717  -0.702  0.00  0.00    +0.000 HD
BRANCH  16  22
ATOM     22  C   UNL     1       3.790  -4.344  -0.342  0.00  0.00    +0.000 C 
ATOM     23  F   UNL     1       3.388  -5.558   0.129  0.00  0.00    +0.000 F 
ATOM     24  F   UNL     1       3.268  -4.240  -1.596  0.00  0.00    +0.000 F 
ATOM     25  F   UNL     1       5.139  -4.439  -0.508  0.00  0.00    +0.000 F 
ENDBRANCH  16  22
ENDBRANCH   9  12
ENDBRANCH   4   9
ENDBRANCH   1   4
BRANCH   1  26
ATOM     26  O   UNL     1       1.351   2.051   0.425  0.00  0.00    +0.000 OA
BRANCH  26  27
ATOM     27  C   UNL     1       0.005   2.189   0.589  0.00  0.00    +0.000 A 
ATOM     28  C   UNL     1      -0.401   3.059   1.594  0.00  0.00    +0.000 A 
ATOM     29  N   UNL     1      -1.688   3.318   1.909  0.00  0.00    +0.000 NA
ATOM     30  C   UNL     1      -2.621   2.657   1.183  0.00  0.00    +0.000 A 
ATOM     31  C   UNL     1      -2.346   1.760   0.149  0.00  0.00    +0.000 A 
ATOM     32  C   UNL     1      -0.991   1.538  -0.138  0.00  0.00    +0.000 A 
ATOM     33  H   UNL     1       0.333   3.587   2.197  0.00  0.00    +0.000 HD
ATOM     34  H   UNL     1      -3.640   2.864   1.498  0.00  0.00    +0.000 HD
ATOM     35  H   UNL     1      -0.744   0.834  -0.928  0.00  0.00    +0.000 HD
BRANCH  31  36
ATOM     36  C   UNL     1      -3.419   1.034  -0.552  0.00  0.00    +0.000 A 
ATOM     37  C   UNL     1      -4.676   1.598  -0.770  0.00  0.00    +0.000 A 
ATOM     38  C   UNL     1      -5.675   0.749  -1.259  0.00  0.00    +0.000 A 
ATOM     39  C   UNL     1      -7.048   0.856  -1.559  0.00  0.00    +0.000 A 
ATOM     40  N   UNL     1      -7.577  -0.306  -1.958  0.00  0.00    +0.000 NA
ATOM     41  N   UNL     1      -6.533  -1.155  -1.923  0.00  0.00    +0.000 N 
ATOM     42  C   UNL     1      -5.357  -0.571  -1.538  0.00  0.00    +0.000 A 
ATOM     43  C   UNL     1      -4.074  -1.067  -1.399  0.00  0.00    +0.000 A 
ATOM     44  N   UNL     1      -3.117  -0.250  -0.898  0.00  0.00    +0.000 NA
ATOM     45  H   UNL     1      -4.894   2.633  -0.534  0.00  0.00    +0.000 HD
ATOM     46  H   UNL     1      -7.686   1.726  -1.489  0.00  0.00    +0.000 HD
ATOM     47  H   UNL     1      -6.699  -2.127  -2.154  0.00  0.00    +0.000 HD
ATOM     48  H   UNL     1      -3.783  -2.082  -1.639  0.00  0.00    +0.000 HD
ENDBRANCH  31  36
ENDBRANCH  26  27
ENDBRANCH   1  26
TORSDOF 8
