MODEL 1
REMARK VINA RESULT:   -11.270      0.000      0.000
REMARK INTER + INTRA:         -17.134
REMARK INTER:                 -16.212
REMARK INTRA:                  -0.922
REMARK UNBOUND:                -0.922
REMARK  Name = 
REMARK  8 active torsions:
REMARK  status: ('A' for Active; 'I' for Inactive)
REMARK    1  A    between atoms: N_1  and  C_2
REMARK    2  A    between atoms: C_2  and  C_3
REMARK    3  A    between atoms: C_2  and  C_25
REMARK    4  A    between atoms: C_3  and  O_4
REMARK    5  A    between atoms: O_4  and  C_5
REMARK    6  A    between atoms: C_9  and  C_10
REMARK    7  A    between atoms: C_13  and  C_14
REMARK    8  A    between atoms: C_25  and  C_26
REMARK                            x       y       z     vdW  Elec       q    Type
REMARK                         _______ _______ _______ _____ _____    ______ ____
ROOT
ATOM      1  C   UNL     1      -6.507  -5.665  19.100  0.00  0.00    +0.000 A 
ATOM      2  C   UNL     1      -5.130  -5.539  19.216  0.00  0.00    +0.000 A 
ATOM      3  N   UNL     1      -4.511  -4.825  20.185  0.00  0.00    +0.000 NA
ATOM      4  C   UNL     1      -5.314  -4.209  21.090  0.00  0.00    +0.000 A 
ATOM      5  C   UNL     1      -6.707  -4.279  21.109  0.00  0.00    +0.000 A 
ATOM      6  C   UNL     1      -7.290  -5.017  20.059  0.00  0.00    +0.000 A 
ATOM      7  H   UNL     1      -4.470  -6.019  18.497  0.00  0.00    +0.000 HD
ATOM      8  H   UNL     1      -4.771  -3.587  21.797  0.00  0.00    +0.000 HD
ATOM      9  H   UNL     1      -8.374  -5.033  19.993  0.00  0.00    +0.000 HD
ENDROOT
BRANCH   5  10
ATOM     10  C   UNL     1      -7.529  -3.477  22.050  0.00  0.00    +0.000 A 
ATOM     11  C   UNL     1      -8.546  -2.579  21.681  0.00  0.00    +0.000 A 
ATOM     12  C   UNL     1      -9.538  -2.318  22.651  0.00  0.00    +0.000 A 
ATOM     13  C   UNL     1     -10.745  -1.580  22.851  0.00  0.00    +0.000 A 
ATOM     14  N   UNL     1     -11.494  -2.158  23.811  0.00  0.00    +0.000 NA
ATOM     15  N   UNL     1     -10.583  -2.815  24.525  0.00  0.00    +0.000 N 
ATOM     16  C   UNL     1      -9.395  -2.945  23.883  0.00  0.00    +0.000 A 
ATOM     17  C   UNL     1      -8.223  -3.565  24.282  0.00  0.00    +0.000 A 
ATOM     18  N   UNL     1      -7.302  -3.840  23.346  0.00  0.00    +0.000 NA
ATOM     19  H   UNL     1      -8.661  -2.250  20.652  0.00  0.00    +0.000 HD
ATOM     20  H   UNL     1     -10.864  -3.186  25.426  0.00  0.00    +0.000 HD
ATOM     21  H   UNL     1      -8.032  -3.912  25.293  0.00  0.00    +0.000 HD
BRANCH  13  22
ATOM     22  C   UNL     1     -11.140  -0.173  22.523  0.00  0.00    +0.000 A 
ATOM     23  C   UNL     1     -12.431   0.191  22.172  0.00  0.00    +0.000 A 
ATOM     24  C   UNL     1     -12.563   1.573  22.431  0.00  0.00    +0.000 A 
ATOM     25  C   UNL     1     -11.344   1.978  22.921  0.00  0.00    +0.000 A 
ATOM     26  O   UNL     1     -10.451   0.947  22.912  0.00  0.00    +0.000 OA
ATOM     27  H   UNL     1     -13.211  -0.497  21.880  0.00  0.00    +0.000 HD
ATOM     28  H   UNL     1     -13.457   2.175  22.340  0.00  0.00    +0.000 HD
ATOM     29  H   UNL     1     -10.984   2.913  23.328  0.00  0.00    +0.000 HD
ENDBRANCH  13  22
ENDBRANCH   5  10
BRANCH   1  30
ATOM     30  O   UNL     1      -6.961  -6.405  18.045  0.00  0.00    +0.000 OA
BRANCH  30  31
ATOM     31  C   UNL     1      -8.371  -6.653  18.011  0.00  0.00    +0.000 C 
ATOM     32  H   UNL     1      -8.716  -6.506  16.982  0.00  0.00    +0.000 HD
ATOM     33  H   UNL     1      -8.896  -5.961  18.682  0.00  0.00    +0.000 HD
BRANCH  31  34
ATOM     34  C   UNL     1      -8.675  -8.104  18.456  0.00  0.00    +0.000 C 
ATOM     35  H   UNL     1      -7.733  -8.665  18.477  0.00  0.00    +0.000 HD
BRANCH  34  36
ATOM     36  N   UNL     1      -9.211  -8.137  19.832  0.00  0.00    +0.000 NA
ATOM     37  H   UNL     1      -8.705  -7.477  20.422  0.00  0.00    +0.000 HD
ATOM     38  H   UNL     1      -9.081  -9.062  20.240  0.00  0.00    +0.000 HD
ENDBRANCH  34  36
BRANCH  34  39
ATOM     39  C   UNL     1      -9.680  -8.776  17.488  0.00  0.00    +0.000 C 
ATOM     40  H   UNL     1      -9.839  -8.119  16.621  0.00  0.00    +0.000 HD
ATOM     41  H   UNL     1     -10.660  -8.877  17.972  0.00  0.00    +0.000 HD
BRANCH  39  42
ATOM     42  C   UNL     1      -9.255 -10.147  17.011  0.00  0.00    +0.000 A 
ATOM     43  C   UNL     1      -9.248 -10.458  15.644  0.00  0.00    +0.000 A 
ATOM     44  C   UNL     1      -8.880 -11.733  15.209  0.00  0.00    +0.000 A 
ATOM     45  C   UNL     1      -8.508 -12.706  16.135  0.00  0.00    +0.000 A 
ATOM     46  C   UNL     1      -8.504 -12.407  17.495  0.00  0.00    +0.000 A 
ATOM     47  C   UNL     1      -8.869 -11.132  17.932  0.00  0.00    +0.000 A 
ATOM     48  H   UNL     1      -9.530  -9.711  14.905  0.00  0.00    +0.000 HD
ATOM     49  H   UNL     1      -8.889 -11.967  14.148  0.00  0.00    +0.000 HD
ATOM     50  H   UNL     1      -8.229 -13.699  15.795  0.00  0.00    +0.000 HD
ATOM     51  H   UNL     1      -8.216 -13.167  18.218  0.00  0.00    +0.000 HD
ATOM     52  H   UNL     1      -8.855 -10.918  18.998  0.00  0.00    +0.000 HD
ENDBRANCH  39  42
ENDBRANCH  34  39
ENDBRANCH  31  34
ENDBRANCH  30  31
ENDBRANCH   1  30
TORSDOF 8
ENDMDL
MODEL 2
REMARK VINA RESULT:   -11.024      2.112      3.949
REMARK INTER + INTRA:         -16.779
REMARK INTER:                 -15.877
REMARK INTRA:                  -0.903
REMARK UNBOUND:                -0.922
REMARK  Name = 
REMARK  8 active torsions:
REMARK  status: ('A' for Active; 'I' for Inactive)
REMARK    1  A    between atoms: N_1  and  C_2
REMARK    2  A    between atoms: C_2  and  C_3
REMARK    3  A    between atoms: C_2  and  C_25
REMARK    4  A    between atoms: C_3  and  O_4
REMARK    5  A    between atoms: O_4  and  C_5
REMARK    6  A    between atoms: C_9  and  C_10
REMARK    7  A    between atoms: C_13  and  C_14
REMARK    8  A    between atoms: C_25  and  C_26
REMARK                            x       y       z     vdW  Elec       q    Type
REMARK                         _______ _______ _______ _____ _____    ______ ____
ROOT
ATOM      1  C   UNL     1      -9.484  -7.800  17.156  0.00  0.00    +0.000 A 
ATOM      2  C   UNL     1     -10.692  -7.289  16.707  0.00  0.00    +0.000 A 
ATOM      3  N   UNL     1     -11.140  -6.042  16.983  0.00  0.00    +0.000 NA
ATOM      4  C   UNL     1     -10.331  -5.263  17.746  0.00  0.00    +0.000 A 
ATOM      5  C   UNL     1      -9.080  -5.639  18.236  0.00  0.00    +0.000 A 
ATOM      6  C   UNL     1      -8.683  -6.959  17.933  0.00  0.00    +0.000 A 
ATOM      7  H   UNL     1     -11.358  -7.899  16.100  0.00  0.00    +0.000 HD
ATOM      8  H   UNL     1     -10.771  -4.303  18.003  0.00  0.00    +0.000 HD
ATOM      9  H   UNL     1      -7.751  -7.317  18.359  0.00  0.00    +0.000 HD
ENDROOT
BRANCH   5  10
ATOM     10  C   UNL     1      -8.303  -4.786  19.171  0.00  0.00    +0.000 A 
ATOM     11  C   UNL     1      -8.848  -3.827  20.042  0.00  0.00    +0.000 A 
ATOM     12  C   UNL     1      -8.081  -3.504  21.182  0.00  0.00    +0.000 A 
ATOM     13  C   UNL     1      -8.105  -2.691  22.357  0.00  0.00    +0.000 A 
ATOM     14  N   UNL     1      -7.310  -3.221  23.308  0.00  0.00    +0.000 NA
ATOM     15  N   UNL     1      -6.444  -3.932  22.591  0.00  0.00    +0.000 N 
ATOM     16  C   UNL     1      -6.850  -4.137  21.313  0.00  0.00    +0.000 A 
ATOM     17  C   UNL     1      -6.244  -4.829  20.279  0.00  0.00    +0.000 A 
ATOM     18  N   UNL     1      -6.991  -5.161  19.216  0.00  0.00    +0.000 NA
ATOM     19  H   UNL     1      -9.877  -3.493  19.939  0.00  0.00    +0.000 HD
ATOM     20  H   UNL     1      -5.616  -4.284  23.061  0.00  0.00    +0.000 HD
ATOM     21  H   UNL     1      -5.219  -5.185  20.304  0.00  0.00    +0.000 HD
BRANCH  13  22
ATOM     22  C   UNL     1      -8.487  -1.263  22.595  0.00  0.00    +0.000 A 
ATOM     23  C   UNL     1      -9.528  -0.634  21.929  0.00  0.00    +0.000 A 
ATOM     24  C   UNL     1      -9.930   0.465  22.719  0.00  0.00    +0.000 A 
ATOM     25  C   UNL     1      -9.109   0.450  23.822  0.00  0.00    +0.000 A 
ATOM     26  O   UNL     1      -8.182  -0.546  23.723  0.00  0.00    +0.000 OA
ATOM     27  H   UNL     1     -10.010  -1.010  21.037  0.00  0.00    +0.000 HD
ATOM     28  H   UNL     1     -10.761   1.133  22.539  0.00  0.00    +0.000 HD
ATOM     29  H   UNL     1      -9.082   1.034  24.731  0.00  0.00    +0.000 HD
ENDBRANCH  13  22
ENDBRANCH   5  10
BRANCH   1  30
ATOM     30  O   UNL     1      -9.201  -9.090  16.801  0.00  0.00    +0.000 OA
BRANCH  30  31
ATOM     31  C   UNL     1     -10.190  -9.754  16.006  0.00  0.00    +0.000 C 
ATOM     32  H   UNL     1     -10.958  -9.020  15.738  0.00  0.00    +0.000 HD
ATOM     33  H   UNL     1     -10.644 -10.577  16.573  0.00  0.00    +0.000 HD
BRANCH  31  34
ATOM     34  C   UNL     1      -9.552 -10.329  14.719  0.00  0.00    +0.000 C 
ATOM     35  H   UNL     1     -10.282 -10.991  14.237  0.00  0.00    +0.000 HD
BRANCH  34  36
ATOM     36  N   UNL     1      -9.257  -9.257  13.747  0.00  0.00    +0.000 NA
ATOM     37  H   UNL     1      -9.541  -9.543  12.811  0.00  0.00    +0.000 HD
ATOM     38  H   UNL     1      -8.255  -9.076  13.713  0.00  0.00    +0.000 HD
ENDBRANCH  34  36
BRANCH  34  39
ATOM     39  C   UNL     1      -8.255 -11.107  15.049  0.00  0.00    +0.000 C 
ATOM     40  H   UNL     1      -7.605 -10.477  15.672  0.00  0.00    +0.000 HD
ATOM     41  H   UNL     1      -7.689 -11.306  14.130  0.00  0.00    +0.000 HD
BRANCH  39  42
ATOM     42  C   UNL     1      -8.489 -12.431  15.744  0.00  0.00    +0.000 A 
ATOM     43  C   UNL     1      -8.681 -13.604  15.001  0.00  0.00    +0.000 A 
ATOM     44  C   UNL     1      -8.923 -14.819  15.644  0.00  0.00    +0.000 A 
ATOM     45  C   UNL     1      -8.969 -14.875  17.036  0.00  0.00    +0.000 A 
ATOM     46  C   UNL     1      -8.772 -13.718  17.786  0.00  0.00    +0.000 A 
ATOM     47  C   UNL     1      -8.527 -12.502  17.144  0.00  0.00    +0.000 A 
ATOM     48  H   UNL     1      -8.644 -13.583  13.913  0.00  0.00    +0.000 HD
ATOM     49  H   UNL     1      -9.081 -15.720  15.058  0.00  0.00    +0.000 HD
ATOM     50  H   UNL     1      -9.164 -15.821  17.534  0.00  0.00    +0.000 HD
ATOM     51  H   UNL     1      -8.811 -13.761  18.872  0.00  0.00    +0.000 HD
ATOM     52  H   UNL     1      -8.373 -11.611  17.748  0.00  0.00    +0.000 HD
ENDBRANCH  39  42
ENDBRANCH  34  39
ENDBRANCH  31  34
ENDBRANCH  30  31
ENDBRANCH   1  30
TORSDOF 8
ENDMDL
MODEL 3
REMARK VINA RESULT:   -11.011      2.102      3.027
REMARK INTER + INTRA:         -16.761
REMARK INTER:                 -15.841
REMARK INTRA:                  -0.920
REMARK UNBOUND:                -0.922
REMARK  Name = 
REMARK  8 active torsions:
REMARK  status: ('A' for Active; 'I' for Inactive)
REMARK    1  A    between atoms: N_1  and  C_2
REMARK    2  A    between atoms: C_2  and  C_3
REMARK    3  A    between atoms: C_2  and  C_25
REMARK    4  A    between atoms: C_3  and  O_4
REMARK    5  A    between atoms: O_4  and  C_5
REMARK    6  A    between atoms: C_9  and  C_10
REMARK    7  A    between atoms: C_13  and  C_14
REMARK    8  A    between atoms: C_25  and  C_26
REMARK                            x       y       z     vdW  Elec       q    Type
REMARK                         _______ _______ _______ _____ _____    ______ ____
ROOT
ATOM      1  C   UNL     1      -8.977  -5.849  17.819  0.00  0.00    +0.000 A 
ATOM      2  C   UNL     1      -9.971  -5.147  17.154  0.00  0.00    +0.000 A 
ATOM      3  N   UNL     1     -10.445  -3.942  17.548  0.00  0.00    +0.000 NA
ATOM      4  C   UNL     1      -9.888  -3.409  18.666  0.00  0.00    +0.000 A 
ATOM      5  C   UNL     1      -8.862  -3.991  19.411  0.00  0.00    +0.000 A 
ATOM      6  C   UNL     1      -8.432  -5.257  18.961  0.00  0.00    +0.000 A 
ATOM      7  H   UNL     1     -10.435  -5.559  16.261  0.00  0.00    +0.000 HD
ATOM      8  H   UNL     1     -10.357  -2.481  18.982  0.00  0.00    +0.000 HD
ATOM      9  H   UNL     1      -7.689  -5.779  19.556  0.00  0.00    +0.000 HD
ENDROOT
BRANCH   5  10
ATOM     10  C   UNL     1      -8.388  -3.417  20.695  0.00  0.00    +0.000 A 
ATOM     11  C   UNL     1      -9.092  -2.488  21.481  0.00  0.00    +0.000 A 
ATOM     12  C   UNL     1      -8.769  -2.453  22.855  0.00  0.00    +0.000 A 
ATOM     13  C   UNL     1      -9.125  -1.801  24.075  0.00  0.00    +0.000 A 
ATOM     14  N   UNL     1      -8.815  -2.579  25.130  0.00  0.00    +0.000 NA
ATOM     15  N   UNL     1      -7.842  -3.345  24.643  0.00  0.00    +0.000 N 
ATOM     16  C   UNL     1      -7.766  -3.312  23.289  0.00  0.00    +0.000 A 
ATOM     17  C   UNL     1      -6.911  -3.971  22.422  0.00  0.00    +0.000 A 
ATOM     18  N   UNL     1      -7.246  -4.028  21.124  0.00  0.00    +0.000 NA
ATOM     19  H   UNL     1      -9.958  -1.960  21.090  0.00  0.00    +0.000 HD
ATOM     20  H   UNL     1      -7.299  -3.897  25.298  0.00  0.00    +0.000 HD
ATOM     21  H   UNL     1      -6.023  -4.510  22.736  0.00  0.00    +0.000 HD
BRANCH  13  22
ATOM     22  C   UNL     1      -9.385  -0.366  24.420  0.00  0.00    +0.000 A 
ATOM     23  C   UNL     1      -8.822   0.264  25.520  0.00  0.00    +0.000 A 
ATOM     24  C   UNL     1      -8.848   1.653  25.267  0.00  0.00    +0.000 A 
ATOM     25  C   UNL     1      -9.429   1.795  24.029  0.00  0.00    +0.000 A 
ATOM     26  O   UNL     1      -9.826   0.586  23.538  0.00  0.00    +0.000 OA
ATOM     27  H   UNL     1      -8.343  -0.242  26.346  0.00  0.00    +0.000 HD
ATOM     28  H   UNL     1      -8.427   2.439  25.879  0.00  0.00    +0.000 HD
ATOM     29  H   UNL     1      -9.593   2.646  23.383  0.00  0.00    +0.000 HD
ENDBRANCH  13  22
ENDBRANCH   5  10
BRANCH   1  30
ATOM     30  O   UNL     1      -8.638  -7.064  17.293  0.00  0.00    +0.000 OA
BRANCH  30  31
ATOM     31  C   UNL     1      -9.250  -7.403  16.044  0.00  0.00    +0.000 C 
ATOM     32  H   UNL     1      -8.453  -7.557  15.308  0.00  0.00    +0.000 HD
ATOM     33  H   UNL     1      -9.911  -6.592  15.711  0.00  0.00    +0.000 HD
BRANCH  31  34
ATOM     34  C   UNL     1     -10.084  -8.698  16.184  0.00  0.00    +0.000 C 
ATOM     35  H   UNL     1     -10.017  -9.043  17.222  0.00  0.00    +0.000 HD
BRANCH  34  36
ATOM     36  N   UNL     1     -11.515  -8.441  15.922  0.00  0.00    +0.000 NA
ATOM     37  H   UNL     1     -11.750  -7.481  16.171  0.00  0.00    +0.000 HD
ATOM     38  H   UNL     1     -12.095  -9.049  16.499  0.00  0.00    +0.000 HD
ENDBRANCH  34  36
BRANCH  34  39
ATOM     39  C   UNL     1      -9.565  -9.792  15.218  0.00  0.00    +0.000 C 
ATOM     40  H   UNL     1      -8.708  -9.399  14.655  0.00  0.00    +0.000 HD
ATOM     41  H   UNL     1     -10.332 -10.030  14.470  0.00  0.00    +0.000 HD
BRANCH  39  42
ATOM     42  C   UNL     1      -9.170 -11.082  15.903  0.00  0.00    +0.000 A 
ATOM     43  C   UNL     1      -9.174 -11.179  17.301  0.00  0.00    +0.000 A 
ATOM     44  C   UNL     1      -8.784 -12.363  17.931  0.00  0.00    +0.000 A 
ATOM     45  C   UNL     1      -8.393 -13.463  17.169  0.00  0.00    +0.000 A 
ATOM     46  C   UNL     1      -8.393 -13.381  15.778  0.00  0.00    +0.000 A 
ATOM     47  C   UNL     1      -8.785 -12.199  15.148  0.00  0.00    +0.000 A 
ATOM     48  H   UNL     1      -9.480 -10.334  17.914  0.00  0.00    +0.000 HD
ATOM     49  H   UNL     1      -8.779 -12.424  19.016  0.00  0.00    +0.000 HD
ATOM     50  H   UNL     1      -8.084 -14.381  17.661  0.00  0.00    +0.000 HD
ATOM     51  H   UNL     1      -8.085 -14.239  15.184  0.00  0.00    +0.000 HD
ATOM     52  H   UNL     1      -8.781 -12.158  14.061  0.00  0.00    +0.000 HD
ENDBRANCH  39  42
ENDBRANCH  34  39
ENDBRANCH  31  34
ENDBRANCH  30  31
ENDBRANCH   1  30
TORSDOF 8
ENDMDL
MODEL 4
REMARK VINA RESULT:   -10.904      2.183      9.856
REMARK INTER + INTRA:         -16.607
REMARK INTER:                 -15.683
REMARK INTRA:                  -0.925
REMARK UNBOUND:                -0.922
REMARK  Name = 
REMARK  8 active torsions:
REMARK  status: ('A' for Active; 'I' for Inactive)
REMARK    1  A    between atoms: N_1  and  C_2
REMARK    2  A    between atoms: C_2  and  C_3
REMARK    3  A    between atoms: C_2  and  C_25
REMARK    4  A    between atoms: C_3  and  O_4
REMARK    5  A    between atoms: O_4  and  C_5
REMARK    6  A    between atoms: C_9  and  C_10
REMARK    7  A    between atoms: C_13  and  C_14
REMARK    8  A    between atoms: C_25  and  C_26
REMARK                            x       y       z     vdW  Elec       q    Type
REMARK                         _______ _______ _______ _____ _____    ______ ____
ROOT
ATOM      1  C   UNL     1      -7.638  -4.332  21.017  0.00  0.00    +0.000 A 
ATOM      2  C   UNL     1      -6.254  -4.354  21.095  0.00  0.00    +0.000 A 
ATOM      3  N   UNL     1      -5.452  -4.992  20.211  0.00  0.00    +0.000 NA
ATOM      4  C   UNL     1      -6.071  -5.638  19.189  0.00  0.00    +0.000 A 
ATOM      5  C   UNL     1      -7.448  -5.670  18.974  0.00  0.00    +0.000 A 
ATOM      6  C   UNL     1      -8.228  -5.007  19.945  0.00  0.00    +0.000 A 
ATOM      7  H   UNL     1      -5.739  -3.848  21.909  0.00  0.00    +0.000 HD
ATOM      8  H   UNL     1      -5.388  -6.198  18.555  0.00  0.00    +0.000 HD
ATOM      9  H   UNL     1      -9.308  -5.072  19.857  0.00  0.00    +0.000 HD
ENDROOT
BRANCH   5  10
ATOM     10  C   UNL     1      -8.068  -6.502  17.912  0.00  0.00    +0.000 A 
ATOM     11  C   UNL     1      -8.343  -7.877  18.011  0.00  0.00    +0.000 A 
ATOM     12  C   UNL     1      -9.364  -8.376  17.173  0.00  0.00    +0.000 A 
ATOM     13  C   UNL     1     -10.067  -9.579  16.855  0.00  0.00    +0.000 A 
ATOM     14  N   UNL     1     -11.280  -9.291  16.344  0.00  0.00    +0.000 NA
ATOM     15  N   UNL     1     -11.098  -8.069  15.850  0.00  0.00    +0.000 N 
ATOM     16  C   UNL     1      -9.971  -7.471  16.310  0.00  0.00    +0.000 A 
ATOM     17  C   UNL     1      -9.449  -6.216  16.046  0.00  0.00    +0.000 A 
ATOM     18  N   UNL     1      -8.505  -5.737  16.869  0.00  0.00    +0.000 NA
ATOM     19  H   UNL     1      -7.923  -8.480  18.812  0.00  0.00    +0.000 HD
ATOM     20  H   UNL     1     -11.814  -7.694  15.238  0.00  0.00    +0.000 HD
ATOM     21  H   UNL     1      -9.809  -5.562  15.258  0.00  0.00    +0.000 HD
BRANCH  13  22
ATOM     22  C   UNL     1      -9.613 -10.986  16.616  0.00  0.00    +0.000 A 
ATOM     23  C   UNL     1      -9.115 -11.427  15.399  0.00  0.00    +0.000 A 
ATOM     24  C   UNL     1      -8.339 -12.578  15.654  0.00  0.00    +0.000 A 
ATOM     25  C   UNL     1      -8.408 -12.780  17.012  0.00  0.00    +0.000 A 
ATOM     26  O   UNL     1      -9.237 -11.867  17.596  0.00  0.00    +0.000 OA
ATOM     27  H   UNL     1      -9.211 -10.897  14.461  0.00  0.00    +0.000 HD
ATOM     28  H   UNL     1      -7.746 -13.140  14.945  0.00  0.00    +0.000 HD
ATOM     29  H   UNL     1      -7.924 -13.477  17.682  0.00  0.00    +0.000 HD
ENDBRANCH  13  22
ENDBRANCH   5  10
BRANCH   1  30
ATOM     30  O   UNL     1      -8.291  -3.658  22.010  0.00  0.00    +0.000 OA
BRANCH  30  31
ATOM     31  C   UNL     1      -7.536  -3.405  23.201  0.00  0.00    +0.000 C 
ATOM     32  H   UNL     1      -7.237  -2.351  23.194  0.00  0.00    +0.000 HD
ATOM     33  H   UNL     1      -6.645  -4.044  23.230  0.00  0.00    +0.000 HD
BRANCH  31  34
ATOM     34  C   UNL     1      -8.394  -3.691  24.456  0.00  0.00    +0.000 C 
ATOM     35  H   UNL     1      -9.251  -4.307  24.158  0.00  0.00    +0.000 HD
BRANCH  34  36
ATOM     36  N   UNL     1      -7.638  -4.482  25.449  0.00  0.00    +0.000 NA
ATOM     37  H   UNL     1      -6.642  -4.278  25.375  0.00  0.00    +0.000 HD
ATOM     38  H   UNL     1      -7.753  -5.478  25.268  0.00  0.00    +0.000 HD
ENDBRANCH  34  36
BRANCH  34  39
ATOM     39  C   UNL     1      -8.880  -2.370  25.102  0.00  0.00    +0.000 C 
ATOM     40  H   UNL     1      -8.008  -1.777  25.410  0.00  0.00    +0.000 HD
ATOM     41  H   UNL     1      -9.439  -2.583  26.022  0.00  0.00    +0.000 HD
BRANCH  39  42
ATOM     42  C   UNL     1      -9.767  -1.535  24.204  0.00  0.00    +0.000 A 
ATOM     43  C   UNL     1     -10.929  -2.079  23.641  0.00  0.00    +0.000 A 
ATOM     44  C   UNL     1     -11.731  -1.313  22.792  0.00  0.00    +0.000 A 
ATOM     45  C   UNL     1     -11.383   0.005  22.504  0.00  0.00    +0.000 A 
ATOM     46  C   UNL     1     -10.234   0.560  23.064  0.00  0.00    +0.000 A 
ATOM     47  C   UNL     1      -9.433  -0.204  23.915  0.00  0.00    +0.000 A 
ATOM     48  H   UNL     1     -11.221  -3.105  23.856  0.00  0.00    +0.000 HD
ATOM     49  H   UNL     1     -12.623  -1.749  22.351  0.00  0.00    +0.000 HD
ATOM     50  H   UNL     1     -12.005   0.597  21.838  0.00  0.00    +0.000 HD
ATOM     51  H   UNL     1      -9.961   1.588  22.837  0.00  0.00    +0.000 HD
ATOM     52  H   UNL     1      -8.542   0.250  24.344  0.00  0.00    +0.000 HD
ENDBRANCH  39  42
ENDBRANCH  34  39
ENDBRANCH  31  34
ENDBRANCH  30  31
ENDBRANCH   1  30
TORSDOF 8
ENDMDL
MODEL 5
REMARK VINA RESULT:   -10.733      2.430     10.176
REMARK INTER + INTRA:         -16.361
REMARK INTER:                 -15.360
REMARK INTRA:                  -1.001
REMARK UNBOUND:                -0.922
REMARK  Name = 
REMARK  8 active torsions:
REMARK  status: ('A' for Active; 'I' for Inactive)
REMARK    1  A    between atoms: N_1  and  C_2
REMARK    2  A    between atoms: C_2  and  C_3
REMARK    3  A    between atoms: C_2  and  C_25
REMARK    4  A    between atoms: C_3  and  O_4
REMARK    5  A    between atoms: O_4  and  C_5
REMARK    6  A    between atoms: C_9  and  C_10
REMARK    7  A    between atoms: C_13  and  C_14
REMARK    8  A    between atoms: C_25  and  C_26
REMARK                            x       y       z     vdW  Elec       q    Type
REMARK                         _______ _______ _______ _____ _____    ______ ____
ROOT
ATOM      1  C   UNL     1      -7.877  -3.928  20.684  0.00  0.00    +0.000 A 
ATOM      2  C   UNL     1      -6.576  -4.210  21.069  0.00  0.00    +0.000 A 
ATOM      3  N   UNL     1      -5.788  -5.135  20.471  0.00  0.00    +0.000 NA
ATOM      4  C   UNL     1      -6.334  -5.810  19.427  0.00  0.00    +0.000 A 
ATOM      5  C   UNL     1      -7.616  -5.604  18.917  0.00  0.00    +0.000 A 
ATOM      6  C   UNL     1      -8.392  -4.644  19.600  0.00  0.00    +0.000 A 
ATOM      7  H   UNL     1      -6.122  -3.686  21.907  0.00  0.00    +0.000 HD
ATOM      8  H   UNL     1      -5.691  -6.593  19.035  0.00  0.00    +0.000 HD
ATOM      9  H   UNL     1      -9.422  -4.508  19.283  0.00  0.00    +0.000 HD
ENDROOT
BRANCH   5  10
ATOM     10  C   UNL     1      -8.197  -6.465  17.856  0.00  0.00    +0.000 A 
ATOM     11  C   UNL     1      -8.444  -7.844  17.971  0.00  0.00    +0.000 A 
ATOM     12  C   UNL     1      -9.437  -8.378  17.122  0.00  0.00    +0.000 A 
ATOM     13  C   UNL     1     -10.108  -9.601  16.810  0.00  0.00    +0.000 A 
ATOM     14  N   UNL     1     -11.317  -9.348  16.272  0.00  0.00    +0.000 NA
ATOM     15  N   UNL     1     -11.152  -8.129  15.762  0.00  0.00    +0.000 N 
ATOM     16  C   UNL     1     -10.048  -7.499  16.235  0.00  0.00    +0.000 A 
ATOM     17  C   UNL     1      -9.549  -6.237  15.961  0.00  0.00    +0.000 A 
ATOM     18  N   UNL     1      -8.631  -5.725  16.794  0.00  0.00    +0.000 NA
ATOM     19  H   UNL     1      -8.026  -8.425  18.788  0.00  0.00    +0.000 HD
ATOM     20  H   UNL     1     -11.865  -7.779  15.132  0.00  0.00    +0.000 HD
ATOM     21  H   UNL     1      -9.908  -5.602  15.157  0.00  0.00    +0.000 HD
BRANCH  13  22
ATOM     22  C   UNL     1      -9.618 -11.001  16.600  0.00  0.00    +0.000 A 
ATOM     23  C   UNL     1      -9.031 -11.431  15.419  0.00  0.00    +0.000 A 
ATOM     24  C   UNL     1      -8.258 -12.572  15.726  0.00  0.00    +0.000 A 
ATOM     25  C   UNL     1      -8.420 -12.779  17.076  0.00  0.00    +0.000 A 
ATOM     26  O   UNL     1      -9.299 -11.880  17.602  0.00  0.00    +0.000 OA
ATOM     27  H   UNL     1      -9.069 -10.900  14.478  0.00  0.00    +0.000 HD
ATOM     28  H   UNL     1      -7.610 -13.124  15.059  0.00  0.00    +0.000 HD
ATOM     29  H   UNL     1      -7.973 -13.471  17.776  0.00  0.00    +0.000 HD
ENDBRANCH  13  22
ENDBRANCH   5  10
BRANCH   1  30
ATOM     30  O   UNL     1      -8.534  -2.978  21.415  0.00  0.00    +0.000 OA
BRANCH  30  31
ATOM     31  C   UNL     1      -9.471  -2.168  20.698  0.00  0.00    +0.000 C 
ATOM     32  H   UNL     1      -9.837  -2.749  19.844  0.00  0.00    +0.000 HD
ATOM     33  H   UNL     1      -8.987  -1.250  20.342  0.00  0.00    +0.000 HD
BRANCH  31  34
ATOM     34  C   UNL     1     -10.661  -1.781  21.609  0.00  0.00    +0.000 C 
ATOM     35  H   UNL     1     -10.840  -0.704  21.507  0.00  0.00    +0.000 HD
BRANCH  34  36
ATOM     36  N   UNL     1     -11.904  -2.452  21.175  0.00  0.00    +0.000 NA
ATOM     37  H   UNL     1     -12.124  -2.195  20.214  0.00  0.00    +0.000 HD
ATOM     38  H   UNL     1     -12.688  -2.152  21.752  0.00  0.00    +0.000 HD
ENDBRANCH  34  36
BRANCH  34  39
ATOM     39  C   UNL     1     -10.361  -2.141  23.085  0.00  0.00    +0.000 C 
ATOM     40  H   UNL     1      -9.662  -2.988  23.115  0.00  0.00    +0.000 HD
ATOM     41  H   UNL     1     -11.276  -2.489  23.582  0.00  0.00    +0.000 HD
BRANCH  39  42
ATOM     42  C   UNL     1      -9.800  -0.994  23.897  0.00  0.00    +0.000 A 
ATOM     43  C   UNL     1      -9.234  -1.223  25.159  0.00  0.00    +0.000 A 
ATOM     44  C   UNL     1      -8.740  -0.159  25.917  0.00  0.00    +0.000 A 
ATOM     45  C   UNL     1      -8.802   1.141  25.419  0.00  0.00    +0.000 A 
ATOM     46  C   UNL     1      -9.356   1.380  24.164  0.00  0.00    +0.000 A 
ATOM     47  C   UNL     1      -9.847   0.317  23.403  0.00  0.00    +0.000 A 
ATOM     48  H   UNL     1      -9.171  -2.231  25.564  0.00  0.00    +0.000 HD
ATOM     49  H   UNL     1      -8.313  -0.346  26.899  0.00  0.00    +0.000 HD
ATOM     50  H   UNL     1      -8.424   1.968  26.014  0.00  0.00    +0.000 HD
ATOM     51  H   UNL     1      -9.407   2.395  23.776  0.00  0.00    +0.000 HD
ATOM     52  H   UNL     1     -10.273   0.525  22.424  0.00  0.00    +0.000 HD
ENDBRANCH  39  42
ENDBRANCH  34  39
ENDBRANCH  31  34
ENDBRANCH  30  31
ENDBRANCH   1  30
TORSDOF 8
ENDMDL
MODEL 6
REMARK VINA RESULT:   -10.521      1.930      2.464
REMARK INTER + INTRA:         -16.056
REMARK INTER:                 -15.256
REMARK INTRA:                  -0.801
REMARK UNBOUND:                -0.922
REMARK  Name = 
REMARK  8 active torsions:
REMARK  status: ('A' for Active; 'I' for Inactive)
REMARK    1  A    between atoms: N_1  and  C_2
REMARK    2  A    between atoms: C_2  and  C_3
REMARK    3  A    between atoms: C_2  and  C_25
REMARK    4  A    between atoms: C_3  and  O_4
REMARK    5  A    between atoms: O_4  and  C_5
REMARK    6  A    between atoms: C_9  and  C_10
REMARK    7  A    between atoms: C_13  and  C_14
REMARK    8  A    between atoms: C_25  and  C_26
REMARK                            x       y       z     vdW  Elec       q    Type
REMARK                         _______ _______ _______ _____ _____    ______ ____
ROOT
ATOM      1  C   UNL     1      -6.499  -5.283  20.230  0.00  0.00    +0.000 A 
ATOM      2  C   UNL     1      -5.154  -4.944  20.232  0.00  0.00    +0.000 A 
ATOM      3  N   UNL     1      -4.621  -3.949  20.980  0.00  0.00    +0.000 NA
ATOM      4  C   UNL     1      -5.482  -3.260  21.772  0.00  0.00    +0.000 A 
ATOM      5  C   UNL     1      -6.848  -3.516  21.890  0.00  0.00    +0.000 A 
ATOM      6  C   UNL     1      -7.343  -4.549  21.067  0.00  0.00    +0.000 A 
ATOM      7  H   UNL     1      -4.449  -5.479  19.600  0.00  0.00    +0.000 HD
ATOM      8  H   UNL     1      -5.018  -2.424  22.290  0.00  0.00    +0.000 HD
ATOM      9  H   UNL     1      -8.414  -4.729  21.072  0.00  0.00    +0.000 HD
ENDROOT
BRANCH   5  10
ATOM     10  C   UNL     1      -7.754  -2.642  22.677  0.00  0.00    +0.000 A 
ATOM     11  C   UNL     1      -7.673  -1.241  22.752  0.00  0.00    +0.000 A 
ATOM     12  C   UNL     1      -8.863  -0.558  23.085  0.00  0.00    +0.000 A 
ATOM     13  C   UNL     1      -9.386   0.758  23.275  0.00  0.00    +0.000 A 
ATOM     14  N   UNL     1     -10.718   0.767  23.071  0.00  0.00    +0.000 NA
ATOM     15  N   UNL     1     -11.052  -0.497  23.321  0.00  0.00    +0.000 N 
ATOM     16  C   UNL     1      -9.986  -1.336  23.340  0.00  0.00    +0.000 A 
ATOM     17  C   UNL     1      -9.924  -2.704  23.548  0.00  0.00    +0.000 A 
ATOM     18  N   UNL     1      -8.802  -3.348  23.195  0.00  0.00    +0.000 NA
ATOM     19  H   UNL     1      -6.795  -0.708  22.397  0.00  0.00    +0.000 HD
ATOM     20  H   UNL     1     -12.037  -0.716  23.422  0.00  0.00    +0.000 HD
ATOM     21  H   UNL     1     -10.755  -3.302  23.910  0.00  0.00    +0.000 HD
BRANCH  13  22
ATOM     22  C   UNL     1      -8.862   1.963  23.995  0.00  0.00    +0.000 A 
ATOM     23  C   UNL     1      -8.032   1.885  25.102  0.00  0.00    +0.000 A 
ATOM     24  C   UNL     1      -7.344   3.115  25.199  0.00  0.00    +0.000 A 
ATOM     25  C   UNL     1      -7.796   3.878  24.148  0.00  0.00    +0.000 A 
ATOM     26  O   UNL     1      -8.769   3.220  23.455  0.00  0.00    +0.000 OA
ATOM     27  H   UNL     1      -7.863   0.993  25.690  0.00  0.00    +0.000 HD
ATOM     28  H   UNL     1      -6.566   3.377  25.903  0.00  0.00    +0.000 HD
ATOM     29  H   UNL     1      -7.513   4.847  23.764  0.00  0.00    +0.000 HD
ENDBRANCH  13  22
ENDBRANCH   5  10
BRANCH   1  30
ATOM     30  O   UNL     1      -6.866  -6.301  19.396  0.00  0.00    +0.000 OA
BRANCH  30  31
ATOM     31  C   UNL     1      -8.265  -6.605  19.352  0.00  0.00    +0.000 C 
ATOM     32  H   UNL     1      -8.685  -6.136  18.456  0.00  0.00    +0.000 HD
ATOM     33  H   UNL     1      -8.768  -6.215  20.246  0.00  0.00    +0.000 HD
BRANCH  31  34
ATOM     34  C   UNL     1      -8.483  -8.135  19.286  0.00  0.00    +0.000 C 
ATOM     35  H   UNL     1      -7.531  -8.610  19.021  0.00  0.00    +0.000 HD
BRANCH  34  36
ATOM     36  N   UNL     1      -8.864  -8.676  20.608  0.00  0.00    +0.000 NA
ATOM     37  H   UNL     1      -8.058  -9.108  21.056  0.00  0.00    +0.000 HD
ATOM     38  H   UNL     1      -9.572  -9.401  20.502  0.00  0.00    +0.000 HD
ENDBRANCH  34  36
BRANCH  34  39
ATOM     39  C   UNL     1      -9.571  -8.490  18.243  0.00  0.00    +0.000 C 
ATOM     40  H   UNL     1      -9.722  -7.632  17.573  0.00  0.00    +0.000 HD
ATOM     41  H   UNL     1     -10.535  -8.654  18.743  0.00  0.00    +0.000 HD
BRANCH  39  42
ATOM     42  C   UNL     1      -9.260  -9.723  17.423  0.00  0.00    +0.000 A 
ATOM     43  C   UNL     1      -8.865 -10.915  18.046  0.00  0.00    +0.000 A 
ATOM     44  C   UNL     1      -8.553 -12.043  17.284  0.00  0.00    +0.000 A 
ATOM     45  C   UNL     1      -8.640 -11.993  15.893  0.00  0.00    +0.000 A 
ATOM     46  C   UNL     1      -9.039 -10.816  15.264  0.00  0.00    +0.000 A 
ATOM     47  C   UNL     1      -9.354  -9.688  16.024  0.00  0.00    +0.000 A 
ATOM     48  H   UNL     1      -8.795 -10.977  19.129  0.00  0.00    +0.000 HD
ATOM     49  H   UNL     1      -8.237 -12.958  17.776  0.00  0.00    +0.000 HD
ATOM     50  H   UNL     1      -8.391 -12.870  15.303  0.00  0.00    +0.000 HD
ATOM     51  H   UNL     1      -9.104 -10.776  14.179  0.00  0.00    +0.000 HD
ATOM     52  H   UNL     1      -9.666  -8.781  15.512  0.00  0.00    +0.000 HD
ENDBRANCH  39  42
ENDBRANCH  34  39
ENDBRANCH  31  34
ENDBRANCH  30  31
ENDBRANCH   1  30
TORSDOF 8
ENDMDL
MODEL 7
REMARK VINA RESULT:   -10.278      1.721      2.164
REMARK INTER + INTRA:         -15.707
REMARK INTER:                 -14.890
REMARK INTRA:                  -0.817
REMARK UNBOUND:                -0.922
REMARK  Name = 
REMARK  8 active torsions:
REMARK  status: ('A' for Active; 'I' for Inactive)
REMARK    1  A    between atoms: N_1  and  C_2
REMARK    2  A    between atoms: C_2  and  C_3
REMARK    3  A    between atoms: C_2  and  C_25
REMARK    4  A    between atoms: C_3  and  O_4
REMARK    5  A    between atoms: O_4  and  C_5
REMARK    6  A    between atoms: C_9  and  C_10
REMARK    7  A    between atoms: C_13  and  C_14
REMARK    8  A    between atoms: C_25  and  C_26
REMARK                            x       y       z     vdW  Elec       q    Type
REMARK                         _______ _______ _______ _____ _____    ______ ____
ROOT
ATOM      1  C   UNL     1      -9.003  -5.858  18.105  0.00  0.00    +0.000 A 
ATOM      2  C   UNL     1      -7.845  -6.621  18.080  0.00  0.00    +0.000 A 
ATOM      3  N   UNL     1      -6.776  -6.407  18.883  0.00  0.00    +0.000 NA
ATOM      4  C   UNL     1      -6.875  -5.375  19.761  0.00  0.00    +0.000 A 
ATOM      5  C   UNL     1      -7.990  -4.551  19.912  0.00  0.00    +0.000 A 
ATOM      6  C   UNL     1      -9.060  -4.812  19.030  0.00  0.00    +0.000 A 
ATOM      7  H   UNL     1      -7.743  -7.447  17.380  0.00  0.00    +0.000 HD
ATOM      8  H   UNL     1      -5.963  -5.198  20.324  0.00  0.00    +0.000 HD
ATOM      9  H   UNL     1      -9.916  -4.145  19.063  0.00  0.00    +0.000 HD
ENDROOT
BRANCH   5  10
ATOM     10  C   UNL     1      -7.984  -3.362  20.801  0.00  0.00    +0.000 A 
ATOM     11  C   UNL     1      -9.034  -2.437  20.930  0.00  0.00    +0.000 A 
ATOM     12  C   UNL     1      -9.090  -1.712  22.140  0.00  0.00    +0.000 A 
ATOM     13  C   UNL     1      -9.868  -0.728  22.825  0.00  0.00    +0.000 A 
ATOM     14  N   UNL     1      -9.695  -0.838  24.157  0.00  0.00    +0.000 NA
ATOM     15  N   UNL     1      -8.498  -1.415  24.241  0.00  0.00    +0.000 N 
ATOM     16  C   UNL     1      -8.085  -1.957  23.069  0.00  0.00    +0.000 A 
ATOM     17  C   UNL     1      -6.923  -2.645  22.758  0.00  0.00    +0.000 A 
ATOM     18  N   UNL     1      -6.895  -3.359  21.624  0.00  0.00    +0.000 NA
ATOM     19  H   UNL     1      -9.856  -2.413  20.219  0.00  0.00    +0.000 HD
ATOM     20  H   UNL     1      -8.046  -1.439  25.149  0.00  0.00    +0.000 HD
ATOM     21  H   UNL     1      -6.059  -2.704  23.412  0.00  0.00    +0.000 HD
BRANCH  13  22
ATOM     22  C   UNL     1     -10.482   0.565  22.386  0.00  0.00    +0.000 A 
ATOM     23  C   UNL     1     -10.480   1.711  23.167  0.00  0.00    +0.000 A 
ATOM     24  C   UNL     1     -10.654   2.811  22.299  0.00  0.00    +0.000 A 
ATOM     25  C   UNL     1     -10.757   2.277  21.037  0.00  0.00    +0.000 A 
ATOM     26  O   UNL     1     -10.729   0.915  21.083  0.00  0.00    +0.000 OA
ATOM     27  H   UNL     1     -10.255   1.740  24.224  0.00  0.00    +0.000 HD
ATOM     28  H   UNL     1     -10.630   3.861  22.559  0.00  0.00    +0.000 HD
ATOM     29  H   UNL     1     -10.820   2.717  20.051  0.00  0.00    +0.000 HD
ENDBRANCH  13  22
ENDBRANCH   5  10
BRANCH   1  30
ATOM     30  O   UNL     1      -9.975  -6.202  17.207  0.00  0.00    +0.000 OA
BRANCH  30  31
ATOM     31  C   UNL     1      -9.549  -6.987  16.089  0.00  0.00    +0.000 C 
ATOM     32  H   UNL     1      -8.453  -7.004  16.085  0.00  0.00    +0.000 HD
ATOM     33  H   UNL     1      -9.917  -6.549  15.153  0.00  0.00    +0.000 HD
BRANCH  31  34
ATOM     34  C   UNL     1     -10.087  -8.433  16.207  0.00  0.00    +0.000 C 
ATOM     35  H   UNL     1     -10.003  -8.750  17.254  0.00  0.00    +0.000 HD
BRANCH  34  36
ATOM     36  N   UNL     1     -11.524  -8.495  15.868  0.00  0.00    +0.000 NA
ATOM     37  H   UNL     1     -12.073  -8.013  16.579  0.00  0.00    +0.000 HD
ATOM     38  H   UNL     1     -11.842  -9.463  15.850  0.00  0.00    +0.000 HD
ENDBRANCH  34  36
BRANCH  34  39
ATOM     39  C   UNL     1      -9.292  -9.392  15.288  0.00  0.00    +0.000 C 
ATOM     40  H   UNL     1      -8.355  -8.905  14.983  0.00  0.00    +0.000 HD
ATOM     41  H   UNL     1      -9.850  -9.577  14.361  0.00  0.00    +0.000 HD
BRANCH  39  42
ATOM     42  C   UNL     1      -8.982 -10.733  15.917  0.00  0.00    +0.000 A 
ATOM     43  C   UNL     1      -8.691 -11.847  15.117  0.00  0.00    +0.000 A 
ATOM     44  C   UNL     1      -8.431 -13.089  15.700  0.00  0.00    +0.000 A 
ATOM     45  C   UNL     1      -8.452 -13.228  17.086  0.00  0.00    +0.000 A 
ATOM     46  C   UNL     1      -8.733 -12.127  17.892  0.00  0.00    +0.000 A 
ATOM     47  C   UNL     1      -8.990 -10.884  17.311  0.00  0.00    +0.000 A 
ATOM     48  H   UNL     1      -8.665 -11.759  14.033  0.00  0.00    +0.000 HD
ATOM     49  H   UNL     1      -8.218 -13.949  15.070  0.00  0.00    +0.000 HD
ATOM     50  H   UNL     1      -8.256 -14.197  17.537  0.00  0.00    +0.000 HD
ATOM     51  H   UNL     1      -8.752 -12.236  18.974  0.00  0.00    +0.000 HD
ATOM     52  H   UNL     1      -9.203 -10.036  17.958  0.00  0.00    +0.000 HD
ENDBRANCH  39  42
ENDBRANCH  34  39
ENDBRANCH  31  34
ENDBRANCH  30  31
ENDBRANCH   1  30
TORSDOF 8
ENDMDL
MODEL 8
REMARK VINA RESULT:   -10.233      3.296      4.353
REMARK INTER + INTRA:         -15.642
REMARK INTER:                 -14.713
REMARK INTRA:                  -0.929
REMARK UNBOUND:                -0.922
REMARK  Name = 
REMARK  8 active torsions:
REMARK  status: ('A' for Active; 'I' for Inactive)
REMARK    1  A    between atoms: N_1  and  C_2
REMARK    2  A    between atoms: C_2  and  C_3
REMARK    3  A    between atoms: C_2  and  C_25
REMARK    4  A    between atoms: C_3  and  O_4
REMARK    5  A    between atoms: O_4  and  C_5
REMARK    6  A    between atoms: C_9  and  C_10
REMARK    7  A    between atoms: C_13  and  C_14
REMARK    8  A    between atoms: C_25  and  C_26
REMARK                            x       y       z     vdW  Elec       q    Type
REMARK                         _______ _______ _______ _____ _____    ______ ____
ROOT
ATOM      1  C   UNL     1      -9.972  -5.373  16.874  0.00  0.00    +0.000 A 
ATOM      2  C   UNL     1     -10.631  -5.108  15.683  0.00  0.00    +0.000 A 
ATOM      3  N   UNL     1     -11.350  -3.986  15.445  0.00  0.00    +0.000 NA
ATOM      4  C   UNL     1     -11.408  -3.079  16.453  0.00  0.00    +0.000 A 
ATOM      5  C   UNL     1     -10.768  -3.204  17.687  0.00  0.00    +0.000 A 
ATOM      6  C   UNL     1     -10.056  -4.406  17.879  0.00  0.00    +0.000 A 
ATOM      7  H   UNL     1     -10.604  -5.825  14.865  0.00  0.00    +0.000 HD
ATOM      8  H   UNL     1     -12.060  -2.236  16.240  0.00  0.00    +0.000 HD
ATOM      9  H   UNL     1      -9.607  -4.578  18.853  0.00  0.00    +0.000 HD
ENDROOT
BRANCH   5  10
ATOM     10  C   UNL     1     -10.977  -2.235  18.792  0.00  0.00    +0.000 A 
ATOM     11  C   UNL     1     -10.545  -2.408  20.119  0.00  0.00    +0.000 A 
ATOM     12  C   UNL     1     -10.355  -1.232  20.877  0.00  0.00    +0.000 A 
ATOM     13  C   UNL     1      -9.937  -0.784  22.167  0.00  0.00    +0.000 A 
ATOM     14  N   UNL     1      -9.479   0.482  22.099  0.00  0.00    +0.000 NA
ATOM     15  N   UNL     1     -10.105   0.952  21.022  0.00  0.00    +0.000 N 
ATOM     16  C   UNL     1     -10.646  -0.025  20.252  0.00  0.00    +0.000 A 
ATOM     17  C   UNL     1     -11.352   0.058  19.063  0.00  0.00    +0.000 A 
ATOM     18  N   UNL     1     -11.496  -1.059  18.334  0.00  0.00    +0.000 NA
ATOM     19  H   UNL     1     -10.203  -3.374  20.479  0.00  0.00    +0.000 HD
ATOM     20  H   UNL     1     -10.078   1.952  20.857  0.00  0.00    +0.000 HD
ATOM     21  H   UNL     1     -11.733   0.984  18.645  0.00  0.00    +0.000 HD
BRANCH  13  22
ATOM     22  C   UNL     1     -10.250  -1.254  23.555  0.00  0.00    +0.000 A 
ATOM     23  C   UNL     1     -11.196  -2.230  23.830  0.00  0.00    +0.000 A 
ATOM     24  C   UNL     1     -10.882  -2.774  25.095  0.00  0.00    +0.000 A 
ATOM     25  C   UNL     1      -9.764  -2.097  25.524  0.00  0.00    +0.000 A 
ATOM     26  O   UNL     1      -9.416  -1.124  24.635  0.00  0.00    +0.000 OA
ATOM     27  H   UNL     1     -11.946  -2.580  23.135  0.00  0.00    +0.000 HD
ATOM     28  H   UNL     1     -11.367  -3.604  25.591  0.00  0.00    +0.000 HD
ATOM     29  H   UNL     1      -9.117  -2.209  26.383  0.00  0.00    +0.000 HD
ENDBRANCH  13  22
ENDBRANCH   5  10
BRANCH   1  30
ATOM     30  O   UNL     1      -9.312  -6.568  16.949  0.00  0.00    +0.000 OA
BRANCH  30  31
ATOM     31  C   UNL     1      -9.328  -7.371  15.763  0.00  0.00    +0.000 C 
ATOM     32  H   UNL     1      -8.290  -7.548  15.461  0.00  0.00    +0.000 HD
ATOM     33  H   UNL     1      -9.866  -6.853  14.959  0.00  0.00    +0.000 HD
BRANCH  31  34
ATOM     34  C   UNL     1     -10.026  -8.725  16.037  0.00  0.00    +0.000 C 
ATOM     35  H   UNL     1      -9.862  -8.993  17.087  0.00  0.00    +0.000 HD
BRANCH  34  36
ATOM     36  N   UNL     1     -11.489  -8.615  15.859  0.00  0.00    +0.000 NA
ATOM     37  H   UNL     1     -11.964  -9.331  16.406  0.00  0.00    +0.000 HD
ATOM     38  H   UNL     1     -11.739  -8.768  14.883  0.00  0.00    +0.000 HD
ENDBRANCH  34  36
BRANCH  34  39
ATOM     39  C   UNL     1      -9.468  -9.828  15.105  0.00  0.00    +0.000 C 
ATOM     40  H   UNL     1      -8.580  -9.445  14.584  0.00  0.00    +0.000 HD
ATOM     41  H   UNL     1     -10.198 -10.065  14.320  0.00  0.00    +0.000 HD
BRANCH  39  42
ATOM     42  C   UNL     1      -9.118 -11.117  15.816  0.00  0.00    +0.000 A 
ATOM     43  C   UNL     1      -9.115 -11.182  17.216  0.00  0.00    +0.000 A 
ATOM     44  C   UNL     1      -8.766 -12.366  17.870  0.00  0.00    +0.000 A 
ATOM     45  C   UNL     1      -8.423 -13.497  17.131  0.00  0.00    +0.000 A 
ATOM     46  C   UNL     1      -8.430 -13.446  15.739  0.00  0.00    +0.000 A 
ATOM     47  C   UNL     1      -8.782 -12.264  15.084  0.00  0.00    +0.000 A 
ATOM     48  H   UNL     1      -9.383 -10.312  17.812  0.00  0.00    +0.000 HD
ATOM     49  H   UNL     1      -8.756 -12.402  18.956  0.00  0.00    +0.000 HD
ATOM     50  H   UNL     1      -8.146 -14.415  17.641  0.00  0.00    +0.000 HD
ATOM     51  H   UNL     1      -8.160 -14.328  15.161  0.00  0.00    +0.000 HD
ATOM     52  H   UNL     1      -8.784 -12.248  13.996  0.00  0.00    +0.000 HD
ENDBRANCH  39  42
ENDBRANCH  34  39
ENDBRANCH  31  34
ENDBRANCH  30  31
ENDBRANCH   1  30
TORSDOF 8
ENDMDL
MODEL 9
REMARK VINA RESULT:   -10.181      4.822      6.380
REMARK INTER + INTRA:         -15.567
REMARK INTER:                 -14.519
REMARK INTRA:                  -1.048
REMARK UNBOUND:                -0.922
REMARK  Name = 
REMARK  8 active torsions:
REMARK  status: ('A' for Active; 'I' for Inactive)
REMARK    1  A    between atoms: N_1  and  C_2
REMARK    2  A    between atoms: C_2  and  C_3
REMARK    3  A    between atoms: C_2  and  C_25
REMARK    4  A    between atoms: C_3  and  O_4
REMARK    5  A    between atoms: O_4  and  C_5
REMARK    6  A    between atoms: C_9  and  C_10
REMARK    7  A    between atoms: C_13  and  C_14
REMARK    8  A    between atoms: C_25  and  C_26
REMARK                            x       y       z     vdW  Elec       q    Type
REMARK                         _______ _______ _______ _____ _____    ______ ____
ROOT
ATOM      1  C   UNL     1      -9.571  -8.178  17.843  0.00  0.00    +0.000 A 
ATOM      2  C   UNL     1      -8.860  -8.158  19.033  0.00  0.00    +0.000 A 
ATOM      3  N   UNL     1      -8.542  -7.030  19.711  0.00  0.00    +0.000 NA
ATOM      4  C   UNL     1      -8.964  -5.859  19.167  0.00  0.00    +0.000 A 
ATOM      5  C   UNL     1      -9.712  -5.738  17.996  0.00  0.00    +0.000 A 
ATOM      6  C   UNL     1      -9.988  -6.949  17.327  0.00  0.00    +0.000 A 
ATOM      7  H   UNL     1      -8.507  -9.084  19.482  0.00  0.00    +0.000 HD
ATOM      8  H   UNL     1      -8.616  -4.982  19.707  0.00  0.00    +0.000 HD
ATOM      9  H   UNL     1     -10.502  -6.893  16.372  0.00  0.00    +0.000 HD
ENDROOT
BRANCH   5  10
ATOM     10  C   UNL     1     -10.030  -4.421  17.389  0.00  0.00    +0.000 A 
ATOM     11  C   UNL     1     -10.790  -4.224  16.224  0.00  0.00    +0.000 A 
ATOM     12  C   UNL     1     -11.420  -2.967  16.088  0.00  0.00    +0.000 A 
ATOM     13  C   UNL     1     -12.278  -2.231  15.214  0.00  0.00    +0.000 A 
ATOM     14  N   UNL     1     -12.933  -1.273  15.899  0.00  0.00    +0.000 NA
ATOM     15  N   UNL     1     -12.123  -1.059  16.934  0.00  0.00    +0.000 N 
ATOM     16  C   UNL     1     -11.200  -2.039  17.098  0.00  0.00    +0.000 A 
ATOM     17  C   UNL     1     -10.206  -2.185  18.052  0.00  0.00    +0.000 A 
ATOM     18  N   UNL     1      -9.640  -3.391  18.196  0.00  0.00    +0.000 NA
ATOM     19  H   UNL     1     -11.028  -5.050  15.559  0.00  0.00    +0.000 HD
ATOM     20  H   UNL     1     -12.295  -0.242  17.509  0.00  0.00    +0.000 HD
ATOM     21  H   UNL     1      -9.908  -1.403  18.743  0.00  0.00    +0.000 HD
BRANCH  13  22
ATOM     22  C   UNL     1     -12.301  -2.053  13.727  0.00  0.00    +0.000 A 
ATOM     23  C   UNL     1     -12.025  -3.079  12.835  0.00  0.00    +0.000 A 
ATOM     24  C   UNL     1     -12.615  -2.731  11.600  0.00  0.00    +0.000 A 
ATOM     25  C   UNL     1     -13.215  -1.512  11.804  0.00  0.00    +0.000 A 
ATOM     26  O   UNL     1     -12.969  -1.055  13.066  0.00  0.00    +0.000 OA
ATOM     27  H   UNL     1     -11.555  -4.017  13.096  0.00  0.00    +0.000 HD
ATOM     28  H   UNL     1     -12.658  -3.333  10.702  0.00  0.00    +0.000 HD
ATOM     29  H   UNL     1     -13.848  -0.887  11.189  0.00  0.00    +0.000 HD
ENDBRANCH  13  22
ENDBRANCH   5  10
BRANCH   1  30
ATOM     30  O   UNL     1      -9.783  -9.408  17.284  0.00  0.00    +0.000 OA
BRANCH  30  31
ATOM     31  C   UNL     1     -10.507  -9.421  16.049  0.00  0.00    +0.000 C 
ATOM     32  H   UNL     1     -10.692  -8.382  15.754  0.00  0.00    +0.000 HD
ATOM     33  H   UNL     1     -11.462  -9.948  16.172  0.00  0.00    +0.000 HD
BRANCH  31  34
ATOM     34  C   UNL     1      -9.684 -10.132  14.948  0.00  0.00    +0.000 C 
ATOM     35  H   UNL     1     -10.317 -10.898  14.483  0.00  0.00    +0.000 HD
BRANCH  34  36
ATOM     36  N   UNL     1      -9.311  -9.191  13.872  0.00  0.00    +0.000 NA
ATOM     37  H   UNL     1     -10.030  -8.478  13.764  0.00  0.00    +0.000 HD
ATOM     38  H   UNL     1      -9.241  -9.682  12.981  0.00  0.00    +0.000 HD
ENDBRANCH  34  36
BRANCH  34  39
ATOM     39  C   UNL     1      -8.409 -10.777  15.545  0.00  0.00    +0.000 C 
ATOM     40  H   UNL     1      -8.108 -10.216  16.440  0.00  0.00    +0.000 HD
ATOM     41  H   UNL     1      -7.574 -10.686  14.838  0.00  0.00    +0.000 HD
BRANCH  39  42
ATOM     42  C   UNL     1      -8.564 -12.241  15.894  0.00  0.00    +0.000 A 
ATOM     43  C   UNL     1      -8.605 -12.655  17.232  0.00  0.00    +0.000 A 
ATOM     44  C   UNL     1      -8.722 -14.010  17.551  0.00  0.00    +0.000 A 
ATOM     45  C   UNL     1      -8.805 -14.962  16.536  0.00  0.00    +0.000 A 
ATOM     46  C   UNL     1      -8.772 -14.561  15.203  0.00  0.00    +0.000 A 
ATOM     47  C   UNL     1      -8.659 -13.207  14.882  0.00  0.00    +0.000 A 
ATOM     48  H   UNL     1      -8.547 -11.928  18.040  0.00  0.00    +0.000 HD
ATOM     49  H   UNL     1      -8.742 -14.322  18.592  0.00  0.00    +0.000 HD
ATOM     50  H   UNL     1      -8.889 -16.015  16.787  0.00  0.00    +0.000 HD
ATOM     51  H   UNL     1      -8.834 -15.304  14.410  0.00  0.00    +0.000 HD
ATOM     52  H   UNL     1      -8.638 -12.916  13.834  0.00  0.00    +0.000 HD
ENDBRANCH  39  42
ENDBRANCH  34  39
ENDBRANCH  31  34
ENDBRANCH  30  31
ENDBRANCH   1  30
TORSDOF 8
ENDMDL
