REMARK  Name = 
REMARK  10 active torsions:
REMARK  status: ('A' for Active; 'I' for Inactive)
REMARK    1  A    between atoms: C_1  and  O_2
REMARK    2  A    between atoms: O_2  and  C_3
REMARK    3  A    between atoms: C_3  and  C_5
REMARK    4  A    between atoms: C_9  and  N_10
REMARK    5  A    between atoms: C_11  and  C_13
REMARK    6  A    between atoms: C_13  and  C_14
REMARK    7  A    between atoms: C_14  and  N_15
REMARK    8  A    between atoms: N_15  and  C_16
REMARK    9  A    between atoms: N_15  and  C_17
REMARK   10  A    between atoms: N_20  and  C_21
REMARK                            x       y       z     vdW  Elec       q    Type
REMARK                         _______ _______ _______ _____ _____    ______ ____
ROOT
ATOM      1  C   UNL     1       0.760   0.327   0.192  0.00  0.00    +0.000 C 
ATOM      2  C   UNL     1       1.441   1.000   1.437  0.00  0.00    +0.000 C 
ATOM      3  C   UNL     1       0.623   2.116   2.089  0.00  0.00    +0.000 C 
ATOM      4  N   UNL     1       0.186   2.998   1.025  0.00  0.00    +0.000 N 
ATOM      5  C   UNL     1      -0.798   2.438   0.124  0.00  0.00    +0.000 C 
ATOM      6  C   UNL     1      -0.116   1.308  -0.645  0.00  0.00    +0.000 C 
ATOM      7  H   UNL     1       2.406   1.424   1.202  0.00  0.00    +0.000 HD
ATOM      8  H   UNL     1       1.698   0.263   2.205  0.00  0.00    +0.000 HD
ATOM      9  H   UNL     1       1.243   2.629   2.834  0.00  0.00    +0.000 HD
ATOM     10  H   UNL     1      -0.237   1.696   2.623  0.00  0.00    +0.000 HD
ATOM     11  H   UNL     1      -1.171   3.178  -0.597  0.00  0.00    +0.000 HD
ATOM     12  H   UNL     1      -1.684   2.098   0.668  0.00  0.00    +0.000 HD
ATOM     13  H   UNL     1       0.529   1.822  -1.366  0.00  0.00    +0.000 HD
ATOM     14  H   UNL     1      -0.861   0.772  -1.242  0.00  0.00    +0.000 HD
ENDROOT
BRANCH   4  15
ATOM     15  C   UNL     1       0.349   4.359   1.104  0.00  0.00    +0.000 A 
ATOM     16  N   UNL     1       0.422   4.969   2.316  0.00  0.00    +0.000 NA
ATOM     17  C   UNL     1       0.538   6.313   2.365  0.00  0.00    +0.000 A 
ATOM     18  N   UNL     1       0.609   7.186   1.348  0.00  0.00    +0.000 NA
ATOM     19  C   UNL     1       0.540   6.539   0.165  0.00  0.00    +0.000 A 
ATOM     20  N   UNL     1       0.538   7.115  -1.071  0.00  0.00    +0.000 N 
ATOM     21  N   UNL     1       0.441   6.223  -2.080  0.00  0.00    +0.000 NA
ATOM     22  C   UNL     1       0.393   5.053  -1.440  0.00  0.00    +0.000 A 
ATOM     23  C   UNL     1       0.426   5.188  -0.032  0.00  0.00    +0.000 A 
ATOM     24  H   UNL     1       0.583   6.745   3.363  0.00  0.00    +0.000 HD
ATOM     25  H   UNL     1       0.582   8.099  -1.289  0.00  0.00    +0.000 HD
ATOM     26  H   UNL     1       0.300   4.149  -2.026  0.00  0.00    +0.000 HD
ENDBRANCH   4  15
BRANCH   1  28
ATOM     27  N   UNL     1      -0.716  -1.717  -0.047  0.00  0.00    +0.000 N 
ATOM     28  C   UNL     1      -0.062  -0.847   0.813  0.00  0.00    +0.000 C 
ATOM     29  O   UNL     1      -0.068  -0.999   2.026  0.00  0.00    +0.000 OA
ATOM     30  H   UNL     1      -0.471  -1.725  -1.027  0.00  0.00    +0.000 HD
BRANCH  27  35
ATOM     31  C   UNL     1      -2.506  -4.981  -0.040  0.00  0.00    +0.000 A 
ATOM     32  C   UNL     1      -2.959  -5.058   1.282  0.00  0.00    +0.000 A 
ATOM     33  C   UNL     1      -2.748  -3.992   2.141  0.00  0.00    +0.000 A 
ATOM     34  C   UNL     1      -2.059  -2.866   1.693  0.00  0.00    +0.000 A 
ATOM     35  C   UNL     1      -1.535  -2.795   0.395  0.00  0.00    +0.000 A 
ATOM     36  C   UNL     1      -1.813  -3.841  -0.491  0.00  0.00    +0.000 A 
ATOM     37  H   UNL     1      -3.460  -5.947   1.657  0.00  0.00    +0.000 HD
ATOM     38  H   UNL     1      -3.092  -4.038   3.171  0.00  0.00    +0.000 HD
ATOM     39  H   UNL     1      -1.941  -2.055   2.404  0.00  0.00    +0.000 HD
ATOM     40  H   UNL     1      -1.452  -3.814  -1.516  0.00  0.00    +0.000 HD
BRANCH  31  41
ATOM     41  C   UNL     1      -2.696  -6.124  -0.973  0.00  0.00    +0.000 C 
ATOM     42  O   UNL     1      -2.321  -6.115  -2.127  0.00  0.00    +0.000 OA
BRANCH  41  43
ATOM     43  O   UNL     1      -3.318  -7.146  -0.334  0.00  0.00    +0.000 OA
BRANCH  43  44
ATOM     44  C   UNL     1      -3.540  -8.299  -1.143  0.00  0.00    +0.000 C 
ATOM     45  H   UNL     1      -4.187  -8.983  -0.586  0.00  0.00    +0.000 HD
ATOM     46  H   UNL     1      -2.588  -8.800  -1.338  0.00  0.00    +0.000 HD
ATOM     47  H   UNL     1      -4.041  -8.033  -2.077  0.00  0.00    +0.000 HD
ENDBRANCH  43  44
ENDBRANCH  41  43
ENDBRANCH  31  41
ENDBRANCH  27  35
ENDBRANCH   1  28
BRANCH   1  48
ATOM     48  C   UNL     1       1.788  -0.348  -0.786  0.00  0.00    +0.000 C 
ATOM     49  H   UNL     1       1.189  -0.880  -1.533  0.00  0.00    +0.000 HD
ATOM     50  H   UNL     1       2.355  -1.115  -0.249  0.00  0.00    +0.000 HD
BRANCH  48  51
ATOM     51  N   UNL     1       2.709   0.499  -1.576  0.00  0.00    +0.000 NA
BRANCH  51  52
ATOM     52  C   UNL     1       3.591   1.309  -0.746  0.00  0.00    +0.000 C 
ATOM     53  H   UNL     1       3.033   2.161  -0.358  0.00  0.00    +0.000 HD
ATOM     54  H   UNL     1       4.402   1.769  -1.322  0.00  0.00    +0.000 HD
ATOM     55  H   UNL     1       4.045   0.731   0.069  0.00  0.00    +0.000 HD
ENDBRANCH  51  52
BRANCH  51  56
ATOM     56  C   UNL     1       3.520  -0.330  -2.472  0.00  0.00    +0.000 C 
ATOM     57  H   UNL     1       2.883  -0.869  -3.182  0.00  0.00    +0.000 HD
ATOM     58  H   UNL     1       4.131  -1.057  -1.925  0.00  0.00    +0.000 HD
ATOM     59  H   UNL     1       4.188   0.298  -3.073  0.00  0.00    +0.000 HD
ENDBRANCH  51  56
ENDBRANCH  48  51
ENDBRANCH   1  48
TORSDOF 10
