
 OpenBabel01112422423D

 62 65  0  0  1  0  0  0  0  0999 V2000
    3.4242    1.9866    0.1796 C   0  0  0  0  0  0  0  0  0  0  0  0
    2.8467    0.9390   -0.6031 O   0  0  0  0  0  0  0  0  0  0  0  0
    3.7102    0.2208   -1.3753 C   0  0  0  0  0  0  0  0  0  0  0  0
    4.9282    0.3283   -1.3701 O   0  0  0  0  0  0  0  0  0  0  0  0
    2.9275   -0.6157   -2.3316 C   0  0  0  0  0  0  0  0  0  0  0  0
    1.6799   -0.0896   -2.7552 C   0  0  0  0  0  0  0  0  0  0  0  0
    0.9163   -0.7270   -3.7216 C   0  0  0  0  0  0  0  0  0  0  0  0
    1.3498   -1.9294   -4.2605 C   0  0  0  0  0  0  0  0  0  0  0  0
    2.5535   -2.4854   -3.8099 C   0  0  0  0  0  0  0  0  0  0  0  0
    2.8868   -3.7173   -4.3068 O   0  0  0  0  0  0  0  0  0  0  0  0
    3.3943   -1.8194   -2.8944 C   0  0  0  0  0  0  0  0  0  0  0  0
    4.7075   -2.4403   -2.5344 C   0  0  0  0  0  0  0  0  0  0  0  0
    5.0030   -2.5203   -1.3405 O   0  0  0  0  0  0  0  0  0  0  0  0
    5.6198   -3.1122   -3.5348 C   0  0  0  0  0  0  0  0  0  0  0  0
    6.5206   -4.1032   -3.0837 C   0  0  0  0  0  0  0  0  0  0  0  0
    6.6388   -4.4658   -1.7636 O   0  0  0  0  0  0  0  0  0  0  0  0
    7.3310   -4.8278   -3.9675 C   0  0  0  0  0  0  0  0  0  0  0  0
    7.2274   -4.6132   -5.3404 C   0  0  0  0  0  0  0  0  0  0  0  0
    7.9729   -5.4427   -6.3203 C   0  0  0  0  0  0  0  0  0  0  0  0
    7.5510   -5.6555   -7.4497 O   0  0  0  0  0  0  0  0  0  0  0  0
    9.1452   -5.8915   -5.8041 O   0  0  0  0  0  0  0  0  0  0  0  0
    9.9134   -6.7264   -6.6730 C   0  0  3  0  0  0  0  0  0  0  0  0
    9.4445   -8.1722   -6.6380 C   0  0  0  0  0  0  0  0  0  0  0  0
   10.5418   -8.9560   -7.2164 N   0  0  0  0  0  0  0  0  0  0  0  0
   11.7768   -8.1798   -7.0080 C   0  0  0  0  0  0  0  0  0  0  0  0
   11.4022   -6.8623   -6.3079 C   0  0  3  0  0  0  0  0  0  0  0  0
   11.7730   -6.9595   -4.8124 C   0  0  0  0  0  0  0  0  0  0  0  0
   11.5123   -5.7547   -3.9418 C   0  0  0  0  0  0  0  0  0  0  0  0
   11.1937   -5.9548   -2.5876 C   0  0  0  0  0  0  0  0  0  0  0  0
   10.8663   -4.8759   -1.7668 C   0  0  0  0  0  0  0  0  0  0  0  0
   10.8763   -3.5948   -2.2998 C   0  0  0  0  0  0  0  0  0  0  0  0
   10.4440   -2.5350   -1.5629 O   0  0  0  0  0  0  0  0  0  0  0  0
   11.2855   -3.3628   -3.6039 C   0  0  0  0  0  0  0  0  0  0  0  0
   11.6122   -4.4424   -4.4232 C   0  0  0  0  0  0  0  0  0  0  0  0
    6.3431   -3.6368   -5.8175 C   0  0  0  0  0  0  0  0  0  0  0  0
    5.5825   -2.8707   -4.9207 C   0  0  0  0  0  0  0  0  0  0  0  0
    4.7786   -1.8932   -5.4457 O   0  0  0  0  0  0  0  0  0  0  0  0
    2.6286    2.6967    0.4307 H   0  0  0  0  0  0  0  0  0  0  0  0
    4.1943    2.5320   -0.3755 H   0  0  0  0  0  0  0  0  0  0  0  0
    3.8265    1.5725    1.1057 H   0  0  0  0  0  0  0  0  0  0  0  0
    1.3035    0.8472   -2.3439 H   0  0  0  0  0  0  0  0  0  0  0  0
   -0.0246   -0.2854   -4.0557 H   0  0  0  0  0  0  0  0  0  0  0  0
    0.7525   -2.4296   -5.0076 H   0  0  0  0  0  0  0  0  0  0  0  0
    2.6845   -3.7105   -5.2569 H   0  0  0  0  0  0  0  0  0  0  0  0
    6.0155   -3.9067   -1.2451 H   0  0  0  0  0  0  0  0  0  0  0  0
    8.0077   -5.5835   -3.5727 H   0  0  0  0  0  0  0  0  0  0  0  0
    9.8656   -6.3429   -7.7043 H   0  0  0  0  0  0  0  0  0  0  0  0
    8.5085   -8.3222   -7.1941 H   0  0  0  0  0  0  0  0  0  0  0  0
    9.2510   -8.4994   -5.6105 H   0  0  0  0  0  0  0  0  0  0  0  0
   10.3834   -9.0444   -8.2217 H   0  0  0  0  0  0  0  0  0  0  0  0
   12.2401   -7.9710   -7.9792 H   0  0  0  0  0  0  0  0  0  0  0  0
   12.4933   -8.7750   -6.4313 H   0  0  0  0  0  0  0  0  0  0  0  0
   11.9646   -6.0375   -6.7608 H   0  0  0  0  0  0  0  0  0  0  0  0
   12.8504   -7.1643   -4.7376 H   0  0  0  0  0  0  0  0  0  0  0  0
   11.2670   -7.8303   -4.3761 H   0  0  0  0  0  0  0  0  0  0  0  0
   11.1776   -6.9593   -2.1692 H   0  0  0  0  0  0  0  0  0  0  0  0
   10.6032   -5.0444   -0.7269 H   0  0  0  0  0  0  0  0  0  0  0  0
    9.5570   -2.7816   -1.2401 H   0  0  0  0  0  0  0  0  0  0  0  0
   11.3190   -2.3493   -3.9904 H   0  0  0  0  0  0  0  0  0  0  0  0
   11.9134   -4.2397   -5.4461 H   0  0  0  0  0  0  0  0  0  0  0  0
    6.2545   -3.4785   -6.8908 H   0  0  0  0  0  0  0  0  0  0  0  0
    4.5716   -2.1121   -6.3699 H   0  0  0  0  0  0  0  0  0  0  0  0
  1  2  1  0  0  0  0
  1 38  1  0  0  0  0
  1 39  1  0  0  0  0
  1 40  1  0  0  0  0
  2  3  1  0  0  0  0
  3  4  2  0  0  0  0
  3  5  1  0  0  0  0
  5  6  1  0  0  0  0
  5 11  2  0  0  0  0
  6  7  2  0  0  0  0
  6 41  1  0  0  0  0
  7  8  1  0  0  0  0
  7 42  1  0  0  0  0
  8  9  2  0  0  0  0
  8 43  1  0  0  0  0
  9 10  1  0  0  0  0
  9 11  1  0  0  0  0
 10 44  1  0  0  0  0
 11 12  1  0  0  0  0
 12 13  2  0  0  0  0
 12 14  1  0  0  0  0
 14 15  1  0  0  0  0
 14 36  2  0  0  0  0
 15 16  1  0  0  0  0
 15 17  2  0  0  0  0
 16 45  1  0  0  0  0
 17 18  1  0  0  0  0
 17 46  1  0  0  0  0
 18 19  1  0  0  0  0
 18 35  2  0  0  0  0
 19 20  2  0  0  0  0
 19 21  1  0  0  0  0
 21 22  1  0  0  0  0
 22 23  1  0  0  0  0
 22 26  1  0  0  0  0
 22 47  1  0  0  0  0
 23 24  1  0  0  0  0
 23 48  1  0  0  0  0
 23 49  1  0  0  0  0
 24 25  1  0  0  0  0
 24 50  1  0  0  0  0
 25 26  1  0  0  0  0
 25 51  1  0  0  0  0
 25 52  1  0  0  0  0
 26 27  1  0  0  0  0
 26 53  1  0  0  0  0
 27 28  1  0  0  0  0
 27 54  1  0  0  0  0
 27 55  1  0  0  0  0
 28 29  1  0  0  0  0
 28 34  2  0  0  0  0
 29 30  2  0  0  0  0
 29 56  1  0  0  0  0
 30 31  1  0  0  0  0
 30 57  1  0  0  0  0
 31 32  1  0  0  0  0
 31 33  2  0  0  0  0
 32 58  1  0  0  0  0
 33 34  1  0  0  0  0
 33 59  1  0  0  0  0
 34 60  1  0  0  0  0
 35 36  1  0  0  0  0
 35 61  1  0  0  0  0
 36 37  1  0  0  0  0
 37 62  1  0  0  0  0
M  END
$$$$
