
 OpenBabel01112422543D

 48 51  0  0  1  0  0  0  0  0999 V2000
    2.8827    1.2251   -0.3373 N   0  0  0  0  0  0  0  0  0  0  0  0
    2.3184   -0.1019   -0.0188 C   0  0  2  0  0  0  0  0  0  0  0  0
    0.7755   -0.0292   -0.0016 C   0  0  0  0  0  0  0  0  0  0  0  0
    0.3480    0.8170    1.0703 O   0  0  0  0  0  0  0  0  0  0  0  0
   -0.9984    0.9548    1.2346 C   0  0  0  0  0  0  0  0  0  0  0  0
   -1.4041    1.8248    2.2400 C   0  0  0  0  0  0  0  0  0  0  0  0
   -2.6912    2.0831    2.5551 N   0  0  0  0  0  0  0  0  0  0  0  0
   -3.6241    1.4221    1.8289 C   0  0  0  0  0  0  0  0  0  0  0  0
   -3.3494    0.5252    0.7948 C   0  0  0  0  0  0  0  0  0  0  0  0
   -4.4223   -0.2008    0.0933 C   0  0  0  0  0  0  0  0  0  0  0  0
   -5.6797    0.3634   -0.1246 C   0  0  0  0  0  0  0  0  0  0  0  0
   -6.6781   -0.4852   -0.6128 C   0  0  0  0  0  0  0  0  0  0  0  0
   -8.0517   -0.3789   -0.9136 C   0  0  0  0  0  0  0  0  0  0  0  0
   -8.5802   -1.5400   -1.3118 N   0  0  0  0  0  0  0  0  0  0  0  0
   -7.5367   -2.3891   -1.2770 N   0  0  0  0  0  0  0  0  0  0  0  0
   -6.3604   -1.8057   -0.8922 C   0  0  0  0  0  0  0  0  0  0  0  0
   -5.0778   -2.3015   -0.7536 C   0  0  0  0  0  0  0  0  0  0  0  0
   -4.1208   -1.4841   -0.2519 N   0  0  0  0  0  0  0  0  0  0  0  0
   -1.9941    0.3035    0.5076 C   0  0  0  0  0  0  0  0  0  0  0  0
    2.8880   -0.6223    1.3217 C   0  0  0  0  0  0  0  0  0  0  0  0
    2.4518   -2.0260    1.6749 C   0  0  0  0  0  0  0  0  0  0  0  0
    1.7155   -2.2634    2.8431 C   0  0  0  0  0  0  0  0  0  0  0  0
    1.3188   -3.5557    3.1847 C   0  0  0  0  0  0  0  0  0  0  0  0
    1.6565   -4.6311    2.3624 C   0  0  0  0  0  0  0  0  0  0  0  0
    2.3955   -4.4236    1.1912 C   0  0  0  0  0  0  0  0  0  0  0  0
    2.7867   -5.5787    0.3034 C   0  0  0  0  0  0  0  0  0  0  0  0
    2.3843   -6.7924    0.7748 F   0  0  0  0  0  0  0  0  0  0  0  0
    2.2644   -5.4746   -0.9506 F   0  0  0  0  0  0  0  0  0  0  0  0
    4.1358   -5.6735    0.1379 F   0  0  0  0  0  0  0  0  0  0  0  0
    2.7845   -3.1147    0.8541 C   0  0  0  0  0  0  0  0  0  0  0  0
    3.9011    1.1765   -0.3546 H   0  0  0  0  0  0  0  0  0  0  0  0
    2.6361    1.8749    0.4107 H   0  0  0  0  0  0  0  0  0  0  0  0
    2.6124   -0.7750   -0.8326 H   0  0  0  0  0  0  0  0  0  0  0  0
    0.4191    0.3719   -0.9602 H   0  0  0  0  0  0  0  0  0  0  0  0
    0.3724   -1.0399    0.1309 H   0  0  0  0  0  0  0  0  0  0  0  0
   -0.6702    2.3528    2.8423 H   0  0  0  0  0  0  0  0  0  0  0  0
   -4.6433    1.6291    2.1438 H   0  0  0  0  0  0  0  0  0  0  0  0
   -5.8972    1.3981    0.1116 H   0  0  0  0  0  0  0  0  0  0  0  0
   -8.6898    0.4919   -0.8437 H   0  0  0  0  0  0  0  0  0  0  0  0
   -7.7023   -3.3617   -1.5079 H   0  0  0  0  0  0  0  0  0  0  0  0
   -4.7868   -3.3164   -0.9934 H   0  0  0  0  0  0  0  0  0  0  0  0
   -1.7470   -0.4000   -0.2820 H   0  0  0  0  0  0  0  0  0  0  0  0
    2.6184    0.0666    2.1337 H   0  0  0  0  0  0  0  0  0  0  0  0
    3.9856   -0.6167    1.2850 H   0  0  0  0  0  0  0  0  0  0  0  0
    1.4420   -1.4385    3.5005 H   0  0  0  0  0  0  0  0  0  0  0  0
    0.7487   -3.7265    4.0950 H   0  0  0  0  0  0  0  0  0  0  0  0
    1.3435   -5.6349    2.6471 H   0  0  0  0  0  0  0  0  0  0  0  0
    3.3612   -2.9515   -0.0567 H   0  0  0  0  0  0  0  0  0  0  0  0
  1 31  1  0  0  0  0
  1 32  1  0  0  0  0
  2 20  1  0  0  0  0
  2  3  1  0  0  0  0
  2  1  1  0  0  0  0
  2 33  1  6  0  0  0
  3  4  1  0  0  0  0
  3 34  1  0  0  0  0
  3 35  1  0  0  0  0
  4  5  1  0  0  0  0
  5  6  1  0  0  0  0
  5 19  2  0  0  0  0
  6  7  2  0  0  0  0
  6 36  1  0  0  0  0
  7  8  1  0  0  0  0
  8  9  2  0  0  0  0
  8 37  1  0  0  0  0
  9 10  1  0  0  0  0
  9 19  1  0  0  0  0
 10 11  1  0  0  0  0
 10 18  2  0  0  0  0
 11 12  2  0  0  0  0
 11 38  1  0  0  0  0
 12 13  1  0  0  0  0
 12 16  1  0  0  0  0
 13 14  2  0  0  0  0
 13 39  1  0  0  0  0
 14 15  1  0  0  0  0
 15 16  1  0  0  0  0
 15 40  1  0  0  0  0
 16 17  2  0  0  0  0
 17 18  1  0  0  0  0
 17 41  1  0  0  0  0
 19 42  1  0  0  0  0
 20 21  1  0  0  0  0
 20 43  1  0  0  0  0
 20 44  1  0  0  0  0
 21 22  1  0  0  0  0
 21 30  2  0  0  0  0
 22 23  2  0  0  0  0
 22 45  1  0  0  0  0
 23 24  1  0  0  0  0
 23 46  1  0  0  0  0
 24 25  2  0  0  0  0
 24 47  1  0  0  0  0
 25 26  1  0  0  0  0
 25 30  1  0  0  0  0
 26 27  1  0  0  0  0
 26 28  1  0  0  0  0
 26 29  1  0  0  0  0
 30 48  1  0  0  0  0
M  END
$$$$
