MODEL 1
REMARK VINA RESULT:   -12.214      0.000      0.000
REMARK INTER + INTRA:         -17.828
REMARK INTER:                 -16.855
REMARK INTRA:                  -0.974
REMARK UNBOUND:                -0.974
REMARK  Name = 
REMARK  7 active torsions:
REMARK  status: ('A' for Active; 'I' for Inactive)
REMARK    1  A    between atoms: N_1  and  C_2
REMARK    2  A    between atoms: C_2  and  C_3
REMARK    3  A    between atoms: C_2  and  C_22
REMARK    4  A    between atoms: C_3  and  O_4
REMARK    5  A    between atoms: O_4  and  C_5
REMARK    6  A    between atoms: C_10  and  C_11
REMARK    7  A    between atoms: C_22  and  C_23
REMARK                            x       y       z     vdW  Elec       q    Type
REMARK                         _______ _______ _______ _____ _____    ______ ____
ROOT
ATOM      1  C   UNL     1      -9.983  -6.246  18.763  0.00  0.00    +0.000 C 
ATOM      2  H   UNL     1     -10.548  -5.371  18.419  0.00  0.00    +0.000 HD
ATOM      3  H   UNL     1     -10.052  -6.320  19.857  0.00  0.00    +0.000 HD
ENDROOT
BRANCH   1   4
ATOM      4  C   UNL     1     -10.587  -7.520  18.143  0.00  0.00    +0.000 C 
ATOM      5  H   UNL     1     -10.833  -8.214  18.956  0.00  0.00    +0.000 HD
BRANCH   4   6
ATOM      6  N   UNL     1     -11.856  -7.169  17.473  0.00  0.00    +0.000 NA
ATOM      7  H   UNL     1     -11.821  -6.187  17.192  0.00  0.00    +0.000 HD
ATOM      8  H   UNL     1     -12.609  -7.227  18.160  0.00  0.00    +0.000 HD
ENDBRANCH   4   6
BRANCH   4   9
ATOM      9  C   UNL     1      -9.553  -8.195  17.207  0.00  0.00    +0.000 C 
ATOM     10  H   UNL     1      -8.669  -7.548  17.127  0.00  0.00    +0.000 HD
ATOM     11  H   UNL     1      -9.953  -8.288  16.191  0.00  0.00    +0.000 HD
BRANCH   9  12
ATOM     12  C   UNL     1      -9.115  -9.547  17.681  0.00  0.00    +0.000 A 
ATOM     13  C   UNL     1      -8.829  -9.920  18.980  0.00  0.00    +0.000 A 
ATOM     14  N   UNL     1      -8.502 -11.250  18.981  0.00  0.00    +0.000 N 
ATOM     15  C   UNL     1      -8.574 -11.759  17.705  0.00  0.00    +0.000 A 
ATOM     16  C   UNL     1      -8.353 -13.059  17.233  0.00  0.00    +0.000 A 
ATOM     17  C   UNL     1      -8.501 -13.284  15.861  0.00  0.00    +0.000 A 
ATOM     18  C   UNL     1      -8.849 -12.251  14.995  0.00  0.00    +0.000 A 
ATOM     19  C   UNL     1      -9.061 -10.956  15.483  0.00  0.00    +0.000 A 
ATOM     20  C   UNL     1      -8.931 -10.707  16.863  0.00  0.00    +0.000 A 
ATOM     21  H   UNL     1      -8.838  -9.355  19.904  0.00  0.00    +0.000 HD
ATOM     22  H   UNL     1      -8.260 -11.791  19.799  0.00  0.00    +0.000 HD
ATOM     23  H   UNL     1      -8.082 -13.868  17.903  0.00  0.00    +0.000 HD
ATOM     24  H   UNL     1      -8.343 -14.285  15.463  0.00  0.00    +0.000 HD
ATOM     25  H   UNL     1      -8.960 -12.447  13.931  0.00  0.00    +0.000 HD
ATOM     26  H   UNL     1      -9.334 -10.160  14.797  0.00  0.00    +0.000 HD
ENDBRANCH   9  12
ENDBRANCH   4   9
ENDBRANCH   1   4
BRANCH   1  27
ATOM     27  O   UNL     1      -8.610  -6.123  18.363  0.00  0.00    +0.000 OA
BRANCH  27  28
ATOM     28  C   UNL     1      -7.776  -5.469  19.219  0.00  0.00    +0.000 A 
ATOM     29  C   UNL     1      -6.419  -5.586  18.971  0.00  0.00    +0.000 A 
ATOM     30  N   UNL     1      -5.462  -5.048  19.752  0.00  0.00    +0.000 NA
ATOM     31  C   UNL     1      -5.876  -4.355  20.843  0.00  0.00    +0.000 A 
ATOM     32 CL   UNL     1      -4.519  -3.873  21.794  0.00  0.00    +0.000 Cl
ATOM     33  C   UNL     1      -7.216  -4.125  21.192  0.00  0.00    +0.000 A 
ATOM     34  C   UNL     1      -8.162  -4.707  20.320  0.00  0.00    +0.000 A 
ATOM     35  H   UNL     1      -6.056  -6.146  18.115  0.00  0.00    +0.000 HD
ATOM     36  H   UNL     1      -9.217  -4.552  20.519  0.00  0.00    +0.000 HD
BRANCH  33  37
ATOM     37  C   UNL     1      -7.698  -3.362  22.377  0.00  0.00    +0.000 A 
ATOM     38  C   UNL     1      -8.120  -4.028  23.547  0.00  0.00    +0.000 A 
ATOM     39  C   UNL     1      -8.597  -3.333  24.665  0.00  0.00    +0.000 A 
ATOM     40  C   UNL     1      -8.623  -1.934  24.665  0.00  0.00    +0.000 A 
ATOM     41  C   UNL     1      -9.043  -1.179  25.764  0.00  0.00    +0.000 A 
ATOM     42  N   UNL     1      -9.049   0.173  25.805  0.00  0.00    +0.000 NA
ATOM     43  C   UNL     1      -8.616   0.810  24.697  0.00  0.00    +0.000 A 
ATOM     44  C   UNL     1      -8.199   0.162  23.545  0.00  0.00    +0.000 A 
ATOM     45  C   UNL     1      -8.203  -1.237  23.521  0.00  0.00    +0.000 A 
ATOM     46  C   UNL     1      -7.789  -1.958  22.385  0.00  0.00    +0.000 A 
ATOM     47  H   UNL     1      -8.081  -5.114  23.614  0.00  0.00    +0.000 HD
ATOM     48  H   UNL     1      -8.929  -3.893  25.536  0.00  0.00    +0.000 HD
ATOM     49  H   UNL     1      -9.393  -1.656  26.675  0.00  0.00    +0.000 HD
ATOM     50  H   UNL     1      -8.607   1.895  24.758  0.00  0.00    +0.000 HD
ATOM     51  H   UNL     1      -7.857   0.741  22.694  0.00  0.00    +0.000 HD
ATOM     52  H   UNL     1      -7.533  -1.392  21.492  0.00  0.00    +0.000 HD
ENDBRANCH  33  37
ENDBRANCH  27  28
ENDBRANCH   1  27
TORSDOF 7
ENDMDL
MODEL 2
REMARK VINA RESULT:   -12.140      2.228     10.602
REMARK INTER + INTRA:         -17.726
REMARK INTER:                 -17.057
REMARK INTRA:                  -0.670
REMARK UNBOUND:                -0.974
REMARK  Name = 
REMARK  7 active torsions:
REMARK  status: ('A' for Active; 'I' for Inactive)
REMARK    1  A    between atoms: N_1  and  C_2
REMARK    2  A    between atoms: C_2  and  C_3
REMARK    3  A    between atoms: C_2  and  C_22
REMARK    4  A    between atoms: C_3  and  O_4
REMARK    5  A    between atoms: O_4  and  C_5
REMARK    6  A    between atoms: C_10  and  C_11
REMARK    7  A    between atoms: C_22  and  C_23
REMARK                            x       y       z     vdW  Elec       q    Type
REMARK                         _______ _______ _______ _____ _____    ______ ____
ROOT
ATOM      1  C   UNL     1      -6.410  -4.851  20.278  0.00  0.00    +0.000 C 
ATOM      2  H   UNL     1      -6.404  -4.265  19.351  0.00  0.00    +0.000 HD
ATOM      3  H   UNL     1      -5.720  -5.699  20.180  0.00  0.00    +0.000 HD
ENDROOT
BRANCH   1   4
ATOM      4  C   UNL     1      -5.940  -3.963  21.446  0.00  0.00    +0.000 C 
ATOM      5  H   UNL     1      -5.911  -4.578  22.354  0.00  0.00    +0.000 HD
BRANCH   4   6
ATOM      6  N   UNL     1      -4.557  -3.518  21.180  0.00  0.00    +0.000 NA
ATOM      7  H   UNL     1      -4.116  -4.177  20.534  0.00  0.00    +0.000 HD
ATOM      8  H   UNL     1      -4.022  -3.590  22.047  0.00  0.00    +0.000 HD
ENDBRANCH   4   6
BRANCH   4   9
ATOM      9  C   UNL     1      -6.939  -2.800  21.664  0.00  0.00    +0.000 C 
ATOM     10  H   UNL     1      -7.716  -2.848  20.888  0.00  0.00    +0.000 HD
ATOM     11  H   UNL     1      -6.441  -1.832  21.533  0.00  0.00    +0.000 HD
BRANCH   9  12
ATOM     12  C   UNL     1      -7.602  -2.828  23.007  0.00  0.00    +0.000 A 
ATOM     13  C   UNL     1      -7.871  -3.942  23.777  0.00  0.00    +0.000 A 
ATOM     14  N   UNL     1      -8.452  -3.523  24.945  0.00  0.00    +0.000 N 
ATOM     15  C   UNL     1      -8.564  -2.152  24.957  0.00  0.00    +0.000 A 
ATOM     16  C   UNL     1      -9.065  -1.292  25.941  0.00  0.00    +0.000 A 
ATOM     17  C   UNL     1      -9.053   0.080  25.669  0.00  0.00    +0.000 A 
ATOM     18  C   UNL     1      -8.565   0.571  24.462  0.00  0.00    +0.000 A 
ATOM     19  C   UNL     1      -8.073  -0.304  23.486  0.00  0.00    +0.000 A 
ATOM     20  C   UNL     1      -8.062  -1.689  23.742  0.00  0.00    +0.000 A 
ATOM     21  H   UNL     1      -7.692  -4.995  23.599  0.00  0.00    +0.000 HD
ATOM     22  H   UNL     1      -8.742  -4.127  25.702  0.00  0.00    +0.000 HD
ATOM     23  H   UNL     1      -9.445  -1.668  26.885  0.00  0.00    +0.000 HD
ATOM     24  H   UNL     1      -9.429   0.776  26.417  0.00  0.00    +0.000 HD
ATOM     25  H   UNL     1      -8.564   1.641  24.271  0.00  0.00    +0.000 HD
ATOM     26  H   UNL     1      -7.694   0.092  22.550  0.00  0.00    +0.000 HD
ENDBRANCH   9  12
ENDBRANCH   4   9
ENDBRANCH   1   4
BRANCH   1  27
ATOM     27  O   UNL     1      -7.739  -5.324  20.542  0.00  0.00    +0.000 OA
BRANCH  27  28
ATOM     28  C   UNL     1      -8.371  -5.978  19.528  0.00  0.00    +0.000 A 
ATOM     29  C   UNL     1      -9.228  -5.225  18.744  0.00  0.00    +0.000 A 
ATOM     30  N   UNL     1      -9.969  -5.729  17.738  0.00  0.00    +0.000 NA
ATOM     31  C   UNL     1      -9.854  -7.060  17.498  0.00  0.00    +0.000 A 
ATOM     32 CL   UNL     1     -10.980  -7.547  16.284  0.00  0.00    +0.000 Cl
ATOM     33  C   UNL     1      -8.996  -7.933  18.186  0.00  0.00    +0.000 A 
ATOM     34  C   UNL     1      -8.242  -7.331  19.215  0.00  0.00    +0.000 A 
ATOM     35  H   UNL     1      -9.353  -4.161  18.921  0.00  0.00    +0.000 HD
ATOM     36  H   UNL     1      -7.544  -7.944  19.776  0.00  0.00    +0.000 HD
BRANCH  33  37
ATOM     37  C   UNL     1      -8.844  -9.394  17.937  0.00  0.00    +0.000 A 
ATOM     38  C   UNL     1      -8.632 -10.294  19.002  0.00  0.00    +0.000 A 
ATOM     39  C   UNL     1      -8.464 -11.667  18.791  0.00  0.00    +0.000 A 
ATOM     40  C   UNL     1      -8.551 -12.196  17.498  0.00  0.00    +0.000 A 
ATOM     41  C   UNL     1      -8.440 -13.562  17.223  0.00  0.00    +0.000 A 
ATOM     42  N   UNL     1      -8.552 -14.105  15.989  0.00  0.00    +0.000 NA
ATOM     43  C   UNL     1      -8.786 -13.247  14.974  0.00  0.00    +0.000 A 
ATOM     44  C   UNL     1      -8.891 -11.874  15.130  0.00  0.00    +0.000 A 
ATOM     45  C   UNL     1      -8.770 -11.331  16.413  0.00  0.00    +0.000 A 
ATOM     46  C   UNL     1      -8.870  -9.946  16.643  0.00  0.00    +0.000 A 
ATOM     47  H   UNL     1      -8.597  -9.940  20.031  0.00  0.00    +0.000 HD
ATOM     48  H   UNL     1      -8.284 -12.318  19.644  0.00  0.00    +0.000 HD
ATOM     49  H   UNL     1      -8.257 -14.283  18.015  0.00  0.00    +0.000 HD
ATOM     50  H   UNL     1      -8.895 -13.705  13.994  0.00  0.00    +0.000 HD
ATOM     51  H   UNL     1      -9.087 -11.247  14.267  0.00  0.00    +0.000 HD
ATOM     52  H   UNL     1      -8.972  -9.296  15.777  0.00  0.00    +0.000 HD
ENDBRANCH  33  37
ENDBRANCH  27  28
ENDBRANCH   1  27
TORSDOF 7
ENDMDL
MODEL 3
REMARK VINA RESULT:   -12.131      0.598      1.362
REMARK INTER + INTRA:         -17.714
REMARK INTER:                 -16.768
REMARK INTRA:                  -0.946
REMARK UNBOUND:                -0.974
REMARK  Name = 
REMARK  7 active torsions:
REMARK  status: ('A' for Active; 'I' for Inactive)
REMARK    1  A    between atoms: N_1  and  C_2
REMARK    2  A    between atoms: C_2  and  C_3
REMARK    3  A    between atoms: C_2  and  C_22
REMARK    4  A    between atoms: C_3  and  O_4
REMARK    5  A    between atoms: O_4  and  C_5
REMARK    6  A    between atoms: C_10  and  C_11
REMARK    7  A    between atoms: C_22  and  C_23
REMARK                            x       y       z     vdW  Elec       q    Type
REMARK                         _______ _______ _______ _____ _____    ______ ____
ROOT
ATOM      1  C   UNL     1      -9.918  -6.336  18.558  0.00  0.00    +0.000 C 
ATOM      2  H   UNL     1     -10.400  -5.431  18.167  0.00  0.00    +0.000 HD
ATOM      3  H   UNL     1     -10.029  -6.368  19.650  0.00  0.00    +0.000 HD
ENDROOT
BRANCH   1   4
ATOM      4  C   UNL     1     -10.601  -7.579  17.956  0.00  0.00    +0.000 C 
ATOM      5  H   UNL     1     -10.884  -8.247  18.778  0.00  0.00    +0.000 HD
BRANCH   4   6
ATOM      6  N   UNL     1     -11.851  -7.159  17.289  0.00  0.00    +0.000 NA
ATOM      7  H   UNL     1     -12.091  -7.848  16.572  0.00  0.00    +0.000 HD
ATOM      8  H   UNL     1     -11.670  -6.292  16.781  0.00  0.00    +0.000 HD
ENDBRANCH   4   6
BRANCH   4   9
ATOM      9  C   UNL     1      -9.616  -8.326  17.023  0.00  0.00    +0.000 C 
ATOM     10  H   UNL     1      -8.737  -7.689  16.850  0.00  0.00    +0.000 HD
ATOM     11  H   UNL     1     -10.066  -8.493  16.038  0.00  0.00    +0.000 HD
BRANCH   9  12
ATOM     12  C   UNL     1      -9.154  -9.640  17.575  0.00  0.00    +0.000 A 
ATOM     13  C   UNL     1      -8.868  -9.932  18.894  0.00  0.00    +0.000 A 
ATOM     14  N   UNL     1      -8.515 -11.253  18.972  0.00  0.00    +0.000 N 
ATOM     15  C   UNL     1      -8.569 -11.835  17.726  0.00  0.00    +0.000 A 
ATOM     16  C   UNL     1      -8.319 -13.154  17.330  0.00  0.00    +0.000 A 
ATOM     17  C   UNL     1      -8.454 -13.459  15.972  0.00  0.00    +0.000 A 
ATOM     18  C   UNL     1      -8.817 -12.484  15.047  0.00  0.00    +0.000 A 
ATOM     19  C   UNL     1      -9.058 -11.168  15.460  0.00  0.00    +0.000 A 
ATOM     20  C   UNL     1      -8.942 -10.839  16.825  0.00  0.00    +0.000 A 
ATOM     21  H   UNL     1      -8.894  -9.317  19.785  0.00  0.00    +0.000 HD
ATOM     22  H   UNL     1      -8.267 -11.742  19.821  0.00  0.00    +0.000 HD
ATOM     23  H   UNL     1      -8.036 -13.919  18.046  0.00  0.00    +0.000 HD
ATOM     24  H   UNL     1      -8.274 -14.478  15.633  0.00  0.00    +0.000 HD
ATOM     25  H   UNL     1      -8.918 -12.743  13.996  0.00  0.00    +0.000 HD
ATOM     26  H   UNL     1      -9.343 -10.419  14.729  0.00  0.00    +0.000 HD
ENDBRANCH   9  12
ENDBRANCH   4   9
ENDBRANCH   1   4
BRANCH   1  27
ATOM     27  O   UNL     1      -8.528  -6.335  18.203  0.00  0.00    +0.000 OA
BRANCH  27  28
ATOM     28  C   UNL     1      -7.687  -5.636  19.015  0.00  0.00    +0.000 A 
ATOM     29  C   UNL     1      -6.331  -5.858  18.840  0.00  0.00    +0.000 A 
ATOM     30  N   UNL     1      -5.371  -5.290  19.595  0.00  0.00    +0.000 NA
ATOM     31  C   UNL     1      -5.781  -4.454  20.584  0.00  0.00    +0.000 A 
ATOM     32 CL   UNL     1      -4.432  -3.945  21.532  0.00  0.00    +0.000 Cl
ATOM     33  C   UNL     1      -7.116  -4.109  20.847  0.00  0.00    +0.000 A 
ATOM     34  C   UNL     1      -8.063  -4.732  20.006  0.00  0.00    +0.000 A 
ATOM     35  H   UNL     1      -5.973  -6.533  18.068  0.00  0.00    +0.000 HD
ATOM     36  H   UNL     1      -9.114  -4.495  20.141  0.00  0.00    +0.000 HD
BRANCH  33  37
ATOM     37  C   UNL     1      -7.592  -3.189  21.917  0.00  0.00    +0.000 A 
ATOM     38  C   UNL     1      -7.924  -1.849  21.628  0.00  0.00    +0.000 A 
ATOM     39  C   UNL     1      -8.352  -0.960  22.622  0.00  0.00    +0.000 A 
ATOM     40  C   UNL     1      -8.511  -1.402  23.940  0.00  0.00    +0.000 A 
ATOM     41  C   UNL     1      -8.979  -0.580  24.969  0.00  0.00    +0.000 A 
ATOM     42  N   UNL     1      -9.172  -0.987  26.245  0.00  0.00    +0.000 NA
ATOM     43  C   UNL     1      -8.885  -2.278  26.514  0.00  0.00    +0.000 A 
ATOM     44  C   UNL     1      -8.394  -3.173  25.576  0.00  0.00    +0.000 A 
ATOM     45  C   UNL     1      -8.198  -2.732  24.263  0.00  0.00    +0.000 A 
ATOM     46  C   UNL     1      -7.706  -3.590  23.261  0.00  0.00    +0.000 A 
ATOM     47  H   UNL     1      -7.858  -1.465  20.612  0.00  0.00    +0.000 HD
ATOM     48  H   UNL     1      -8.578   0.069  22.352  0.00  0.00    +0.000 HD
ATOM     49  H   UNL     1      -9.226   0.463  24.790  0.00  0.00    +0.000 HD
ATOM     50  H   UNL     1      -9.068  -2.591  27.538  0.00  0.00    +0.000 HD
ATOM     51  H   UNL     1      -8.192  -4.199  25.864  0.00  0.00    +0.000 HD
ATOM     52  H   UNL     1      -7.410  -4.595  23.555  0.00  0.00    +0.000 HD
ENDBRANCH  33  37
ENDBRANCH  27  28
ENDBRANCH   1  27
TORSDOF 7
ENDMDL
MODEL 4
REMARK VINA RESULT:   -11.194      2.582     10.490
REMARK INTER + INTRA:         -16.421
REMARK INTER:                 -15.923
REMARK INTRA:                  -0.498
REMARK UNBOUND:                -0.974
REMARK  Name = 
REMARK  7 active torsions:
REMARK  status: ('A' for Active; 'I' for Inactive)
REMARK    1  A    between atoms: N_1  and  C_2
REMARK    2  A    between atoms: C_2  and  C_3
REMARK    3  A    between atoms: C_2  and  C_22
REMARK    4  A    between atoms: C_3  and  O_4
REMARK    5  A    between atoms: O_4  and  C_5
REMARK    6  A    between atoms: C_10  and  C_11
REMARK    7  A    between atoms: C_22  and  C_23
REMARK                            x       y       z     vdW  Elec       q    Type
REMARK                         _______ _______ _______ _____ _____    ______ ____
ROOT
ATOM      1  C   UNL     1      -8.039  -3.662  21.199  0.00  0.00    +0.000 C 
ATOM      2  H   UNL     1      -9.057  -3.944  21.495  0.00  0.00    +0.000 HD
ATOM      3  H   UNL     1      -8.080  -2.783  20.542  0.00  0.00    +0.000 HD
ENDROOT
BRANCH   1   4
ATOM      4  C   UNL     1      -7.222  -3.304  22.455  0.00  0.00    +0.000 C 
ATOM      5  H   UNL     1      -6.667  -4.196  22.768  0.00  0.00    +0.000 HD
BRANCH   4   6
ATOM      6  N   UNL     1      -6.225  -2.275  22.097  0.00  0.00    +0.000 NA
ATOM      7  H   UNL     1      -6.576  -1.360  22.385  0.00  0.00    +0.000 HD
ATOM      8  H   UNL     1      -6.158  -2.232  21.079  0.00  0.00    +0.000 HD
ENDBRANCH   4   6
BRANCH   4   9
ATOM      9  C   UNL     1      -8.173  -2.880  23.602  0.00  0.00    +0.000 C 
ATOM     10  H   UNL     1      -7.642  -2.980  24.559  0.00  0.00    +0.000 HD
ATOM     11  H   UNL     1      -9.033  -3.557  23.662  0.00  0.00    +0.000 HD
BRANCH   9  12
ATOM     12  C   UNL     1      -8.670  -1.473  23.474  0.00  0.00    +0.000 A 
ATOM     13  C   UNL     1      -7.966  -0.316  23.744  0.00  0.00    +0.000 A 
ATOM     14  N   UNL     1      -8.776   0.752  23.462  0.00  0.00    +0.000 N 
ATOM     15  C   UNL     1      -9.998   0.316  23.006  0.00  0.00    +0.000 A 
ATOM     16  C   UNL     1     -11.118   1.040  22.579  0.00  0.00    +0.000 A 
ATOM     17  C   UNL     1     -12.239   0.314  22.164  0.00  0.00    +0.000 A 
ATOM     18  C   UNL     1     -12.243  -1.077  22.181  0.00  0.00    +0.000 A 
ATOM     19  C   UNL     1     -11.117  -1.786  22.617  0.00  0.00    +0.000 A 
ATOM     20  C   UNL     1      -9.970  -1.078  23.027  0.00  0.00    +0.000 A 
ATOM     21  H   UNL     1      -6.957  -0.160  24.105  0.00  0.00    +0.000 HD
ATOM     22  H   UNL     1      -8.515   1.724  23.556  0.00  0.00    +0.000 HD
ATOM     23  H   UNL     1     -11.121   2.125  22.562  0.00  0.00    +0.000 HD
ATOM     24  H   UNL     1     -13.123   0.848  21.819  0.00  0.00    +0.000 HD
ATOM     25  H   UNL     1     -13.125  -1.623  21.854  0.00  0.00    +0.000 HD
ATOM     26  H   UNL     1     -11.133  -2.870  22.624  0.00  0.00    +0.000 HD
ENDBRANCH   9  12
ENDBRANCH   4   9
ENDBRANCH   1   4
BRANCH   1  27
ATOM     27  O   UNL     1      -7.414  -4.759  20.517  0.00  0.00    +0.000 OA
BRANCH  27  28
ATOM     28  C   UNL     1      -8.171  -5.427  19.602  0.00  0.00    +0.000 A 
ATOM     29  C   UNL     1      -9.131  -4.687  18.935  0.00  0.00    +0.000 A 
ATOM     30  N   UNL     1      -9.996  -5.205  18.041  0.00  0.00    +0.000 NA
ATOM     31  C   UNL     1      -9.903  -6.537  17.798  0.00  0.00    +0.000 A 
ATOM     32 CL   UNL     1     -11.178  -7.043  16.750  0.00  0.00    +0.000 Cl
ATOM     33  C   UNL     1      -8.954  -7.398  18.371  0.00  0.00    +0.000 A 
ATOM     34  C   UNL     1      -8.073  -6.781  19.286  0.00  0.00    +0.000 A 
ATOM     35  H   UNL     1      -9.241  -3.622  19.119  0.00  0.00    +0.000 HD
ATOM     36  H   UNL     1      -7.301  -7.384  19.752  0.00  0.00    +0.000 HD
BRANCH  33  37
ATOM     37  C   UNL     1      -8.823  -8.860  18.115  0.00  0.00    +0.000 A 
ATOM     38  C   UNL     1      -8.624  -9.768  19.176  0.00  0.00    +0.000 A 
ATOM     39  C   UNL     1      -8.477 -11.142  18.958  0.00  0.00    +0.000 A 
ATOM     40  C   UNL     1      -8.574 -11.663  17.663  0.00  0.00    +0.000 A 
ATOM     41  C   UNL     1      -8.483 -13.030  17.381  0.00  0.00    +0.000 A 
ATOM     42  N   UNL     1      -8.604 -13.565  16.145  0.00  0.00    +0.000 NA
ATOM     43  C   UNL     1      -8.826 -12.699  15.134  0.00  0.00    +0.000 A 
ATOM     44  C   UNL     1      -8.911 -11.325  15.297  0.00  0.00    +0.000 A 
ATOM     45  C   UNL     1      -8.780 -10.790  16.582  0.00  0.00    +0.000 A 
ATOM     46  C   UNL     1      -8.859  -9.405  16.819  0.00  0.00    +0.000 A 
ATOM     47  H   UNL     1      -8.583  -9.419  20.207  0.00  0.00    +0.000 HD
ATOM     48  H   UNL     1      -8.306 -11.799  19.808  0.00  0.00    +0.000 HD
ATOM     49  H   UNL     1      -8.310 -13.757  18.169  0.00  0.00    +0.000 HD
ATOM     50  H   UNL     1      -8.943 -13.151  14.152  0.00  0.00    +0.000 HD
ATOM     51  H   UNL     1      -9.099 -10.691  14.437  0.00  0.00    +0.000 HD
ATOM     52  H   UNL     1      -8.953  -8.749  15.956  0.00  0.00    +0.000 HD
ENDBRANCH  33  37
ENDBRANCH  27  28
ENDBRANCH   1  27
TORSDOF 7
ENDMDL
MODEL 5
REMARK VINA RESULT:   -11.073      4.431     10.088
REMARK INTER + INTRA:         -16.254
REMARK INTER:                 -15.802
REMARK INTRA:                  -0.452
REMARK UNBOUND:                -0.974
REMARK  Name = 
REMARK  7 active torsions:
REMARK  status: ('A' for Active; 'I' for Inactive)
REMARK    1  A    between atoms: N_1  and  C_2
REMARK    2  A    between atoms: C_2  and  C_3
REMARK    3  A    between atoms: C_2  and  C_22
REMARK    4  A    between atoms: C_3  and  O_4
REMARK    5  A    between atoms: O_4  and  C_5
REMARK    6  A    between atoms: C_10  and  C_11
REMARK    7  A    between atoms: C_22  and  C_23
REMARK                            x       y       z     vdW  Elec       q    Type
REMARK                         _______ _______ _______ _____ _____    ______ ____
ROOT
ATOM      1  C   UNL     1      -9.960  -4.184  18.222  0.00  0.00    +0.000 C 
ATOM      2  H   UNL     1      -9.370  -3.268  18.095  0.00  0.00    +0.000 HD
ATOM      3  H   UNL     1      -9.937  -4.492  19.276  0.00  0.00    +0.000 HD
ENDROOT
BRANCH   1   4
ATOM      4  C   UNL     1     -11.422  -3.911  17.818  0.00  0.00    +0.000 C 
ATOM      5  H   UNL     1     -11.824  -4.818  17.351  0.00  0.00    +0.000 HD
BRANCH   4   6
ATOM      6  N   UNL     1     -12.215  -3.664  19.040  0.00  0.00    +0.000 NA
ATOM      7  H   UNL     1     -12.955  -2.993  18.824  0.00  0.00    +0.000 HD
ATOM      8  H   UNL     1     -11.617  -3.198  19.724  0.00  0.00    +0.000 HD
ENDBRANCH   4   6
BRANCH   4   9
ATOM      9  C   UNL     1     -11.480  -2.753  16.791  0.00  0.00    +0.000 C 
ATOM     10  H   UNL     1     -10.557  -2.162  16.868  0.00  0.00    +0.000 HD
ATOM     11  H   UNL     1     -12.300  -2.065  17.029  0.00  0.00    +0.000 HD
BRANCH   9  12
ATOM     12  C   UNL     1     -11.633  -3.219  15.376  0.00  0.00    +0.000 A 
ATOM     13  C   UNL     1     -11.296  -4.459  14.869  0.00  0.00    +0.000 A 
ATOM     14  N   UNL     1     -11.630  -4.482  13.541  0.00  0.00    +0.000 N 
ATOM     15  C   UNL     1     -12.186  -3.280  13.168  0.00  0.00    +0.000 A 
ATOM     16  C   UNL     1     -12.693  -2.860  11.933  0.00  0.00    +0.000 A 
ATOM     17  C   UNL     1     -13.202  -1.560  11.850  0.00  0.00    +0.000 A 
ATOM     18  C   UNL     1     -13.199  -0.714  12.954  0.00  0.00    +0.000 A 
ATOM     19  C   UNL     1     -12.683  -1.148  14.181  0.00  0.00    +0.000 A 
ATOM     20  C   UNL     1     -12.177  -2.458  14.293  0.00  0.00    +0.000 A 
ATOM     21  H   UNL     1     -10.855  -5.329  15.341  0.00  0.00    +0.000 HD
ATOM     22  H   UNL     1     -11.507  -5.271  12.922  0.00  0.00    +0.000 HD
ATOM     23  H   UNL     1     -12.699  -3.516  11.068  0.00  0.00    +0.000 HD
ATOM     24  H   UNL     1     -13.611  -1.206  10.905  0.00  0.00    +0.000 HD
ATOM     25  H   UNL     1     -13.601   0.293  12.869  0.00  0.00    +0.000 HD
ATOM     26  H   UNL     1     -12.689  -0.479  15.035  0.00  0.00    +0.000 HD
ENDBRANCH   9  12
ENDBRANCH   4   9
ENDBRANCH   1   4
BRANCH   1  27
ATOM     27  O   UNL     1      -9.421  -5.224  17.393  0.00  0.00    +0.000 OA
BRANCH  27  28
ATOM     28  C   UNL     1      -9.226  -6.438  17.979  0.00  0.00    +0.000 A 
ATOM     29  C   UNL     1      -9.006  -6.438  19.346  0.00  0.00    +0.000 A 
ATOM     30  N   UNL     1      -8.742  -7.545  20.067  0.00  0.00    +0.000 NA
ATOM     31  C   UNL     1      -8.691  -8.721  19.391  0.00  0.00    +0.000 A 
ATOM     32 CL   UNL     1      -8.198  -9.995  20.445  0.00  0.00    +0.000 Cl
ATOM     33  C   UNL     1      -8.934  -8.873  18.016  0.00  0.00    +0.000 A 
ATOM     34  C   UNL     1      -9.217  -7.672  17.330  0.00  0.00    +0.000 A 
ATOM     35  H   UNL     1      -9.024  -5.511  19.912  0.00  0.00    +0.000 HD
ATOM     36  H   UNL     1      -9.433  -7.719  16.268  0.00  0.00    +0.000 HD
BRANCH  33  37
ATOM     37  C   UNL     1      -8.894 -10.151  17.252  0.00  0.00    +0.000 A 
ATOM     38  C   UNL     1      -8.835 -10.152  15.843  0.00  0.00    +0.000 A 
ATOM     39  C   UNL     1      -8.819 -11.340  15.102  0.00  0.00    +0.000 A 
ATOM     40  C   UNL     1      -8.812 -12.577  15.757  0.00  0.00    +0.000 A 
ATOM     41  C   UNL     1      -8.750 -13.798  15.080  0.00  0.00    +0.000 A 
ATOM     42  N   UNL     1      -8.709 -15.007  15.686  0.00  0.00    +0.000 NA
ATOM     43  C   UNL     1      -8.733 -15.004  17.035  0.00  0.00    +0.000 A 
ATOM     44  C   UNL     1      -8.817 -13.855  17.805  0.00  0.00    +0.000 A 
ATOM     45  C   UNL     1      -8.861 -12.614  17.160  0.00  0.00    +0.000 A 
ATOM     46  C   UNL     1      -8.943 -11.408  17.881  0.00  0.00    +0.000 A 
ATOM     47  H   UNL     1      -8.796  -9.218  15.286  0.00  0.00    +0.000 HD
ATOM     48  H   UNL     1      -8.794 -11.288  14.016  0.00  0.00    +0.000 HD
ATOM     49  H   UNL     1      -8.723 -13.840  13.994  0.00  0.00    +0.000 HD
ATOM     50  H   UNL     1      -8.677 -15.984  17.503  0.00  0.00    +0.000 HD
ATOM     51  H   UNL     1      -8.825 -13.930  18.887  0.00  0.00    +0.000 HD
ATOM     52  H   UNL     1      -9.047 -11.471  18.962  0.00  0.00    +0.000 HD
ENDBRANCH  33  37
ENDBRANCH  27  28
ENDBRANCH   1  27
TORSDOF 7
ENDMDL
MODEL 6
REMARK VINA RESULT:   -11.027      2.578     10.160
REMARK INTER + INTRA:         -16.190
REMARK INTER:                 -15.546
REMARK INTRA:                  -0.644
REMARK UNBOUND:                -0.974
REMARK  Name = 
REMARK  7 active torsions:
REMARK  status: ('A' for Active; 'I' for Inactive)
REMARK    1  A    between atoms: N_1  and  C_2
REMARK    2  A    between atoms: C_2  and  C_3
REMARK    3  A    between atoms: C_2  and  C_22
REMARK    4  A    between atoms: C_3  and  O_4
REMARK    5  A    between atoms: O_4  and  C_5
REMARK    6  A    between atoms: C_10  and  C_11
REMARK    7  A    between atoms: C_22  and  C_23
REMARK                            x       y       z     vdW  Elec       q    Type
REMARK                         _______ _______ _______ _____ _____    ______ ____
ROOT
ATOM      1  C   UNL     1     -11.067  -4.704  17.233  0.00  0.00    +0.000 C 
ATOM      2  H   UNL     1     -11.713  -5.525  17.569  0.00  0.00    +0.000 HD
ATOM      3  H   UNL     1     -11.328  -4.431  16.202  0.00  0.00    +0.000 HD
ENDROOT
BRANCH   1   4
ATOM      4  C   UNL     1     -11.285  -3.478  18.140  0.00  0.00    +0.000 C 
ATOM      5  H   UNL     1     -11.976  -2.795  17.632  0.00  0.00    +0.000 HD
BRANCH   4   6
ATOM      6  N   UNL     1     -11.949  -3.919  19.385  0.00  0.00    +0.000 NA
ATOM      7  H   UNL     1     -12.876  -3.491  19.435  0.00  0.00    +0.000 HD
ATOM      8  H   UNL     1     -11.431  -3.537  20.178  0.00  0.00    +0.000 HD
ENDBRANCH   4   6
BRANCH   4   9
ATOM      9  C   UNL     1      -9.941  -2.746  18.375  0.00  0.00    +0.000 C 
ATOM     10  H   UNL     1      -9.786  -2.019  17.566  0.00  0.00    +0.000 HD
ATOM     11  H   UNL     1      -9.101  -3.449  18.314  0.00  0.00    +0.000 HD
BRANCH   9  12
ATOM     12  C   UNL     1      -9.877  -2.025  19.686  0.00  0.00    +0.000 A 
ATOM     13  C   UNL     1     -10.606  -0.913  20.059  0.00  0.00    +0.000 A 
ATOM     14  N   UNL     1     -10.271  -0.595  21.349  0.00  0.00    +0.000 N 
ATOM     15  C   UNL     1      -9.336  -1.482  21.830  0.00  0.00    +0.000 A 
ATOM     16  C   UNL     1      -8.727  -1.564  23.089  0.00  0.00    +0.000 A 
ATOM     17  C   UNL     1      -7.798  -2.588  23.293  0.00  0.00    +0.000 A 
ATOM     18  C   UNL     1      -7.486  -3.491  22.281  0.00  0.00    +0.000 A 
ATOM     19  C   UNL     1      -8.100  -3.391  21.027  0.00  0.00    +0.000 A 
ATOM     20  C   UNL     1      -9.050  -2.376  20.800  0.00  0.00    +0.000 A 
ATOM     21  H   UNL     1     -11.341  -0.327  19.522  0.00  0.00    +0.000 HD
ATOM     22  H   UNL     1     -10.662   0.169  21.882  0.00  0.00    +0.000 HD
ATOM     23  H   UNL     1      -8.967  -0.864  23.882  0.00  0.00    +0.000 HD
ATOM     24  H   UNL     1      -7.313  -2.683  24.263  0.00  0.00    +0.000 HD
ATOM     25  H   UNL     1      -6.762  -4.281  22.461  0.00  0.00    +0.000 HD
ATOM     26  H   UNL     1      -7.850  -4.103  20.247  0.00  0.00    +0.000 HD
ENDBRANCH   9  12
ENDBRANCH   4   9
ENDBRANCH   1   4
BRANCH   1  27
ATOM     27  O   UNL     1      -9.693  -5.112  17.303  0.00  0.00    +0.000 OA
BRANCH  27  28
ATOM     28  C   UNL     1      -9.438  -6.315  17.888  0.00  0.00    +0.000 A 
ATOM     29  C   UNL     1      -9.185  -6.301  19.249  0.00  0.00    +0.000 A 
ATOM     30  N   UNL     1      -8.863  -7.395  19.967  0.00  0.00    +0.000 NA
ATOM     31  C   UNL     1      -8.784  -8.571  19.294  0.00  0.00    +0.000 A 
ATOM     32 CL   UNL     1      -8.218  -9.820  20.341  0.00  0.00    +0.000 Cl
ATOM     33  C   UNL     1      -9.053  -8.737  17.926  0.00  0.00    +0.000 A 
ATOM     34  C   UNL     1      -9.398  -7.551  17.244  0.00  0.00    +0.000 A 
ATOM     35  H   UNL     1      -9.225  -5.374  19.813  0.00  0.00    +0.000 HD
ATOM     36  H   UNL     1      -9.637  -7.610  16.187  0.00  0.00    +0.000 HD
BRANCH  33  37
ATOM     37  C   UNL     1      -8.984 -10.016  17.165  0.00  0.00    +0.000 A 
ATOM     38  C   UNL     1      -8.896 -10.019  15.758  0.00  0.00    +0.000 A 
ATOM     39  C   UNL     1      -8.851 -11.208  15.020  0.00  0.00    +0.000 A 
ATOM     40  C   UNL     1      -8.845 -12.444  15.677  0.00  0.00    +0.000 A 
ATOM     41  C   UNL     1      -8.755 -13.666  15.004  0.00  0.00    +0.000 A 
ATOM     42  N   UNL     1      -8.713 -14.873  15.613  0.00  0.00    +0.000 NA
ATOM     43  C   UNL     1      -8.766 -14.868  16.961  0.00  0.00    +0.000 A 
ATOM     44  C   UNL     1      -8.878 -13.718  17.727  0.00  0.00    +0.000 A 
ATOM     45  C   UNL     1      -8.922 -12.479  17.079  0.00  0.00    +0.000 A 
ATOM     46  C   UNL     1      -9.032 -11.273  17.796  0.00  0.00    +0.000 A 
ATOM     47  H   UNL     1      -8.856  -9.085  15.200  0.00  0.00    +0.000 HD
ATOM     48  H   UNL     1      -8.804 -11.158  13.935  0.00  0.00    +0.000 HD
ATOM     49  H   UNL     1      -8.705 -13.709  13.920  0.00  0.00    +0.000 HD
ATOM     50  H   UNL     1      -8.708 -15.846  17.433  0.00  0.00    +0.000 HD
ATOM     51  H   UNL     1      -8.907 -13.792  18.809  0.00  0.00    +0.000 HD
ATOM     52  H   UNL     1      -9.158 -11.335  18.875  0.00  0.00    +0.000 HD
ENDBRANCH  33  37
ENDBRANCH  27  28
ENDBRANCH   1  27
TORSDOF 7
ENDMDL
MODEL 7
REMARK VINA RESULT:   -10.995      1.585      2.065
REMARK INTER + INTRA:         -16.147
REMARK INTER:                 -15.507
REMARK INTRA:                  -0.640
REMARK UNBOUND:                -0.974
REMARK  Name = 
REMARK  7 active torsions:
REMARK  status: ('A' for Active; 'I' for Inactive)
REMARK    1  A    between atoms: N_1  and  C_2
REMARK    2  A    between atoms: C_2  and  C_3
REMARK    3  A    between atoms: C_2  and  C_22
REMARK    4  A    between atoms: C_3  and  O_4
REMARK    5  A    between atoms: O_4  and  C_5
REMARK    6  A    between atoms: C_10  and  C_11
REMARK    7  A    between atoms: C_22  and  C_23
REMARK                            x       y       z     vdW  Elec       q    Type
REMARK                         _______ _______ _______ _____ _____    ______ ____
ROOT
ATOM      1  C   UNL     1      -9.899  -6.930  18.740  0.00  0.00    +0.000 C 
ATOM      2  H   UNL     1     -10.019  -5.867  18.497  0.00  0.00    +0.000 HD
ATOM      3  H   UNL     1     -10.482  -7.168  19.640  0.00  0.00    +0.000 HD
ENDROOT
BRANCH   1   4
ATOM      4  C   UNL     1     -10.425  -7.783  17.570  0.00  0.00    +0.000 C 
ATOM      5  H   UNL     1     -10.442  -8.832  17.891  0.00  0.00    +0.000 HD
BRANCH   4   6
ATOM      6  N   UNL     1     -11.822  -7.395  17.287  0.00  0.00    +0.000 NA
ATOM      7  H   UNL     1     -11.899  -7.133  16.302  0.00  0.00    +0.000 HD
ATOM      8  H   UNL     1     -12.032  -6.544  17.811  0.00  0.00    +0.000 HD
ENDBRANCH   4   6
BRANCH   4   9
ATOM      9  C   UNL     1      -9.480  -7.650  16.350  0.00  0.00    +0.000 C 
ATOM     10  H   UNL     1      -8.529  -7.213  16.683  0.00  0.00    +0.000 HD
ATOM     11  H   UNL     1      -9.894  -6.949  15.615  0.00  0.00    +0.000 HD
BRANCH   9  12
ATOM     12  C   UNL     1      -9.197  -8.955  15.671  0.00  0.00    +0.000 A 
ATOM     13  C   UNL     1      -9.045  -9.170  14.315  0.00  0.00    +0.000 A 
ATOM     14  N   UNL     1      -8.762 -10.496  14.123  0.00  0.00    +0.000 N 
ATOM     15  C   UNL     1      -8.721 -11.155  15.330  0.00  0.00    +0.000 A 
ATOM     16  C   UNL     1      -8.447 -12.497  15.622  0.00  0.00    +0.000 A 
ATOM     17  C   UNL     1      -8.479 -12.887  16.964  0.00  0.00    +0.000 A 
ATOM     18  C   UNL     1      -8.778 -11.976  17.972  0.00  0.00    +0.000 A 
ATOM     19  C   UNL     1      -9.056 -10.639  17.662  0.00  0.00    +0.000 A 
ATOM     20  C   UNL     1      -9.016 -10.218  16.319  0.00  0.00    +0.000 A 
ATOM     21  H   UNL     1      -9.105  -8.492  13.473  0.00  0.00    +0.000 HD
ATOM     22  H   UNL     1      -8.589 -10.932  13.228  0.00  0.00    +0.000 HD
ATOM     23  H   UNL     1      -8.212 -13.212  14.840  0.00  0.00    +0.000 HD
ATOM     24  H   UNL     1      -8.263 -13.922  17.225  0.00  0.00    +0.000 HD
ATOM     25  H   UNL     1      -8.797 -12.299  19.010  0.00  0.00    +0.000 HD
ATOM     26  H   UNL     1      -9.285  -9.938  18.458  0.00  0.00    +0.000 HD
ENDBRANCH   9  12
ENDBRANCH   4   9
ENDBRANCH   1   4
BRANCH   1  27
ATOM     27  O   UNL     1      -8.512  -7.223  18.960  0.00  0.00    +0.000 OA
BRANCH  27  28
ATOM     28  C   UNL     1      -7.759  -6.240  19.528  0.00  0.00    +0.000 A 
ATOM     29  C   UNL     1      -6.386  -6.355  19.393  0.00  0.00    +0.000 A 
ATOM     30  N   UNL     1      -5.500  -5.500  19.941  0.00  0.00    +0.000 NA
ATOM     31  C   UNL     1      -6.007  -4.471  20.666  0.00  0.00    +0.000 A 
ATOM     32 CL   UNL     1      -4.731  -3.577  21.407  0.00  0.00    +0.000 Cl
ATOM     33  C   UNL     1      -7.375  -4.210  20.851  0.00  0.00    +0.000 A 
ATOM     34  C   UNL     1      -8.241  -5.140  20.236  0.00  0.00    +0.000 A 
ATOM     35  H   UNL     1      -5.949  -7.176  18.832  0.00  0.00    +0.000 HD
ATOM     36  H   UNL     1      -9.312  -4.988  20.322  0.00  0.00    +0.000 HD
BRANCH  33  37
ATOM     37  C   UNL     1      -7.958  -3.085  21.633  0.00  0.00    +0.000 A 
ATOM     38  C   UNL     1      -7.735  -2.973  23.021  0.00  0.00    +0.000 A 
ATOM     39  C   UNL     1      -8.291  -1.937  23.780  0.00  0.00    +0.000 A 
ATOM     40  C   UNL     1      -9.056  -0.943  23.160  0.00  0.00    +0.000 A 
ATOM     41  C   UNL     1      -9.600   0.143  23.852  0.00  0.00    +0.000 A 
ATOM     42  N   UNL     1     -10.316   1.136  23.274  0.00  0.00    +0.000 NA
ATOM     43  C   UNL     1     -10.502   1.046  21.941  0.00  0.00    +0.000 A 
ATOM     44  C   UNL     1     -10.027   0.002  21.162  0.00  0.00    +0.000 A 
ATOM     45  C   UNL     1      -9.292  -1.016  21.778  0.00  0.00    +0.000 A 
ATOM     46  C   UNL     1      -8.778  -2.103  21.046  0.00  0.00    +0.000 A 
ATOM     47  H   UNL     1      -7.114  -3.697  23.545  0.00  0.00    +0.000 HD
ATOM     48  H   UNL     1      -8.106  -1.906  24.851  0.00  0.00    +0.000 HD
ATOM     49  H   UNL     1      -9.467   0.253  24.924  0.00  0.00    +0.000 HD
ATOM     50  H   UNL     1     -11.060   1.864  21.493  0.00  0.00    +0.000 HD
ATOM     51  H   UNL     1     -10.210   0.000  20.093  0.00  0.00    +0.000 HD
ATOM     52  H   UNL     1      -9.033  -2.168  19.990  0.00  0.00    +0.000 HD
ENDBRANCH  33  37
ENDBRANCH  27  28
ENDBRANCH   1  27
TORSDOF 7
ENDMDL
MODEL 8
REMARK VINA RESULT:   -10.851      3.010      3.834
REMARK INTER + INTRA:         -15.948
REMARK INTER:                 -14.906
REMARK INTRA:                  -1.043
REMARK UNBOUND:                -0.974
REMARK  Name = 
REMARK  7 active torsions:
REMARK  status: ('A' for Active; 'I' for Inactive)
REMARK    1  A    between atoms: N_1  and  C_2
REMARK    2  A    between atoms: C_2  and  C_3
REMARK    3  A    between atoms: C_2  and  C_22
REMARK    4  A    between atoms: C_3  and  O_4
REMARK    5  A    between atoms: O_4  and  C_5
REMARK    6  A    between atoms: C_10  and  C_11
REMARK    7  A    between atoms: C_22  and  C_23
REMARK                            x       y       z     vdW  Elec       q    Type
REMARK                         _______ _______ _______ _____ _____    ______ ____
ROOT
ATOM      1  C   UNL     1      -9.352  -6.226  15.641  0.00  0.00    +0.000 C 
ATOM      2  H   UNL     1      -8.817  -5.271  15.562  0.00  0.00    +0.000 HD
ATOM      3  H   UNL     1      -9.368  -6.718  14.660  0.00  0.00    +0.000 HD
ENDROOT
BRANCH   1   4
ATOM      4  C   UNL     1      -8.620  -7.140  16.642  0.00  0.00    +0.000 C 
ATOM      5  H   UNL     1      -8.026  -7.864  16.073  0.00  0.00    +0.000 HD
BRANCH   4   6
ATOM      6  N   UNL     1      -7.672  -6.324  17.428  0.00  0.00    +0.000 NA
ATOM      7  H   UNL     1      -7.480  -5.459  16.919  0.00  0.00    +0.000 HD
ATOM      8  H   UNL     1      -6.780  -6.818  17.471  0.00  0.00    +0.000 HD
ENDBRANCH   4   6
BRANCH   4   9
ATOM      9  C   UNL     1      -9.649  -7.909  17.507  0.00  0.00    +0.000 C 
ATOM     10  H   UNL     1     -10.577  -8.031  16.933  0.00  0.00    +0.000 HD
ATOM     11  H   UNL     1      -9.919  -7.328  18.397  0.00  0.00    +0.000 HD
BRANCH   9  12
ATOM     12  C   UNL     1      -9.172  -9.262  17.938  0.00  0.00    +0.000 A 
ATOM     13  C   UNL     1      -8.852  -9.661  19.221  0.00  0.00    +0.000 A 
ATOM     14  N   UNL     1      -8.495 -10.983  19.181  0.00  0.00    +0.000 N 
ATOM     15  C   UNL     1      -8.580 -11.460  17.893  0.00  0.00    +0.000 A 
ATOM     16  C   UNL     1      -8.339 -12.742  17.383  0.00  0.00    +0.000 A 
ATOM     17  C   UNL     1      -8.508 -12.935  16.009  0.00  0.00    +0.000 A 
ATOM     18  C   UNL     1      -8.897 -11.889  15.177  0.00  0.00    +0.000 A 
ATOM     19  C   UNL     1      -9.128 -10.612  15.703  0.00  0.00    +0.000 A 
ATOM     20  C   UNL     1      -8.977 -10.396  17.086  0.00  0.00    +0.000 A 
ATOM     21  H   UNL     1      -8.856  -9.121  20.159  0.00  0.00    +0.000 HD
ATOM     22  H   UNL     1      -8.225 -11.539  19.980  0.00  0.00    +0.000 HD
ATOM     23  H   UNL     1      -8.037 -13.562  18.027  0.00  0.00    +0.000 HD
ATOM     24  H   UNL     1      -8.336 -13.922  15.583  0.00  0.00    +0.000 HD
ATOM     25  H   UNL     1      -9.024 -12.060  14.111  0.00  0.00    +0.000 HD
ATOM     26  H   UNL     1      -9.432  -9.806  15.043  0.00  0.00    +0.000 HD
ENDBRANCH   9  12
ENDBRANCH   4   9
ENDBRANCH   1   4
BRANCH   1  27
ATOM     27  O   UNL     1     -10.692  -5.992  16.097  0.00  0.00    +0.000 OA
BRANCH  27  28
ATOM     28  C   UNL     1     -10.982  -4.736  16.538  0.00  0.00    +0.000 A 
ATOM     29  C   UNL     1     -11.516  -3.861  15.607  0.00  0.00    +0.000 A 
ATOM     30  N   UNL     1     -11.807  -2.572  15.865  0.00  0.00    +0.000 NA
ATOM     31  C   UNL     1     -11.551  -2.123  17.120  0.00  0.00    +0.000 A 
ATOM     32 CL   UNL     1     -11.843  -0.425  17.218  0.00  0.00    +0.000 Cl
ATOM     33  C   UNL     1     -11.050  -2.908  18.171  0.00  0.00    +0.000 A 
ATOM     34  C   UNL     1     -10.783  -4.251  17.829  0.00  0.00    +0.000 A 
ATOM     35  H   UNL     1     -11.717  -4.186  14.590  0.00  0.00    +0.000 HD
ATOM     36  H   UNL     1     -10.412  -4.919  18.599  0.00  0.00    +0.000 HD
BRANCH  33  37
ATOM     37  C   UNL     1     -10.769  -2.444  19.558  0.00  0.00    +0.000 A 
ATOM     38  C   UNL     1     -11.818  -2.114  20.440  0.00  0.00    +0.000 A 
ATOM     39  C   UNL     1     -11.577  -1.656  21.741  0.00  0.00    +0.000 A 
ATOM     40  C   UNL     1     -10.267  -1.558  22.221  0.00  0.00    +0.000 A 
ATOM     41  C   UNL     1      -9.959  -1.153  23.523  0.00  0.00    +0.000 A 
ATOM     42  N   UNL     1      -8.705  -1.079  24.025  0.00  0.00    +0.000 NA
ATOM     43  C   UNL     1      -7.703  -1.425  23.190  0.00  0.00    +0.000 A 
ATOM     44  C   UNL     1      -7.892  -1.820  21.875  0.00  0.00    +0.000 A 
ATOM     45  C   UNL     1      -9.196  -1.886  21.373  0.00  0.00    +0.000 A 
ATOM     46  C   UNL     1      -9.459  -2.282  20.048  0.00  0.00    +0.000 A 
ATOM     47  H   UNL     1     -12.857  -2.212  20.131  0.00  0.00    +0.000 HD
ATOM     48  H   UNL     1     -12.421  -1.395  22.376  0.00  0.00    +0.000 HD
ATOM     49  H   UNL     1     -10.739  -0.872  24.225  0.00  0.00    +0.000 HD
ATOM     50  H   UNL     1      -6.704  -1.382  23.619  0.00  0.00    +0.000 HD
ATOM     51  H   UNL     1      -7.037  -2.090  21.265  0.00  0.00    +0.000 HD
ATOM     52  H   UNL     1      -8.608  -2.466  19.397  0.00  0.00    +0.000 HD
ENDBRANCH  33  37
ENDBRANCH  27  28
ENDBRANCH   1  27
TORSDOF 7
ENDMDL
MODEL 9
REMARK VINA RESULT:   -10.803      5.831      8.701
REMARK INTER + INTRA:         -15.881
REMARK INTER:                 -15.062
REMARK INTRA:                  -0.819
REMARK UNBOUND:                -0.974
REMARK  Name = 
REMARK  7 active torsions:
REMARK  status: ('A' for Active; 'I' for Inactive)
REMARK    1  A    between atoms: N_1  and  C_2
REMARK    2  A    between atoms: C_2  and  C_3
REMARK    3  A    between atoms: C_2  and  C_22
REMARK    4  A    between atoms: C_3  and  O_4
REMARK    5  A    between atoms: O_4  and  C_5
REMARK    6  A    between atoms: C_10  and  C_11
REMARK    7  A    between atoms: C_22  and  C_23
REMARK                            x       y       z     vdW  Elec       q    Type
REMARK                         _______ _______ _______ _____ _____    ______ ____
ROOT
ATOM      1  C   UNL     1      -9.974  -6.978  16.330  0.00  0.00    +0.000 C 
ATOM      2  H   UNL     1      -8.980  -6.732  16.724  0.00  0.00    +0.000 HD
ATOM      3  H   UNL     1     -10.004  -6.763  15.253  0.00  0.00    +0.000 HD
ENDROOT
BRANCH   1   4
ATOM      4  C   UNL     1     -10.251  -8.478  16.543  0.00  0.00    +0.000 C 
ATOM      5  H   UNL     1     -10.475  -8.638  17.605  0.00  0.00    +0.000 HD
BRANCH   4   6
ATOM      6  N   UNL     1     -11.462  -8.852  15.784  0.00  0.00    +0.000 NA
ATOM      7  H   UNL     1     -11.889  -9.670  16.223  0.00  0.00    +0.000 HD
ATOM      8  H   UNL     1     -11.176  -9.162  14.854  0.00  0.00    +0.000 HD
ENDBRANCH   4   6
BRANCH   4   9
ATOM      9  C   UNL     1      -8.998  -9.307  16.168  0.00  0.00    +0.000 C 
ATOM     10  H   UNL     1      -8.103  -8.690  16.325  0.00  0.00    +0.000 HD
ATOM     11  H   UNL     1      -9.006  -9.560  15.101  0.00  0.00    +0.000 HD
BRANCH   9  12
ATOM     12  C   UNL     1      -8.857 -10.568  16.965  0.00  0.00    +0.000 A 
ATOM     13  C   UNL     1      -8.789 -10.677  18.340  0.00  0.00    +0.000 A 
ATOM     14  N   UNL     1      -8.700 -12.007  18.658  0.00  0.00    +0.000 N 
ATOM     15  C   UNL     1      -8.713 -12.772  17.515  0.00  0.00    +0.000 A 
ATOM     16  C   UNL     1      -8.669 -14.163  17.354  0.00  0.00    +0.000 A 
ATOM     17  C   UNL     1      -8.697 -14.665  16.049  0.00  0.00    +0.000 A 
ATOM     18  C   UNL     1      -8.761 -13.813  14.951  0.00  0.00    +0.000 A 
ATOM     19  C   UNL     1      -8.799 -12.425  15.130  0.00  0.00    +0.000 A 
ATOM     20  C   UNL     1      -8.785 -11.895  16.435  0.00  0.00    +0.000 A 
ATOM     21  H   UNL     1      -8.804  -9.926  19.119  0.00  0.00    +0.000 HD
ATOM     22  H   UNL     1      -8.649 -12.381  19.596  0.00  0.00    +0.000 HD
ATOM     23  H   UNL     1      -8.620 -14.832  18.206  0.00  0.00    +0.000 HD
ATOM     24  H   UNL     1      -8.671 -15.741  15.890  0.00  0.00    +0.000 HD
ATOM     25  H   UNL     1      -8.783 -14.224  13.944  0.00  0.00    +0.000 HD
ATOM     26  H   UNL     1      -8.851 -11.772  14.265  0.00  0.00    +0.000 HD
ENDBRANCH   9  12
ENDBRANCH   4   9
ENDBRANCH   1   4
BRANCH   1  27
ATOM     27  O   UNL     1     -10.970  -6.205  17.015  0.00  0.00    +0.000 OA
BRANCH  27  28
ATOM     28  C   UNL     1     -11.297  -5.001  16.469  0.00  0.00    +0.000 A 
ATOM     29  C   UNL     1     -11.815  -4.050  17.332  0.00  0.00    +0.000 A 
ATOM     30  N   UNL     1     -12.237  -2.830  16.944  0.00  0.00    +0.000 NA
ATOM     31  C   UNL     1     -12.141  -2.539  15.622  0.00  0.00    +0.000 A 
ATOM     32 CL   UNL     1     -12.863  -1.006  15.295  0.00  0.00    +0.000 Cl
ATOM     33  C   UNL     1     -11.600  -3.390  14.645  0.00  0.00    +0.000 A 
ATOM     34  C   UNL     1     -11.167  -4.643  15.128  0.00  0.00    +0.000 A 
ATOM     35  H   UNL     1     -11.919  -4.258  18.393  0.00  0.00    +0.000 HD
ATOM     36  H   UNL     1     -10.720  -5.343  14.430  0.00  0.00    +0.000 HD
BRANCH  33  37
ATOM     37  C   UNL     1     -11.475  -3.092  13.191  0.00  0.00    +0.000 A 
ATOM     38  C   UNL     1     -12.461  -3.516  12.275  0.00  0.00    +0.000 A 
ATOM     39  C   UNL     1     -12.353  -3.267  10.902  0.00  0.00    +0.000 A 
ATOM     40  C   UNL     1     -11.269  -2.537  10.402  0.00  0.00    +0.000 A 
ATOM     41  C   UNL     1     -11.125  -2.214   9.050  0.00  0.00    +0.000 A 
ATOM     42  N   UNL     1     -10.106  -1.484   8.542  0.00  0.00    +0.000 NA
ATOM     43  C   UNL     1      -9.179  -1.052   9.423  0.00  0.00    +0.000 A 
ATOM     44  C   UNL     1      -9.211  -1.333  10.780  0.00  0.00    +0.000 A 
ATOM     45  C   UNL     1     -10.272  -2.092  11.285  0.00  0.00    +0.000 A 
ATOM     46  C   UNL     1     -10.368  -2.411  12.653  0.00  0.00    +0.000 A 
ATOM     47  H   UNL     1     -13.345  -4.051  12.617  0.00  0.00    +0.000 HD
ATOM     48  H   UNL     1     -13.131  -3.631  10.234  0.00  0.00    +0.000 HD
ATOM     49  H   UNL     1     -11.854  -2.539   8.312  0.00  0.00    +0.000 HD
ATOM     50  H   UNL     1      -8.381  -0.448   8.999  0.00  0.00    +0.000 HD
ATOM     51  H   UNL     1      -8.434  -0.945  11.429  0.00  0.00    +0.000 HD
ATOM     52  H   UNL     1      -9.547  -2.110  13.301  0.00  0.00    +0.000 HD
ENDBRANCH  33  37
ENDBRANCH  27  28
ENDBRANCH   1  27
TORSDOF 7
ENDMDL
