REMARK  Name = 
REMARK  6 active torsions:
REMARK  status: ('A' for Active; 'I' for Inactive)
REMARK    1  A    between atoms: C_1  and  O_2
REMARK    2  A    between atoms: O_2  and  C_3
REMARK    3  A    between atoms: C_4  and  N_5
REMARK    4  A    between atoms: N_5  and  C_6
REMARK    5  A    between atoms: C_7  and  C_8
REMARK    6  A    between atoms: C_13  and  C_14
REMARK                            x       y       z     vdW  Elec       q    Type
REMARK                         _______ _______ _______ _____ _____    ______ ____
ROOT
ATOM      1  C   UNL     1       1.516   0.088   0.841  0.00  0.00    +0.000 C 
ATOM      2  C   UNL     1       1.781   1.594   0.708  0.00  0.00    +0.000 C 
ATOM      3  C   UNL     1       0.365   2.293   0.661  0.00  0.00    +0.000 C 
ATOM      4  C   UNL     1      -0.653   1.806   1.780  0.00  0.00    +0.000 C 
ATOM      5  O   UNL     1      -0.002   0.989   2.721  0.00  0.00    +0.000 OA
ATOM      6  C   UNL     1       0.681  -0.167   2.161  0.00  0.00    +0.000 C 
ATOM      7  N   UNL     1      -0.303  -1.244   1.941  0.00  0.00    +0.000 N 
ATOM      8  C   UNL     1       0.007  -2.607   1.759  0.00  0.00    +0.000 A 
ATOM      9  C   UNL     1       0.966  -3.398   2.442  0.00  0.00    +0.000 A 
ATOM     10  C   UNL     1       0.975  -4.779   2.266  0.00  0.00    +0.000 A 
ATOM     11  C   UNL     1       0.090  -5.384   1.387  0.00  0.00    +0.000 A 
ATOM     12  C   UNL     1      -0.728  -4.613   0.546  0.00  0.00    +0.000 A 
ATOM     13  C   UNL     1      -0.767  -3.210   0.682  0.00  0.00    +0.000 A 
ATOM     14  C   UNL     1      -1.456  -2.145   0.027  0.00  0.00    +0.000 A 
ATOM     15  C   UNL     1      -1.802  -1.977  -1.350  0.00  0.00    +0.000 A 
ATOM     16  C   UNL     1      -2.258  -0.672  -1.693  0.00  0.00    +0.000 A 
ATOM     17  C   UNL     1      -2.399   0.188  -0.597  0.00  0.00    +0.000 A 
ATOM     18  C   UNL     1      -2.930   1.486  -0.537  0.00  0.00    +0.000 A 
ATOM     19  C   UNL     1      -3.442   2.478  -1.381  0.00  0.00    +0.000 A 
ATOM     20  C   UNL     1      -4.367   3.375  -0.835  0.00  0.00    +0.000 A 
ATOM     21  C   UNL     1      -4.836   3.210   0.471  0.00  0.00    +0.000 A 
ATOM     22  C   UNL     1      -4.154   2.393   1.375  0.00  0.00    +0.000 A 
ATOM     23  C   UNL     1      -3.019   1.750   0.871  0.00  0.00    +0.000 A 
ATOM     24  N   UNL     1      -1.917   1.125   1.484  0.00  0.00    +0.000 N 
ATOM     25  C   UNL     1      -1.902   0.042   0.680  0.00  0.00    +0.000 A 
ATOM     26  C   UNL     1      -1.268  -1.142   0.985  0.00  0.00    +0.000 A 
ATOM     27  C   UNL     1      -2.225  -0.457  -3.093  0.00  0.00    +0.000 C 
ATOM     28  O   UNL     1      -2.416   0.519  -3.808  0.00  0.00    +0.000 OA
ATOM     29  N   UNL     1      -1.727  -1.663  -3.575  0.00  0.00    +0.000 N 
ATOM     30  C   UNL     1      -1.432  -2.698  -2.573  0.00  0.00    +0.000 C 
ATOM     31  H   UNL     1       2.424  -0.520   0.922  0.00  0.00    +0.000 HD
ATOM     32  H   UNL     1       2.281   1.946   1.619  0.00  0.00    +0.000 HD
ATOM     33  H   UNL     1       0.548   3.360   0.853  0.00  0.00    +0.000 HD
ATOM     34  H   UNL     1      -0.095   2.245  -0.331  0.00  0.00    +0.000 HD
ATOM     35  H   UNL     1      -0.985   2.706   2.318  0.00  0.00    +0.000 HD
ATOM     36  H   UNL     1       1.655  -2.968   3.156  0.00  0.00    +0.000 HD
ATOM     37  H   UNL     1       1.654  -5.379   2.867  0.00  0.00    +0.000 HD
ATOM     38  H   UNL     1       0.036  -6.469   1.359  0.00  0.00    +0.000 HD
ATOM     39  H   UNL     1      -1.410  -5.119  -0.133  0.00  0.00    +0.000 HD
ATOM     40  H   UNL     1      -3.165   2.521  -2.427  0.00  0.00    +0.000 HD
ATOM     41  H   UNL     1      -4.783   4.156  -1.464  0.00  0.00    +0.000 HD
ATOM     42  H   UNL     1      -5.716   3.758   0.800  0.00  0.00    +0.000 HD
ATOM     43  H   UNL     1      -4.492   2.261   2.399  0.00  0.00    +0.000 HD
ATOM     44  H   UNL     1      -1.353  -1.652  -4.514  0.00  0.00    +0.000 HD
ATOM     45  H   UNL     1      -2.047  -3.569  -2.785  0.00  0.00    +0.000 HD
ATOM     46  H   UNL     1      -0.364  -2.921  -2.617  0.00  0.00    +0.000 HD
ENDROOT
BRANCH   6  47
ATOM     47  C   UNL     1       1.632  -0.417   3.356  0.00  0.00    +0.000 C 
ATOM     48  H   UNL     1       1.972   0.538   3.780  0.00  0.00    +0.000 HD
ATOM     49  H   UNL     1       1.121  -0.940   4.166  0.00  0.00    +0.000 HD
ATOM     50  H   UNL     1       2.529  -0.971   3.069  0.00  0.00    +0.000 HD
ENDBRANCH   6  47
BRANCH   2  51
ATOM     51  N   UNL     1       2.822   1.849  -0.378  0.00  0.00    +0.000 N 
ATOM     52  C   UNL     1       2.628   2.723  -1.449  0.00  0.00    +0.000 C 
ATOM     53  O   UNL     1       1.664   3.479  -1.536  0.00  0.00    +0.000 OA
BRANCH  51  54
ATOM     54  C   UNL     1       4.130   1.185  -0.237  0.00  0.00    +0.000 C 
ATOM     55  H   UNL     1       4.893   1.939  -0.020  0.00  0.00    +0.000 HD
ATOM     56  H   UNL     1       4.137   0.443   0.561  0.00  0.00    +0.000 HD
ATOM     57  H   UNL     1       4.405   0.668  -1.160  0.00  0.00    +0.000 HD
ENDBRANCH  51  54
BRANCH  52  58
ATOM     58  C   UNL     1       3.680   2.716  -2.553  0.00  0.00    +0.000 C 
ATOM     59  H   UNL     1       4.587   3.229  -2.223  0.00  0.00    +0.000 HD
ATOM     60  H   UNL     1       3.288   3.231  -3.436  0.00  0.00    +0.000 HD
ATOM     61  H   UNL     1       3.923   1.701  -2.883  0.00  0.00    +0.000 HD
ENDBRANCH  52  58
ENDBRANCH   2  51
BRANCH   1  62
ATOM     62  O   UNL     1       0.867  -0.357  -0.361  0.00  0.00    +0.000 OA
BRANCH  62  63
ATOM     63  C   UNL     1       1.651  -0.581  -1.521  0.00  0.00    +0.000 C 
ATOM     64  H   UNL     1       1.217  -1.408  -2.087  0.00  0.00    +0.000 HD
ATOM     65  H   UNL     1       2.677  -0.859  -1.283  0.00  0.00    +0.000 HD
ATOM     66  H   UNL     1       1.612   0.295  -2.173  0.00  0.00    +0.000 HD
ENDBRANCH  62  63
ENDBRANCH   1  62
TORSDOF 6
