REMARK  Name = 
REMARK  6 active torsions:
REMARK  status: ('A' for Active; 'I' for Inactive)
REMARK    1  A    between atoms: C_1  and  O_2
REMARK    2  A    between atoms: O_2  and  C_3
REMARK    3  A    between atoms: C_4  and  N_5
REMARK    4  A    between atoms: N_5  and  C_6
REMARK    5  A    between atoms: C_7  and  C_9
REMARK    6  A    between atoms: C_18  and  C_19
REMARK                            x       y       z     vdW  Elec       q    Type
REMARK                         _______ _______ _______ _____ _____    ______ ____
ROOT
ATOM      1  C   UNL     1       1.661  -0.358  -0.442  0.00  0.00    +0.000 C 
ATOM      2  C   UNL     1       2.054   1.108  -0.785  0.00  0.00    +0.000 C 
ATOM      3  C   UNL     1       0.795   1.901  -1.511  0.00  0.00    +0.000 C 
ATOM      4  C   UNL     1      -0.405   2.078  -0.331  0.00  0.00    +0.000 C 
ATOM      5  O   UNL     1      -0.012   1.059   0.564  0.00  0.00    +0.000 OA
ATOM      6  C   UNL     1       0.160  -0.276  -0.083  0.00  0.00    +0.000 C 
ATOM      7  N   UNL     1      -0.750  -0.489  -1.247  0.00  0.00    +0.000 N 
ATOM      8  C   UNL     1      -0.849  -1.201  -2.475  0.00  0.00    +0.000 A 
ATOM      9  C   UNL     1       0.031  -1.421  -3.558  0.00  0.00    +0.000 A 
ATOM     10  C   UNL     1      -0.487  -1.706  -4.835  0.00  0.00    +0.000 A 
ATOM     11  C   UNL     1      -1.851  -1.723  -5.082  0.00  0.00    +0.000 A 
ATOM     12  C   UNL     1      -2.733  -1.636  -4.015  0.00  0.00    +0.000 A 
ATOM     13  C   UNL     1      -2.254  -1.561  -2.679  0.00  0.00    +0.000 A 
ATOM     14  C   UNL     1      -3.011  -1.121  -1.570  0.00  0.00    +0.000 A 
ATOM     15  C   UNL     1      -3.300  -1.966  -0.436  0.00  0.00    +0.000 A 
ATOM     16  C   UNL     1      -3.773  -1.200   0.658  0.00  0.00    +0.000 A 
ATOM     17  C   UNL     1      -3.309   0.138   0.568  0.00  0.00    +0.000 A 
ATOM     18  C   UNL     1      -3.023   0.996   1.661  0.00  0.00    +0.000 A 
ATOM     19  C   UNL     1      -3.616   0.977   2.927  0.00  0.00    +0.000 A 
ATOM     20  C   UNL     1      -4.828   1.643   2.856  0.00  0.00    +0.000 A 
ATOM     21  C   UNL     1      -5.002   2.652   1.902  0.00  0.00    +0.000 A 
ATOM     22  C   UNL     1      -3.939   3.074   1.036  0.00  0.00    +0.000 A 
ATOM     23  C   UNL     1      -2.766   2.261   0.959  0.00  0.00    +0.000 A 
ATOM     24  N   UNL     1      -1.890   1.976  -0.238  0.00  0.00    +0.000 N 
ATOM     25  C   UNL     1      -2.509   0.767  -0.393  0.00  0.00    +0.000 A 
ATOM     26  C   UNL     1      -2.067  -0.146  -1.269  0.00  0.00    +0.000 A 
ATOM     27  C   UNL     1      -4.044  -2.073   1.755  0.00  0.00    +0.000 C 
ATOM     28  O   UNL     1      -4.685  -1.948   2.775  0.00  0.00    +0.000 OA
ATOM     29  N   UNL     1      -3.365  -3.203   1.379  0.00  0.00    +0.000 N 
ATOM     30  C   UNL     1      -2.720  -3.132   0.168  0.00  0.00    +0.000 C 
ATOM     31  O   UNL     1      -1.722  -3.795  -0.087  0.00  0.00    +0.000 OA
ATOM     32  H   UNL     1       2.248  -0.645   0.437  0.00  0.00    +0.000 HD
ATOM     33  H   UNL     1       2.015   1.658   0.133  0.00  0.00    +0.000 HD
ATOM     34  H   UNL     1       0.455   1.350  -2.395  0.00  0.00    +0.000 HD
ATOM     35  H   UNL     1       1.122   2.882  -1.872  0.00  0.00    +0.000 HD
ATOM     36  H   UNL     1      -0.211   3.068   0.093  0.00  0.00    +0.000 HD
ATOM     37  H   UNL     1       1.094  -1.241  -3.489  0.00  0.00    +0.000 HD
ATOM     38  H   UNL     1       0.194  -1.825  -5.673  0.00  0.00    +0.000 HD
ATOM     39  H   UNL     1      -2.241  -1.710  -6.100  0.00  0.00    +0.000 HD
ATOM     40  H   UNL     1      -3.798  -1.486  -4.207  0.00  0.00    +0.000 HD
ATOM     41  H   UNL     1      -3.563   0.094   3.567  0.00  0.00    +0.000 HD
ATOM     42  H   UNL     1      -5.655   1.269   3.456  0.00  0.00    +0.000 HD
ATOM     43  H   UNL     1      -6.009   3.046   1.769  0.00  0.00    +0.000 HD
ATOM     44  H   UNL     1      -4.161   3.809   0.268  0.00  0.00    +0.000 HD
ATOM     45  H   UNL     1      -3.038  -3.799   2.127  0.00  0.00    +0.000 HD
ENDROOT
BRANCH   6  46
ATOM     46  C   UNL     1      -0.076  -1.031   1.251  0.00  0.00    +0.000 C 
ATOM     47  H   UNL     1       0.755  -0.796   1.940  0.00  0.00    +0.000 HD
ATOM     48  H   UNL     1      -0.172  -2.117   1.165  0.00  0.00    +0.000 HD
ATOM     49  H   UNL     1      -0.928  -0.614   1.801  0.00  0.00    +0.000 HD
ENDBRANCH   6  46
BRANCH   2  50
ATOM     50  N   UNL     1       3.517   1.268  -1.010  0.00  0.00    +0.000 N 
ATOM     51  C   UNL     1       4.514   0.965   0.007  0.00  0.00    +0.000 C 
ATOM     52  O   UNL     1       5.663   0.673  -0.342  0.00  0.00    +0.000 OA
BRANCH  51  53
ATOM     53  C   UNL     1       4.308   0.993   1.520  0.00  0.00    +0.000 A 
ATOM     54  C   UNL     1       5.309   0.386   2.324  0.00  0.00    +0.000 A 
ATOM     55  C   UNL     1       5.326   0.515   3.725  0.00  0.00    +0.000 A 
ATOM     56  C   UNL     1       4.322   1.226   4.368  0.00  0.00    +0.000 A 
ATOM     57  C   UNL     1       3.299   1.780   3.612  0.00  0.00    +0.000 A 
ATOM     58  C   UNL     1       3.307   1.683   2.211  0.00  0.00    +0.000 A 
ATOM     59  H   UNL     1       6.130  -0.162   1.861  0.00  0.00    +0.000 HD
ATOM     60  H   UNL     1       6.140   0.087   4.307  0.00  0.00    +0.000 HD
ATOM     61  H   UNL     1       4.347   1.372   5.446  0.00  0.00    +0.000 HD
ATOM     62  H   UNL     1       2.505   2.338   4.104  0.00  0.00    +0.000 HD
ATOM     63  H   UNL     1       2.523   2.238   1.724  0.00  0.00    +0.000 HD
ENDBRANCH  51  53
BRANCH  50  64
ATOM     64  C   UNL     1       4.035   1.066  -2.357  0.00  0.00    +0.000 C 
ATOM     65  H   UNL     1       3.385   1.542  -3.092  0.00  0.00    +0.000 HD
ATOM     66  H   UNL     1       4.142  -0.006  -2.560  0.00  0.00    +0.000 HD
ATOM     67  H   UNL     1       5.034   1.515  -2.441  0.00  0.00    +0.000 HD
ENDBRANCH  50  64
ENDBRANCH   2  50
BRANCH   1  68
ATOM     68  O   UNL     1       2.016  -1.308  -1.447  0.00  0.00    +0.000 OA
BRANCH  68  69
ATOM     69  C   UNL     1       1.661  -2.664  -1.144  0.00  0.00    +0.000 C 
ATOM     70  H   UNL     1       0.604  -2.771  -0.890  0.00  0.00    +0.000 HD
ATOM     71  H   UNL     1       2.266  -3.053  -0.326  0.00  0.00    +0.000 HD
ATOM     72  H   UNL     1       1.832  -3.271  -2.040  0.00  0.00    +0.000 HD
ENDBRANCH  68  69
ENDBRANCH   1  68
TORSDOF 6
