REMARK  Name = 
REMARK  4 active torsions:
REMARK  status: ('A' for Active; 'I' for Inactive)
REMARK    1  A    between atoms: C_1  and  N_2
REMARK    2  A    between atoms: N_2  and  C_3
REMARK    3  A    between atoms: C_3  and  C_4
REMARK    4  A    between atoms: C_7  and  C_8
REMARK                            x       y       z     vdW  Elec       q    Type
REMARK                         _______ _______ _______ _____ _____    ______ ____
ROOT
ATOM      1  C   UNL     1      -2.032   0.285  -0.318  0.00  0.00    +0.000 A 
ATOM      2  C   UNL     1      -1.327  -0.170  -1.440  0.00  0.00    +0.000 A 
ATOM      3  C   UNL     1       0.073  -0.132  -1.470  0.00  0.00    +0.000 A 
ATOM      4  C   UNL     1       0.815   0.361  -0.383  0.00  0.00    +0.000 A 
ATOM      5  C   UNL     1       0.091   0.853   0.716  0.00  0.00    +0.000 A 
ATOM      6  C   UNL     1      -1.306   0.811   0.755  0.00  0.00    +0.000 A 
ATOM      7  H   UNL     1      -1.859  -0.572  -2.298  0.00  0.00    +0.000 HD
ATOM      8  H   UNL     1       0.589  -0.514  -2.349  0.00  0.00    +0.000 HD
ATOM      9  H   UNL     1       0.611   1.273   1.576  0.00  0.00    +0.000 HD
ATOM     10  H   UNL     1      -1.816   1.185   1.639  0.00  0.00    +0.000 HD
ENDROOT
BRANCH   4  11
ATOM     11  C   UNL     1       2.284   0.342  -0.399  0.00  0.00    +0.000 A 
ATOM     12  N   UNL     1       2.933   0.427  -1.601  0.00  0.00    +0.000 NA
ATOM     13  C   UNL     1       4.283   0.397  -1.607  0.00  0.00    +0.000 A 
ATOM     14  N   UNL     1       5.119   0.276  -0.557  0.00  0.00    +0.000 NA
ATOM     15  C   UNL     1       4.429   0.181   0.588  0.00  0.00    +0.000 A 
ATOM     16  N   UNL     1       4.952   0.029   1.842  0.00  0.00    +0.000 N 
ATOM     17  C   UNL     1       3.908  -0.038   2.719  0.00  0.00    +0.000 A 
ATOM     18  N   UNL     1       2.749   0.068   2.107  0.00  0.00    +0.000 NA
ATOM     19  C   UNL     1       3.056   0.205   0.765  0.00  0.00    +0.000 A 
ATOM     20  H   UNL     1       4.755   0.479  -2.582  0.00  0.00    +0.000 HD
ATOM     21  H   UNL     1       5.934  -0.030   2.060  0.00  0.00    +0.000 HD
ATOM     22  H   UNL     1       4.047  -0.165   3.785  0.00  0.00    +0.000 HD
ENDBRANCH   4  11
BRANCH   1  23
ATOM     23  C   UNL     1      -3.541   0.240  -0.266  0.00  0.00    +0.000 C 
ATOM     24  H   UNL     1      -3.884   0.690   0.674  0.00  0.00    +0.000 HD
ATOM     25  H   UNL     1      -3.931   0.858  -1.083  0.00  0.00    +0.000 HD
BRANCH  23  26
ATOM     26  N   UNL     1      -4.048  -1.131  -0.349  0.00  0.00    +0.000 NA
ATOM     27  H   UNL     1      -3.715  -1.558  -1.211  0.00  0.00    +0.000 HD
BRANCH  26  28
ATOM     28  C   UNL     1      -5.503  -1.149  -0.333  0.00  0.00    +0.000 C 
ATOM     29  H   UNL     1      -5.855  -2.182  -0.405  0.00  0.00    +0.000 HD
ATOM     30  H   UNL     1      -5.921  -0.591  -1.177  0.00  0.00    +0.000 HD
ATOM     31  H   UNL     1      -5.893  -0.732   0.601  0.00  0.00    +0.000 HD
ENDBRANCH  26  28
ENDBRANCH  23  26
ENDBRANCH   1  23
TORSDOF 4
