REMARK  Name = 
REMARK  6 active torsions:
REMARK  status: ('A' for Active; 'I' for Inactive)
REMARK    1  A    between atoms: C_2  and  C_3
REMARK    2  A    between atoms: C_6  and  C_7
REMARK    3  A    between atoms: C_16  and  O_17
REMARK    4  A    between atoms: C_18  and  O_19
REMARK    5  A    between atoms: C_25  and  O_26
REMARK    6  A    between atoms: C_27  and  O_28
REMARK                            x       y       z     vdW  Elec       q    Type
REMARK                         _______ _______ _______ _____ _____    ______ ____
ROOT
ATOM      1  O   UNL     1      -1.376  -1.592   2.341  0.00  0.00    +0.000 OA
ATOM      2  C   UNL     1      -1.112  -0.965   1.310  0.00  0.00    +0.000 C 
ATOM      3  N   UNL     1       0.092  -0.229   1.200  0.00  0.00    +0.000 N 
ATOM      4  C   UNL     1       0.519   0.476   0.056  0.00  0.00    +0.000 A 
ATOM      5  C   UNL     1       0.213   0.488  -1.311  0.00  0.00    +0.000 A 
ATOM      6  C   UNL     1       0.097   1.766  -1.849  0.00  0.00    +0.000 A 
ATOM      7  C   UNL     1       0.432   2.892  -1.105  0.00  0.00    +0.000 A 
ATOM      8  C   UNL     1       1.187   2.773   0.058  0.00  0.00    +0.000 A 
ATOM      9  C   UNL     1       1.305   1.480   0.590  0.00  0.00    +0.000 A 
ATOM     10  C   UNL     1       2.066   0.729   1.487  0.00  0.00    +0.000 A 
ATOM     11  C   UNL     1       3.429   0.561   1.829  0.00  0.00    +0.000 A 
ATOM     12  C   UNL     1       3.741  -0.210   2.952  0.00  0.00    +0.000 A 
ATOM     13  C   UNL     1       2.720  -0.605   3.806  0.00  0.00    +0.000 A 
ATOM     14  C   UNL     1       1.375  -0.515   3.427  0.00  0.00    +0.000 A 
ATOM     15  C   UNL     1       1.110  -0.060   2.135  0.00  0.00    +0.000 A 
ATOM     16  H   UNL     1      -0.108  -0.398  -1.836  0.00  0.00    +0.000 HD
ATOM     17  H   UNL     1       1.538   3.643   0.598  0.00  0.00    +0.000 HD
ATOM     18  H   UNL     1       4.206   0.928   1.166  0.00  0.00    +0.000 HD
ATOM     19  H   UNL     1       4.778  -0.444   3.164  0.00  0.00    +0.000 HD
ENDROOT
BRANCH   2  20
ATOM     20  C   UNL     1      -2.037  -1.137   0.170  0.00  0.00    +0.000 A 
ATOM     21  C   UNL     1      -2.588  -0.029  -0.483  0.00  0.00    +0.000 A 
ATOM     22  C   UNL     1      -2.855  -0.134  -1.851  0.00  0.00    +0.000 A 
ATOM     23  C   UNL     1      -2.593  -1.332  -2.532  0.00  0.00    +0.000 A 
ATOM     24  C   UNL     1      -2.270  -2.490  -1.790  0.00  0.00    +0.000 A 
ATOM     25  C   UNL     1      -1.995  -2.395  -0.434  0.00  0.00    +0.000 A 
ATOM     26  H   UNL     1      -2.610   0.948  -0.008  0.00  0.00    +0.000 HD
ATOM     27  H   UNL     1      -3.078   0.778  -2.411  0.00  0.00    +0.000 HD
ATOM     28  H   UNL     1      -2.093  -3.443  -2.296  0.00  0.00    +0.000 HD
ATOM     29  H   UNL     1      -1.609  -3.247   0.115  0.00  0.00    +0.000 HD
BRANCH  23  30
ATOM     30  C   UNL     1      -2.411  -1.360  -4.032  0.00  0.00    +0.000 C 
ATOM     31  F   UNL     1      -2.412  -0.118  -4.593  0.00  0.00    +0.000 F 
ATOM     32  F   UNL     1      -1.205  -1.896  -4.382  0.00  0.00    +0.000 F 
ATOM     33  F   UNL     1      -3.355  -2.087  -4.682  0.00  0.00    +0.000 F 
ENDBRANCH  23  30
ENDBRANCH   2  20
BRANCH   6  34
ATOM     34  O   UNL     1      -0.449   1.961  -3.088  0.00  0.00    +0.000 OA
ATOM     35  H   UNL     1      -0.294   1.156  -3.616  0.00  0.00    +0.000 HD
ENDBRANCH   6  34
BRANCH   7  36
ATOM     36  O   UNL     1       0.019   4.123  -1.528  0.00  0.00    +0.000 OA
ATOM     37  H   UNL     1      -0.569   3.938  -2.289  0.00  0.00    +0.000 HD
ENDBRANCH   7  36
BRANCH  13  38
ATOM     38  O   UNL     1       2.992  -1.113   5.047  0.00  0.00    +0.000 OA
ATOM     39  H   UNL     1       3.955  -1.085   5.175  0.00  0.00    +0.000 HD
ENDBRANCH  13  38
BRANCH  14  40
ATOM     40  O   UNL     1       0.393  -0.818   4.320  0.00  0.00    +0.000 OA
ATOM     41  H   UNL     1       0.851  -0.940   5.174  0.00  0.00    +0.000 HD
ENDBRANCH  14  40
TORSDOF 6
