MODEL 1
REMARK VINA RESULT:    -8.218      0.000      0.000
REMARK INTER + INTRA:         -14.010
REMARK INTER:                 -12.783
REMARK INTRA:                  -1.227
REMARK UNBOUND:                -1.227
REMARK  Name = 
REMARK  10 active torsions:
REMARK  status: ('A' for Active; 'I' for Inactive)
REMARK    1  A    between atoms: C_1  and  O_2
REMARK    2  A    between atoms: O_2  and  C_3
REMARK    3  A    between atoms: C_3  and  C_5
REMARK    4  A    between atoms: C_5  and  C_6
REMARK    5  A    between atoms: C_6  and  N_7
REMARK    6  A    between atoms: N_7  and  C_8
REMARK    7  A    between atoms: C_8  and  C_9
REMARK    8  A    between atoms: C_9  and  N_10
REMARK    9  A    between atoms: N_10  and  S_11
REMARK   10  A    between atoms: S_11  and  C_14
REMARK                            x       y       z     vdW  Elec       q    Type
REMARK                         _______ _______ _______ _____ _____    ______ ____
ROOT
ATOM      1  C   UNL     1     -10.709  -6.157  17.600  0.00  0.00    +0.000 C 
ATOM      2  H   UNL     1     -11.153  -6.011  16.610  0.00  0.00    +0.000 HD
ATOM      3  H   UNL     1     -11.426  -6.669  18.247  0.00  0.00    +0.000 HD
ENDROOT
BRANCH   1   4
ATOM      4  C   UNL     1     -10.369  -4.794  18.218  0.00  0.00    +0.000 C 
ATOM      5  H   UNL     1     -10.720  -3.999  17.548  0.00  0.00    +0.000 HD
ATOM      6  H   UNL     1     -10.897  -4.682  19.171  0.00  0.00    +0.000 HD
BRANCH   4   7
ATOM      7  N   UNL     1      -8.914  -4.673  18.418  0.00  0.00    +0.000 NA
ATOM      8  H   UNL     1      -8.512  -5.605  18.534  0.00  0.00    +0.000 HD
BRANCH   7   9
ATOM      9  C   UNL     1      -8.613  -3.861  19.603  0.00  0.00    +0.000 C 
ATOM     10  H   UNL     1      -8.232  -2.882  19.289  0.00  0.00    +0.000 HD
ATOM     11  H   UNL     1      -9.531  -3.693  20.180  0.00  0.00    +0.000 HD
BRANCH   9  12
ATOM     12  C   UNL     1      -7.571  -4.536  20.499  0.00  0.00    +0.000 C 
ATOM     13  H   UNL     1      -6.730  -3.860  20.684  0.00  0.00    +0.000 HD
ATOM     14  H   UNL     1      -8.020  -4.824  21.457  0.00  0.00    +0.000 HD
BRANCH  12  15
ATOM     15  C   UNL     1      -7.044  -5.779  19.824  0.00  0.00    +0.000 C 
ATOM     16  O   UNL     1      -7.559  -6.892  19.900  0.00  0.00    +0.000 OA
BRANCH  15  17
ATOM     17  O   UNL     1      -5.920  -5.496  19.109  0.00  0.00    +0.000 OA
BRANCH  17  18
ATOM     18  C   UNL     1      -4.732  -5.445  19.905  0.00  0.00    +0.000 C 
ATOM     19  H   UNL     1      -4.710  -4.486  20.428  0.00  0.00    +0.000 HD
ATOM     20  H   UNL     1      -3.842  -5.513  19.270  0.00  0.00    +0.000 HD
ATOM     21  H   UNL     1      -4.735  -6.247  20.651  0.00  0.00    +0.000 HD
ENDBRANCH  17  18
ENDBRANCH  15  17
ENDBRANCH  12  15
ENDBRANCH   9  12
ENDBRANCH   7   9
ENDBRANCH   4   7
ENDBRANCH   1   4
BRANCH   1  22
ATOM     22  N   UNL     1      -9.510  -7.018  17.471  0.00  0.00    +0.000 NA
ATOM     23  H   UNL     1      -9.146  -7.372  18.354  0.00  0.00    +0.000 HD
BRANCH  22  24
ATOM     24  S   UNL     1      -9.726  -8.305  16.373  0.00  0.00    +0.000 S 
ATOM     25  O   UNL     1     -11.140  -8.427  16.120  0.00  0.00    +0.000 OA
ATOM     26  O   UNL     1      -8.791  -8.083  15.284  0.00  0.00    +0.000 OA
BRANCH  24  27
ATOM     27  C   UNL     1      -9.194  -9.746  17.285  0.00  0.00    +0.000 A 
ATOM     28  C   UNL     1      -8.939  -9.570  18.657  0.00  0.00    +0.000 A 
ATOM     29  C   UNL     1      -8.462 -10.626  19.425  0.00  0.00    +0.000 A 
ATOM     30  C   UNL     1      -8.240 -11.864  18.831  0.00  0.00    +0.000 A 
ATOM     31  C   UNL     1      -8.490 -12.060  17.460  0.00  0.00    +0.000 A 
ATOM     32  C   UNL     1      -8.261 -13.303  16.864  0.00  0.00    +0.000 A 
ATOM     33  N   UNL     1      -8.458 -13.582  15.558  0.00  0.00    +0.000 NA
ATOM     34  C   UNL     1      -8.898 -12.567  14.795  0.00  0.00    +0.000 A 
ATOM     35  C   UNL     1      -9.165 -11.294  15.279  0.00  0.00    +0.000 A 
ATOM     36  C   UNL     1      -8.967 -11.002  16.650  0.00  0.00    +0.000 A 
ATOM     37  H   UNL     1      -9.092  -8.603  19.135  0.00  0.00    +0.000 HD
ATOM     38  H   UNL     1      -8.251 -10.483  20.482  0.00  0.00    +0.000 HD
ATOM     39  H   UNL     1      -7.861 -12.680  19.443  0.00  0.00    +0.000 HD
ATOM     40  H   UNL     1      -7.895 -14.147  17.445  0.00  0.00    +0.000 HD
ATOM     41  H   UNL     1      -9.035 -12.801  13.742  0.00  0.00    +0.000 HD
ATOM     42  H   UNL     1      -9.511 -10.550  14.570  0.00  0.00    +0.000 HD
ENDBRANCH  24  27
ENDBRANCH  22  24
ENDBRANCH   1  22
TORSDOF 10
ENDMDL
MODEL 2
REMARK VINA RESULT:    -8.049      1.403      2.406
REMARK INTER + INTRA:         -13.746
REMARK INTER:                 -12.712
REMARK INTRA:                  -1.034
REMARK UNBOUND:                -1.227
REMARK  Name = 
REMARK  10 active torsions:
REMARK  status: ('A' for Active; 'I' for Inactive)
REMARK    1  A    between atoms: C_1  and  O_2
REMARK    2  A    between atoms: O_2  and  C_3
REMARK    3  A    between atoms: C_3  and  C_5
REMARK    4  A    between atoms: C_5  and  C_6
REMARK    5  A    between atoms: C_6  and  N_7
REMARK    6  A    between atoms: N_7  and  C_8
REMARK    7  A    between atoms: C_8  and  C_9
REMARK    8  A    between atoms: C_9  and  N_10
REMARK    9  A    between atoms: N_10  and  S_11
REMARK   10  A    between atoms: S_11  and  C_14
REMARK                            x       y       z     vdW  Elec       q    Type
REMARK                         _______ _______ _______ _____ _____    ______ ____
ROOT
ATOM      1  C   UNL     1     -10.137  -5.478  17.230  0.00  0.00    +0.000 C 
ATOM      2  H   UNL     1     -10.267  -4.999  16.254  0.00  0.00    +0.000 HD
ATOM      3  H   UNL     1     -11.074  -5.959  17.524  0.00  0.00    +0.000 HD
ENDROOT
BRANCH   1   4
ATOM      4  C   UNL     1      -9.772  -4.420  18.279  0.00  0.00    +0.000 C 
ATOM      5  H   UNL     1      -9.038  -3.728  17.850  0.00  0.00    +0.000 HD
ATOM      6  H   UNL     1     -10.664  -3.839  18.539  0.00  0.00    +0.000 HD
BRANCH   4   7
ATOM      7  N   UNL     1      -9.211  -5.064  19.479  0.00  0.00    +0.000 NA
ATOM      8  H   UNL     1      -9.938  -5.137  20.194  0.00  0.00    +0.000 HD
BRANCH   7   9
ATOM      9  C   UNL     1      -8.081  -4.293  20.010  0.00  0.00    +0.000 C 
ATOM     10  H   UNL     1      -7.726  -3.590  19.247  0.00  0.00    +0.000 HD
ATOM     11  H   UNL     1      -8.407  -3.707  20.877  0.00  0.00    +0.000 HD
BRANCH   9  12
ATOM     12  C   UNL     1      -6.922  -5.204  20.423  0.00  0.00    +0.000 C 
ATOM     13  H   UNL     1      -6.292  -4.708  21.170  0.00  0.00    +0.000 HD
ATOM     14  H   UNL     1      -7.305  -6.142  20.843  0.00  0.00    +0.000 HD
BRANCH  12  15
ATOM     15  C   UNL     1      -6.071  -5.529  19.221  0.00  0.00    +0.000 C 
ATOM     16  O   UNL     1      -6.493  -5.997  18.167  0.00  0.00    +0.000 OA
BRANCH  15  17
ATOM     17  O   UNL     1      -4.766  -5.221  19.461  0.00  0.00    +0.000 OA
BRANCH  17  18
ATOM     18  C   UNL     1      -4.576  -4.377  20.599  0.00  0.00    +0.000 C 
ATOM     19  H   UNL     1      -5.395  -4.556  21.301  0.00  0.00    +0.000 HD
ATOM     20  H   UNL     1      -4.600  -3.322  20.302  0.00  0.00    +0.000 HD
ATOM     21  H   UNL     1      -3.632  -4.614  21.101  0.00  0.00    +0.000 HD
ENDBRANCH  17  18
ENDBRANCH  15  17
ENDBRANCH  12  15
ENDBRANCH   9  12
ENDBRANCH   7   9
ENDBRANCH   4   7
ENDBRANCH   1   4
BRANCH   1  22
ATOM     22  N   UNL     1      -9.097  -6.528  17.120  0.00  0.00    +0.000 NA
ATOM     23  H   UNL     1      -8.173  -6.242  17.438  0.00  0.00    +0.000 HD
BRANCH  22  24
ATOM     24  S   UNL     1      -9.543  -7.994  17.867  0.00  0.00    +0.000 S 
ATOM     25  O   UNL     1      -8.664  -8.193  18.992  0.00  0.00    +0.000 OA
ATOM     26  O   UNL     1     -10.984  -7.946  18.047  0.00  0.00    +0.000 OA
BRANCH  24  27
ATOM     27  C   UNL     1      -9.173  -9.237  16.639  0.00  0.00    +0.000 A 
ATOM     28  C   UNL     1      -9.225  -8.833  15.292  0.00  0.00    +0.000 A 
ATOM     29  C   UNL     1      -9.011  -9.755  14.274  0.00  0.00    +0.000 A 
ATOM     30  C   UNL     1      -8.738 -11.081  14.591  0.00  0.00    +0.000 A 
ATOM     31  C   UNL     1      -8.680 -11.503  15.932  0.00  0.00    +0.000 A 
ATOM     32  C   UNL     1      -8.411 -12.838  16.248  0.00  0.00    +0.000 A 
ATOM     33  N   UNL     1      -8.349 -13.338  17.501  0.00  0.00    +0.000 NA
ATOM     34  C   UNL     1      -8.576 -12.467  18.498  0.00  0.00    +0.000 A 
ATOM     35  C   UNL     1      -8.846 -11.120  18.303  0.00  0.00    +0.000 A 
ATOM     36  C   UNL     1      -8.903 -10.592  16.991  0.00  0.00    +0.000 A 
ATOM     37  H   UNL     1      -9.453  -7.802  15.026  0.00  0.00    +0.000 HD
ATOM     38  H   UNL     1      -9.068  -9.443  13.233  0.00  0.00    +0.000 HD
ATOM     39  H   UNL     1      -8.578 -11.792  13.782  0.00  0.00    +0.000 HD
ATOM     40  H   UNL     1      -8.232 -13.576  15.469  0.00  0.00    +0.000 HD
ATOM     41  H   UNL     1      -8.540 -12.887  19.500  0.00  0.00    +0.000 HD
ATOM     42  H   UNL     1      -9.019 -10.511  19.183  0.00  0.00    +0.000 HD
ENDBRANCH  24  27
ENDBRANCH  22  24
ENDBRANCH   1  22
TORSDOF 10
ENDMDL
MODEL 3
REMARK VINA RESULT:    -8.030      1.250      1.807
REMARK INTER + INTRA:         -13.717
REMARK INTER:                 -12.720
REMARK INTRA:                  -0.997
REMARK UNBOUND:                -1.227
REMARK  Name = 
REMARK  10 active torsions:
REMARK  status: ('A' for Active; 'I' for Inactive)
REMARK    1  A    between atoms: C_1  and  O_2
REMARK    2  A    between atoms: O_2  and  C_3
REMARK    3  A    between atoms: C_3  and  C_5
REMARK    4  A    between atoms: C_5  and  C_6
REMARK    5  A    between atoms: C_6  and  N_7
REMARK    6  A    between atoms: N_7  and  C_8
REMARK    7  A    between atoms: C_8  and  C_9
REMARK    8  A    between atoms: C_9  and  N_10
REMARK    9  A    between atoms: N_10  and  S_11
REMARK   10  A    between atoms: S_11  and  C_14
REMARK                            x       y       z     vdW  Elec       q    Type
REMARK                         _______ _______ _______ _____ _____    ______ ____
ROOT
ATOM      1  C   UNL     1      -9.944  -5.449  17.828  0.00  0.00    +0.000 C 
ATOM      2  H   UNL     1      -9.585  -5.362  16.796  0.00  0.00    +0.000 HD
ATOM      3  H   UNL     1     -10.827  -4.818  17.958  0.00  0.00    +0.000 HD
ENDROOT
BRANCH   1   4
ATOM      4  C   UNL     1      -8.850  -4.979  18.796  0.00  0.00    +0.000 C 
ATOM      5  H   UNL     1      -8.777  -3.886  18.751  0.00  0.00    +0.000 HD
ATOM      6  H   UNL     1      -9.127  -5.252  19.820  0.00  0.00    +0.000 HD
BRANCH   4   7
ATOM      7  N   UNL     1      -7.557  -5.584  18.434  0.00  0.00    +0.000 NA
ATOM      8  H   UNL     1      -7.715  -6.357  17.785  0.00  0.00    +0.000 HD
BRANCH   7   9
ATOM      9  C   UNL     1      -6.858  -6.082  19.626  0.00  0.00    +0.000 C 
ATOM     10  H   UNL     1      -7.475  -5.901  20.514  0.00  0.00    +0.000 HD
ATOM     11  H   UNL     1      -6.707  -7.164  19.540  0.00  0.00    +0.000 HD
BRANCH   9  12
ATOM     12  C   UNL     1      -5.503  -5.395  19.812  0.00  0.00    +0.000 C 
ATOM     13  H   UNL     1      -4.738  -6.127  20.091  0.00  0.00    +0.000 HD
ATOM     14  H   UNL     1      -5.199  -4.892  18.887  0.00  0.00    +0.000 HD
BRANCH  12  15
ATOM     15  C   UNL     1      -5.598  -4.363  20.909  0.00  0.00    +0.000 C 
ATOM     16  O   UNL     1      -4.664  -3.672  21.306  0.00  0.00    +0.000 OA
BRANCH  15  17
ATOM     17  O   UNL     1      -6.870  -4.294  21.394  0.00  0.00    +0.000 OA
BRANCH  17  18
ATOM     18  C   UNL     1      -7.310  -2.960  21.660  0.00  0.00    +0.000 C 
ATOM     19  H   UNL     1      -6.497  -2.273  21.411  0.00  0.00    +0.000 HD
ATOM     20  H   UNL     1      -7.550  -2.841  22.723  0.00  0.00    +0.000 HD
ATOM     21  H   UNL     1      -8.177  -2.710  21.040  0.00  0.00    +0.000 HD
ENDBRANCH  17  18
ENDBRANCH  15  17
ENDBRANCH  12  15
ENDBRANCH   9  12
ENDBRANCH   7   9
ENDBRANCH   4   7
ENDBRANCH   1   4
BRANCH   1  22
ATOM     22  N   UNL     1     -10.343  -6.853  18.084  0.00  0.00    +0.000 NA
ATOM     23  H   UNL     1     -11.327  -6.978  18.315  0.00  0.00    +0.000 HD
BRANCH  22  24
ATOM     24  S   UNL     1      -9.900  -7.915  16.826  0.00  0.00    +0.000 S 
ATOM     25  O   UNL     1     -11.105  -8.285  16.126  0.00  0.00    +0.000 OA
ATOM     26  O   UNL     1      -8.794  -7.288  16.124  0.00  0.00    +0.000 OA
BRANCH  24  27
ATOM     27  C   UNL     1      -9.280  -9.358  17.676  0.00  0.00    +0.000 A 
ATOM     28  C   UNL     1      -8.956  -9.203  19.036  0.00  0.00    +0.000 A 
ATOM     29  C   UNL     1      -8.409 -10.261  19.754  0.00  0.00    +0.000 A 
ATOM     30  C   UNL     1      -8.186 -11.480  19.121  0.00  0.00    +0.000 A 
ATOM     31  C   UNL     1      -8.504 -11.654  17.762  0.00  0.00    +0.000 A 
ATOM     32  C   UNL     1      -8.273 -12.878  17.127  0.00  0.00    +0.000 A 
ATOM     33  N   UNL     1      -8.533 -13.135  15.827  0.00  0.00    +0.000 NA
ATOM     34  C   UNL     1      -9.041 -12.118  15.112  0.00  0.00    +0.000 A 
ATOM     35  C   UNL     1      -9.317 -10.863  15.638  0.00  0.00    +0.000 A 
ATOM     36  C   UNL     1      -9.053 -10.594  17.002  0.00  0.00    +0.000 A 
ATOM     37  H   UNL     1      -9.110  -8.251  19.543  0.00  0.00    +0.000 HD
ATOM     38  H   UNL     1      -8.146 -10.134  20.801  0.00  0.00    +0.000 HD
ATOM     39  H   UNL     1      -7.752 -12.297  19.694  0.00  0.00    +0.000 HD
ATOM     40  H   UNL     1      -7.854 -13.723  17.668  0.00  0.00    +0.000 HD
ATOM     41  H   UNL     1      -9.228 -12.334  14.063  0.00  0.00    +0.000 HD
ATOM     42  H   UNL     1      -9.721 -10.116  14.965  0.00  0.00    +0.000 HD
ENDBRANCH  24  27
ENDBRANCH  22  24
ENDBRANCH   1  22
TORSDOF 10
ENDMDL
MODEL 4
REMARK VINA RESULT:    -8.013      2.683      3.315
REMARK INTER + INTRA:         -13.691
REMARK INTER:                 -12.795
REMARK INTRA:                  -0.896
REMARK UNBOUND:                -1.227
REMARK  Name = 
REMARK  10 active torsions:
REMARK  status: ('A' for Active; 'I' for Inactive)
REMARK    1  A    between atoms: C_1  and  O_2
REMARK    2  A    between atoms: O_2  and  C_3
REMARK    3  A    between atoms: C_3  and  C_5
REMARK    4  A    between atoms: C_5  and  C_6
REMARK    5  A    between atoms: C_6  and  N_7
REMARK    6  A    between atoms: N_7  and  C_8
REMARK    7  A    between atoms: C_8  and  C_9
REMARK    8  A    between atoms: C_9  and  N_10
REMARK    9  A    between atoms: N_10  and  S_11
REMARK   10  A    between atoms: S_11  and  C_14
REMARK                            x       y       z     vdW  Elec       q    Type
REMARK                         _______ _______ _______ _____ _____    ______ ____
ROOT
ATOM      1  C   UNL     1      -8.555  -4.962  19.149  0.00  0.00    +0.000 C 
ATOM      2  H   UNL     1      -8.019  -5.006  18.194  0.00  0.00    +0.000 HD
ATOM      3  H   UNL     1      -9.050  -3.992  19.241  0.00  0.00    +0.000 HD
ENDROOT
BRANCH   1   4
ATOM      4  C   UNL     1      -7.561  -5.124  20.306  0.00  0.00    +0.000 C 
ATOM      5  H   UNL     1      -7.486  -6.185  20.569  0.00  0.00    +0.000 HD
ATOM      6  H   UNL     1      -6.567  -4.791  19.984  0.00  0.00    +0.000 HD
BRANCH   4   7
ATOM      7  N   UNL     1      -8.008  -4.348  21.475  0.00  0.00    +0.000 NA
ATOM      8  H   UNL     1      -8.947  -3.984  21.299  0.00  0.00    +0.000 HD
BRANCH   7   9
ATOM      9  C   UNL     1      -7.095  -3.231  21.746  0.00  0.00    +0.000 C 
ATOM     10  H   UNL     1      -6.098  -3.621  21.979  0.00  0.00    +0.000 HD
ATOM     11  H   UNL     1      -7.006  -2.601  20.852  0.00  0.00    +0.000 HD
BRANCH   9  12
ATOM     12  C   UNL     1      -7.582  -2.377  22.919  0.00  0.00    +0.000 C 
ATOM     13  H   UNL     1      -6.735  -2.042  23.527  0.00  0.00    +0.000 HD
ATOM     14  H   UNL     1      -8.130  -1.500  22.552  0.00  0.00    +0.000 HD
BRANCH  12  15
ATOM     15  C   UNL     1      -8.507  -3.187  23.794  0.00  0.00    +0.000 C 
ATOM     16  O   UNL     1      -8.144  -4.039  24.600  0.00  0.00    +0.000 OA
BRANCH  15  17
ATOM     17  O   UNL     1      -9.805  -2.836  23.573  0.00  0.00    +0.000 OA
BRANCH  17  18
ATOM     18  C   UNL     1     -10.523  -2.520  24.769  0.00  0.00    +0.000 C 
ATOM     19  H   UNL     1      -9.814  -2.129  25.503  0.00  0.00    +0.000 HD
ATOM     20  H   UNL     1     -10.990  -3.420  25.185  0.00  0.00    +0.000 HD
ATOM     21  H   UNL     1     -11.278  -1.751  24.572  0.00  0.00    +0.000 HD
ENDBRANCH  17  18
ENDBRANCH  15  17
ENDBRANCH  12  15
ENDBRANCH   9  12
ENDBRANCH   7   9
ENDBRANCH   4   7
ENDBRANCH   1   4
BRANCH   1  22
ATOM     22  N   UNL     1      -9.599  -6.014  19.166  0.00  0.00    +0.000 NA
ATOM     23  H   UNL     1     -10.515  -5.695  19.477  0.00  0.00    +0.000 HD
BRANCH  22  24
ATOM     24  S   UNL     1      -9.742  -6.840  17.682  0.00  0.00    +0.000 S 
ATOM     25  O   UNL     1     -11.138  -6.843  17.320  0.00  0.00    +0.000 OA
ATOM     26  O   UNL     1      -8.743  -6.273  16.793  0.00  0.00    +0.000 OA
BRANCH  24  27
ATOM     27  C   UNL     1      -9.260  -8.515  18.070  0.00  0.00    +0.000 A 
ATOM     28  C   UNL     1      -8.820  -8.761  19.384  0.00  0.00    +0.000 A 
ATOM     29  C   UNL     1      -8.368 -10.024  19.750  0.00  0.00    +0.000 A 
ATOM     30  C   UNL     1      -8.358 -11.050  18.811  0.00  0.00    +0.000 A 
ATOM     31  C   UNL     1      -8.796 -10.824  17.493  0.00  0.00    +0.000 A 
ATOM     32  C   UNL     1      -8.779 -11.856  16.550  0.00  0.00    +0.000 A 
ATOM     33  N   UNL     1      -9.166 -11.732  15.262  0.00  0.00    +0.000 NA
ATOM     34  C   UNL     1      -9.584 -10.513  14.884  0.00  0.00    +0.000 A 
ATOM     35  C   UNL     1      -9.649  -9.418  15.735  0.00  0.00    +0.000 A 
ATOM     36  C   UNL     1      -9.252  -9.548  17.087  0.00  0.00    +0.000 A 
ATOM     37  H   UNL     1      -8.807  -7.965  20.127  0.00  0.00    +0.000 HD
ATOM     38  H   UNL     1      -8.014 -10.206  20.761  0.00  0.00    +0.000 HD
ATOM     39  H   UNL     1      -7.997 -12.032  19.111  0.00  0.00    +0.000 HD
ATOM     40  H   UNL     1      -8.438 -12.855  16.814  0.00  0.00    +0.000 HD
ATOM     41  H   UNL     1      -9.875 -10.423  13.841  0.00  0.00    +0.000 HD
ATOM     42  H   UNL     1      -9.997  -8.480  15.318  0.00  0.00    +0.000 HD
ENDBRANCH  24  27
ENDBRANCH  22  24
ENDBRANCH   1  22
TORSDOF 10
ENDMDL
MODEL 5
REMARK VINA RESULT:    -7.748      2.405      3.471
REMARK INTER + INTRA:         -13.278
REMARK INTER:                 -12.995
REMARK INTRA:                  -0.282
REMARK UNBOUND:                -1.227
REMARK  Name = 
REMARK  10 active torsions:
REMARK  status: ('A' for Active; 'I' for Inactive)
REMARK    1  A    between atoms: C_1  and  O_2
REMARK    2  A    between atoms: O_2  and  C_3
REMARK    3  A    between atoms: C_3  and  C_5
REMARK    4  A    between atoms: C_5  and  C_6
REMARK    5  A    between atoms: C_6  and  N_7
REMARK    6  A    between atoms: N_7  and  C_8
REMARK    7  A    between atoms: C_8  and  C_9
REMARK    8  A    between atoms: C_9  and  N_10
REMARK    9  A    between atoms: N_10  and  S_11
REMARK   10  A    between atoms: S_11  and  C_14
REMARK                            x       y       z     vdW  Elec       q    Type
REMARK                         _______ _______ _______ _____ _____    ______ ____
ROOT
ATOM      1  C   UNL     1      -7.974  -6.335  19.506  0.00  0.00    +0.000 C 
ATOM      2  H   UNL     1      -8.437  -6.893  20.327  0.00  0.00    +0.000 HD
ATOM      3  H   UNL     1      -6.889  -6.336  19.634  0.00  0.00    +0.000 HD
ENDROOT
BRANCH   1   4
ATOM      4  C   UNL     1      -8.475  -4.884  19.523  0.00  0.00    +0.000 C 
ATOM      5  H   UNL     1      -8.039  -4.344  18.673  0.00  0.00    +0.000 HD
ATOM      6  H   UNL     1      -9.564  -4.872  19.401  0.00  0.00    +0.000 HD
BRANCH   4   7
ATOM      7  N   UNL     1      -8.091  -4.227  20.784  0.00  0.00    +0.000 NA
ATOM      8  H   UNL     1      -8.340  -3.238  20.738  0.00  0.00    +0.000 HD
BRANCH   7   9
ATOM      9  C   UNL     1      -6.649  -4.358  21.027  0.00  0.00    +0.000 C 
ATOM     10  H   UNL     1      -6.437  -5.347  21.449  0.00  0.00    +0.000 HD
ATOM     11  H   UNL     1      -6.105  -4.276  20.078  0.00  0.00    +0.000 HD
BRANCH   9  12
ATOM     12  C   UNL     1      -6.142  -3.284  21.994  0.00  0.00    +0.000 C 
ATOM     13  H   UNL     1      -5.399  -3.706  22.679  0.00  0.00    +0.000 HD
ATOM     14  H   UNL     1      -5.689  -2.454  21.439  0.00  0.00    +0.000 HD
BRANCH  12  15
ATOM     15  C   UNL     1      -7.291  -2.745  22.809  0.00  0.00    +0.000 C 
ATOM     16  O   UNL     1      -7.835  -1.659  22.625  0.00  0.00    +0.000 OA
BRANCH  15  17
ATOM     17  O   UNL     1      -7.652  -3.635  23.776  0.00  0.00    +0.000 OA
BRANCH  17  18
ATOM     18  C   UNL     1      -8.844  -3.268  24.476  0.00  0.00    +0.000 C 
ATOM     19  H   UNL     1      -9.132  -4.100  25.124  0.00  0.00    +0.000 HD
ATOM     20  H   UNL     1      -9.661  -3.082  23.770  0.00  0.00    +0.000 HD
ATOM     21  H   UNL     1      -8.667  -2.387  25.101  0.00  0.00    +0.000 HD
ENDBRANCH  17  18
ENDBRANCH  15  17
ENDBRANCH  12  15
ENDBRANCH   9  12
ENDBRANCH   7   9
ENDBRANCH   4   7
ENDBRANCH   1   4
BRANCH   1  22
ATOM     22  N   UNL     1      -8.285  -7.011  18.224  0.00  0.00    +0.000 NA
ATOM     23  H   UNL     1      -7.475  -7.394  17.741  0.00  0.00    +0.000 HD
BRANCH  22  24
ATOM     24  S   UNL     1      -9.492  -8.207  18.374  0.00  0.00    +0.000 S 
ATOM     25  O   UNL     1      -9.221  -8.947  19.581  0.00  0.00    +0.000 OA
ATOM     26  O   UNL     1     -10.766  -7.537  18.182  0.00  0.00    +0.000 OA
BRANCH  24  27
ATOM     27  C   UNL     1      -9.208  -9.285  16.979  0.00  0.00    +0.000 A 
ATOM     28  C   UNL     1      -9.363  -8.721  15.700  0.00  0.00    +0.000 A 
ATOM     29  C   UNL     1      -9.221  -9.508  14.563  0.00  0.00    +0.000 A 
ATOM     30  C   UNL     1      -8.920 -10.859  14.694  0.00  0.00    +0.000 A 
ATOM     31  C   UNL     1      -8.760 -11.442  15.965  0.00  0.00    +0.000 A 
ATOM     32  C   UNL     1      -8.463 -12.801  16.094  0.00  0.00    +0.000 A 
ATOM     33  N   UNL     1      -8.306 -13.450  17.268  0.00  0.00    +0.000 NA
ATOM     34  C   UNL     1      -8.461 -12.710  18.379  0.00  0.00    +0.000 A 
ATOM     35  C   UNL     1      -8.750 -11.352  18.371  0.00  0.00    +0.000 A 
ATOM     36  C   UNL     1      -8.908 -10.669  17.142  0.00  0.00    +0.000 A 
ATOM     37  H   UNL     1      -9.614  -7.668  15.579  0.00  0.00    +0.000 HD
ATOM     38  H   UNL     1      -9.356  -9.073  13.575  0.00  0.00    +0.000 HD
ATOM     39  H   UNL     1      -8.817 -11.464  13.795  0.00  0.00    +0.000 HD
ATOM     40  H   UNL     1      -8.340 -13.437  15.220  0.00  0.00    +0.000 HD
ATOM     41  H   UNL     1      -8.350 -13.249  19.316  0.00  0.00    +0.000 HD
ATOM     42  H   UNL     1      -8.860 -10.858  19.330  0.00  0.00    +0.000 HD
ENDBRANCH  24  27
ENDBRANCH  22  24
ENDBRANCH   1  22
TORSDOF 10
ENDMDL
MODEL 6
REMARK VINA RESULT:    -7.681      2.024      3.767
REMARK INTER + INTRA:         -13.175
REMARK INTER:                 -12.029
REMARK INTRA:                  -1.146
REMARK UNBOUND:                -1.227
REMARK  Name = 
REMARK  10 active torsions:
REMARK  status: ('A' for Active; 'I' for Inactive)
REMARK    1  A    between atoms: C_1  and  O_2
REMARK    2  A    between atoms: O_2  and  C_3
REMARK    3  A    between atoms: C_3  and  C_5
REMARK    4  A    between atoms: C_5  and  C_6
REMARK    5  A    between atoms: C_6  and  N_7
REMARK    6  A    between atoms: N_7  and  C_8
REMARK    7  A    between atoms: C_8  and  C_9
REMARK    8  A    between atoms: C_9  and  N_10
REMARK    9  A    between atoms: N_10  and  S_11
REMARK   10  A    between atoms: S_11  and  C_14
REMARK                            x       y       z     vdW  Elec       q    Type
REMARK                         _______ _______ _______ _____ _____    ______ ____
ROOT
ATOM      1  C   UNL     1      -7.801  -6.090  18.500  0.00  0.00    +0.000 C 
ATOM      2  H   UNL     1      -7.541  -6.843  19.253  0.00  0.00    +0.000 HD
ATOM      3  H   UNL     1      -6.886  -5.688  18.060  0.00  0.00    +0.000 HD
ENDROOT
BRANCH   1   4
ATOM      4  C   UNL     1      -8.579  -4.945  19.163  0.00  0.00    +0.000 C 
ATOM      5  H   UNL     1      -9.331  -5.367  19.840  0.00  0.00    +0.000 HD
ATOM      6  H   UNL     1      -7.893  -4.339  19.766  0.00  0.00    +0.000 HD
BRANCH   4   7
ATOM      7  N   UNL     1      -9.235  -4.115  18.139  0.00  0.00    +0.000 NA
ATOM      8  H   UNL     1      -8.793  -3.194  18.117  0.00  0.00    +0.000 HD
BRANCH   7   9
ATOM      9  C   UNL     1     -10.667  -3.961  18.425  0.00  0.00    +0.000 C 
ATOM     10  H   UNL     1     -10.935  -4.579  19.290  0.00  0.00    +0.000 HD
ATOM     11  H   UNL     1     -10.883  -2.917  18.680  0.00  0.00    +0.000 HD
BRANCH   9  12
ATOM     12  C   UNL     1     -11.527  -4.378  17.230  0.00  0.00    +0.000 C 
ATOM     13  H   UNL     1     -11.761  -5.447  17.280  0.00  0.00    +0.000 HD
ATOM     14  H   UNL     1     -12.462  -3.806  17.214  0.00  0.00    +0.000 HD
BRANCH  12  15
ATOM     15  C   UNL     1     -10.782  -4.113  15.944  0.00  0.00    +0.000 C 
ATOM     16  O   UNL     1     -10.583  -3.001  15.464  0.00  0.00    +0.000 OA
BRANCH  15  17
ATOM     17  O   UNL     1     -10.349  -5.281  15.393  0.00  0.00    +0.000 OA
BRANCH  17  18
ATOM     18  C   UNL     1      -9.464  -5.098  14.284  0.00  0.00    +0.000 C 
ATOM     19  H   UNL     1      -9.681  -5.869  13.540  0.00  0.00    +0.000 HD
ATOM     20  H   UNL     1      -8.422  -5.208  14.602  0.00  0.00    +0.000 HD
ATOM     21  H   UNL     1      -9.624  -4.117  13.823  0.00  0.00    +0.000 HD
ENDBRANCH  17  18
ENDBRANCH  15  17
ENDBRANCH  12  15
ENDBRANCH   9  12
ENDBRANCH   7   9
ENDBRANCH   4   7
ENDBRANCH   1   4
BRANCH   1  22
ATOM     22  N   UNL     1      -8.585  -6.737  17.421  0.00  0.00    +0.000 NA
ATOM     23  H   UNL     1      -8.045  -6.968  16.588  0.00  0.00    +0.000 HD
BRANCH  22  24
ATOM     24  S   UNL     1      -9.453  -8.105  17.951  0.00  0.00    +0.000 S 
ATOM     25  O   UNL     1      -8.853  -8.548  19.185  0.00  0.00    +0.000 OA
ATOM     26  O   UNL     1     -10.860  -7.752  17.892  0.00  0.00    +0.000 OA
BRANCH  24  27
ATOM     27  C   UNL     1      -9.131  -9.335  16.697  0.00  0.00    +0.000 A 
ATOM     28  C   UNL     1      -9.198  -8.908  15.357  0.00  0.00    +0.000 A 
ATOM     29  C   UNL     1      -9.022  -9.817  14.320  0.00  0.00    +0.000 A 
ATOM     30  C   UNL     1      -8.772 -11.154  14.611  0.00  0.00    +0.000 A 
ATOM     31  C   UNL     1      -8.699 -11.599  15.944  0.00  0.00    +0.000 A 
ATOM     32  C   UNL     1      -8.453 -12.944  16.234  0.00  0.00    +0.000 A 
ATOM     33  N   UNL     1      -8.379 -13.466  17.477  0.00  0.00    +0.000 NA
ATOM     34  C   UNL     1      -8.570 -12.607  18.492  0.00  0.00    +0.000 A 
ATOM     35  C   UNL     1      -8.814 -11.251  18.324  0.00  0.00    +0.000 A 
ATOM     36  C   UNL     1      -8.884 -10.701  17.022  0.00  0.00    +0.000 A 
ATOM     37  H   UNL     1      -9.409  -7.868  15.112  0.00  0.00    +0.000 HD
ATOM     38  H   UNL     1      -9.090  -9.487  13.286  0.00  0.00    +0.000 HD
ATOM     39  H   UNL     1      -8.641 -11.854  13.789  0.00  0.00    +0.000 HD
ATOM     40  H   UNL     1      -8.304 -13.673  15.440  0.00  0.00    +0.000 HD
ATOM     41  H   UNL     1      -8.525 -13.044  19.486  0.00  0.00    +0.000 HD
ATOM     42  H   UNL     1      -8.959 -10.653  19.216  0.00  0.00    +0.000 HD
ENDBRANCH  24  27
ENDBRANCH  22  24
ENDBRANCH   1  22
TORSDOF 10
ENDMDL
MODEL 7
REMARK VINA RESULT:    -7.527      1.799      2.791
REMARK INTER + INTRA:         -12.934
REMARK INTER:                 -12.249
REMARK INTRA:                  -0.686
REMARK UNBOUND:                -1.227
REMARK  Name = 
REMARK  10 active torsions:
REMARK  status: ('A' for Active; 'I' for Inactive)
REMARK    1  A    between atoms: C_1  and  O_2
REMARK    2  A    between atoms: O_2  and  C_3
REMARK    3  A    between atoms: C_3  and  C_5
REMARK    4  A    between atoms: C_5  and  C_6
REMARK    5  A    between atoms: C_6  and  N_7
REMARK    6  A    between atoms: N_7  and  C_8
REMARK    7  A    between atoms: C_8  and  C_9
REMARK    8  A    between atoms: C_9  and  N_10
REMARK    9  A    between atoms: N_10  and  S_11
REMARK   10  A    between atoms: S_11  and  C_14
REMARK                            x       y       z     vdW  Elec       q    Type
REMARK                         _______ _______ _______ _____ _____    ______ ____
ROOT
ATOM      1  C   UNL     1     -11.063  -5.755  16.673  0.00  0.00    +0.000 C 
ATOM      2  H   UNL     1     -11.498  -5.515  15.697  0.00  0.00    +0.000 HD
ATOM      3  H   UNL     1     -11.713  -6.461  17.196  0.00  0.00    +0.000 HD
ENDROOT
BRANCH   1   4
ATOM      4  C   UNL     1     -10.942  -4.476  17.512  0.00  0.00    +0.000 C 
ATOM      5  H   UNL     1     -10.356  -3.735  16.955  0.00  0.00    +0.000 HD
ATOM      6  H   UNL     1     -11.939  -4.052  17.679  0.00  0.00    +0.000 HD
BRANCH   4   7
ATOM      7  N   UNL     1     -10.287  -4.769  18.798  0.00  0.00    +0.000 NA
ATOM      8  H   UNL     1     -10.963  -4.653  19.555  0.00  0.00    +0.000 HD
BRANCH   7   9
ATOM      9  C   UNL     1      -9.146  -3.873  19.023  0.00  0.00    +0.000 C 
ATOM     10  H   UNL     1      -8.647  -3.669  18.068  0.00  0.00    +0.000 HD
ATOM     11  H   UNL     1      -9.500  -2.916  19.425  0.00  0.00    +0.000 HD
BRANCH   9  12
ATOM     12  C   UNL     1      -8.132  -4.485  19.993  0.00  0.00    +0.000 C 
ATOM     13  H   UNL     1      -8.526  -5.413  20.423  0.00  0.00    +0.000 HD
ATOM     14  H   UNL     1      -7.190  -4.701  19.475  0.00  0.00    +0.000 HD
BRANCH  12  15
ATOM     15  C   UNL     1      -7.851  -3.519  21.117  0.00  0.00    +0.000 C 
ATOM     16  O   UNL     1      -8.415  -2.440  21.274  0.00  0.00    +0.000 OA
BRANCH  15  17
ATOM     17  O   UNL     1      -6.889  -4.015  21.945  0.00  0.00    +0.000 OA
BRANCH  17  18
ATOM     18  C   UNL     1      -5.568  -3.582  21.612  0.00  0.00    +0.000 C 
ATOM     19  H   UNL     1      -4.873  -4.002  22.345  0.00  0.00    +0.000 HD
ATOM     20  H   UNL     1      -5.499  -2.490  21.657  0.00  0.00    +0.000 HD
ATOM     21  H   UNL     1      -5.284  -3.945  20.619  0.00  0.00    +0.000 HD
ENDBRANCH  17  18
ENDBRANCH  15  17
ENDBRANCH  12  15
ENDBRANCH   9  12
ENDBRANCH   7   9
ENDBRANCH   4   7
ENDBRANCH   1   4
BRANCH   1  22
ATOM     22  N   UNL     1      -9.747  -6.407  16.469  0.00  0.00    +0.000 NA
ATOM     23  H   UNL     1      -8.956  -5.766  16.456  0.00  0.00    +0.000 HD
BRANCH  22  24
ATOM     24  S   UNL     1      -9.451  -7.676  17.569  0.00  0.00    +0.000 S 
ATOM     25  O   UNL     1      -8.206  -7.389  18.237  0.00  0.00    +0.000 OA
ATOM     26  O   UNL     1     -10.676  -7.863  18.326  0.00  0.00    +0.000 OA
BRANCH  24  27
ATOM     27  C   UNL     1      -9.212  -9.105  16.526  0.00  0.00    +0.000 A 
ATOM     28  C   UNL     1      -9.407  -8.923  15.145  0.00  0.00    +0.000 A 
ATOM     29  C   UNL     1      -9.301 -10.000  14.272  0.00  0.00    +0.000 A 
ATOM     30  C   UNL     1      -8.996 -11.262  14.769  0.00  0.00    +0.000 A 
ATOM     31  C   UNL     1      -8.796 -11.464  16.147  0.00  0.00    +0.000 A 
ATOM     32  C   UNL     1      -8.495 -12.735  16.645  0.00  0.00    +0.000 A 
ATOM     33  N   UNL     1      -8.300 -13.028  17.948  0.00  0.00    +0.000 NA
ATOM     34  C   UNL     1      -8.420 -12.004  18.810  0.00  0.00    +0.000 A 
ATOM     35  C   UNL     1      -8.709 -10.701  18.429  0.00  0.00    +0.000 A 
ATOM     36  C   UNL     1      -8.906 -10.390  17.062  0.00  0.00    +0.000 A 
ATOM     37  H   UNL     1      -9.662  -7.944  14.740  0.00  0.00    +0.000 HD
ATOM     38  H   UNL     1      -9.468  -9.859  13.206  0.00  0.00    +0.000 HD
ATOM     39  H   UNL     1      -8.922 -12.096  14.074  0.00  0.00    +0.000 HD
ATOM     40  H   UNL     1      -8.399 -13.592  15.981  0.00  0.00    +0.000 HD
ATOM     41  H   UNL     1      -8.278 -12.258  19.857  0.00  0.00    +0.000 HD
ATOM     42  H   UNL     1      -8.789  -9.956  19.212  0.00  0.00    +0.000 HD
ENDBRANCH  24  27
ENDBRANCH  22  24
ENDBRANCH   1  22
TORSDOF 10
ENDMDL
MODEL 8
REMARK VINA RESULT:    -7.474      2.353      3.569
REMARK INTER + INTRA:         -12.853
REMARK INTER:                 -11.478
REMARK INTRA:                  -1.375
REMARK UNBOUND:                -1.227
REMARK  Name = 
REMARK  10 active torsions:
REMARK  status: ('A' for Active; 'I' for Inactive)
REMARK    1  A    between atoms: C_1  and  O_2
REMARK    2  A    between atoms: O_2  and  C_3
REMARK    3  A    between atoms: C_3  and  C_5
REMARK    4  A    between atoms: C_5  and  C_6
REMARK    5  A    between atoms: C_6  and  N_7
REMARK    6  A    between atoms: N_7  and  C_8
REMARK    7  A    between atoms: C_8  and  C_9
REMARK    8  A    between atoms: C_9  and  N_10
REMARK    9  A    between atoms: N_10  and  S_11
REMARK   10  A    between atoms: S_11  and  C_14
REMARK                            x       y       z     vdW  Elec       q    Type
REMARK                         _______ _______ _______ _____ _____    ______ ____
ROOT
ATOM      1  C   UNL     1      -8.397  -5.358  19.290  0.00  0.00    +0.000 C 
ATOM      2  H   UNL     1      -7.745  -5.604  20.136  0.00  0.00    +0.000 HD
ATOM      3  H   UNL     1      -7.846  -5.499  18.356  0.00  0.00    +0.000 HD
ENDROOT
BRANCH   1   4
ATOM      4  C   UNL     1      -8.840  -3.893  19.390  0.00  0.00    +0.000 C 
ATOM      5  H   UNL     1      -9.530  -3.783  20.234  0.00  0.00    +0.000 HD
ATOM      6  H   UNL     1      -7.968  -3.260  19.589  0.00  0.00    +0.000 HD
BRANCH   4   7
ATOM      7  N   UNL     1      -9.503  -3.474  18.143  0.00  0.00    +0.000 NA
ATOM      8  H   UNL     1      -9.017  -2.663  17.757  0.00  0.00    +0.000 HD
BRANCH   7   9
ATOM      9  C   UNL     1     -10.909  -3.131  18.386  0.00  0.00    +0.000 C 
ATOM     10  H   UNL     1     -11.386  -3.927  18.969  0.00  0.00    +0.000 HD
ATOM     11  H   UNL     1     -10.968  -2.206  18.973  0.00  0.00    +0.000 HD
BRANCH   9  12
ATOM     12  C   UNL     1     -11.678  -2.946  17.075  0.00  0.00    +0.000 C 
ATOM     13  H   UNL     1     -12.265  -3.843  16.845  0.00  0.00    +0.000 HD
ATOM     14  H   UNL     1     -12.353  -2.084  17.145  0.00  0.00    +0.000 HD
BRANCH  12  15
ATOM     15  C   UNL     1     -10.711  -2.706  15.942  0.00  0.00    +0.000 C 
ATOM     16  O   UNL     1     -10.232  -1.615  15.646  0.00  0.00    +0.000 OA
BRANCH  15  17
ATOM     17  O   UNL     1     -10.431  -3.872  15.296  0.00  0.00    +0.000 OA
BRANCH  17  18
ATOM     18  C   UNL     1     -11.595  -4.563  14.831  0.00  0.00    +0.000 C 
ATOM     19  H   UNL     1     -12.080  -3.945  14.070  0.00  0.00    +0.000 HD
ATOM     20  H   UNL     1     -12.303  -4.717  15.653  0.00  0.00    +0.000 HD
ATOM     21  H   UNL     1     -11.318  -5.520  14.377  0.00  0.00    +0.000 HD
ENDBRANCH  17  18
ENDBRANCH  15  17
ENDBRANCH  12  15
ENDBRANCH   9  12
ENDBRANCH   7   9
ENDBRANCH   4   7
ENDBRANCH   1   4
BRANCH   1  22
ATOM     22  N   UNL     1      -9.553  -6.285  19.285  0.00  0.00    +0.000 NA
ATOM     23  H   UNL     1     -10.426  -5.874  19.612  0.00  0.00    +0.000 HD
BRANCH  22  24
ATOM     24  S   UNL     1      -9.797  -7.044  17.778  0.00  0.00    +0.000 S 
ATOM     25  O   UNL     1     -11.214  -7.041  17.514  0.00  0.00    +0.000 OA
ATOM     26  O   UNL     1      -8.865  -6.429  16.849  0.00  0.00    +0.000 OA
BRANCH  24  27
ATOM     27  C   UNL     1      -9.282  -8.731  18.055  0.00  0.00    +0.000 A 
ATOM     28  C   UNL     1      -8.857  -9.060  19.355  0.00  0.00    +0.000 A 
ATOM     29  C   UNL     1      -8.382 -10.335  19.638  0.00  0.00    +0.000 A 
ATOM     30  C   UNL     1      -8.332 -11.291  18.630  0.00  0.00    +0.000 A 
ATOM     31  C   UNL     1      -8.753 -10.982  17.323  0.00  0.00    +0.000 A 
ATOM     32  C   UNL     1      -8.696 -11.943  16.309  0.00  0.00    +0.000 A 
ATOM     33  N   UNL     1      -9.064 -11.736  15.027  0.00  0.00    +0.000 NA
ATOM     34  C   UNL     1      -9.505 -10.503  14.729  0.00  0.00    +0.000 A 
ATOM     35  C   UNL     1      -9.610  -9.473  15.654  0.00  0.00    +0.000 A 
ATOM     36  C   UNL     1      -9.233  -9.690  17.001  0.00  0.00    +0.000 A 
ATOM     37  H   UNL     1      -8.875  -8.319  20.154  0.00  0.00    +0.000 HD
ATOM     38  H   UNL     1      -8.039 -10.582  20.641  0.00  0.00    +0.000 HD
ATOM     39  H   UNL     1      -7.952 -12.284  18.865  0.00  0.00    +0.000 HD
ATOM     40  H   UNL     1      -8.335 -12.950  16.507  0.00  0.00    +0.000 HD
ATOM     41  H   UNL     1      -9.781 -10.345  13.689  0.00  0.00    +0.000 HD
ATOM     42  H   UNL     1      -9.974  -8.515  15.299  0.00  0.00    +0.000 HD
ENDBRANCH  24  27
ENDBRANCH  22  24
ENDBRANCH   1  22
TORSDOF 10
ENDMDL
MODEL 9
REMARK VINA RESULT:    -7.309      2.183      3.067
REMARK INTER + INTRA:         -12.596
REMARK INTER:                 -11.970
REMARK INTRA:                  -0.627
REMARK UNBOUND:                -1.227
REMARK  Name = 
REMARK  10 active torsions:
REMARK  status: ('A' for Active; 'I' for Inactive)
REMARK    1  A    between atoms: C_1  and  O_2
REMARK    2  A    between atoms: O_2  and  C_3
REMARK    3  A    between atoms: C_3  and  C_5
REMARK    4  A    between atoms: C_5  and  C_6
REMARK    5  A    between atoms: C_6  and  N_7
REMARK    6  A    between atoms: N_7  and  C_8
REMARK    7  A    between atoms: C_8  and  C_9
REMARK    8  A    between atoms: C_9  and  N_10
REMARK    9  A    between atoms: N_10  and  S_11
REMARK   10  A    between atoms: S_11  and  C_14
REMARK                            x       y       z     vdW  Elec       q    Type
REMARK                         _______ _______ _______ _____ _____    ______ ____
ROOT
ATOM      1  C   UNL     1      -8.377  -6.040  19.011  0.00  0.00    +0.000 C 
ATOM      2  H   UNL     1      -9.018  -6.664  19.642  0.00  0.00    +0.000 HD
ATOM      3  H   UNL     1      -7.346  -6.100  19.370  0.00  0.00    +0.000 HD
ENDROOT
BRANCH   1   4
ATOM      4  C   UNL     1      -8.843  -4.580  19.087  0.00  0.00    +0.000 C 
ATOM      5  H   UNL     1      -8.266  -3.981  18.372  0.00  0.00    +0.000 HD
ATOM      6  H   UNL     1      -9.898  -4.518  18.796  0.00  0.00    +0.000 HD
BRANCH   4   7
ATOM      7  N   UNL     1      -8.654  -4.054  20.449  0.00  0.00    +0.000 NA
ATOM      8  H   UNL     1      -9.288  -4.537  21.089  0.00  0.00    +0.000 HD
BRANCH   7   9
ATOM      9  C   UNL     1      -8.919  -2.611  20.497  0.00  0.00    +0.000 C 
ATOM     10  H   UNL     1      -8.299  -2.100  19.752  0.00  0.00    +0.000 HD
ATOM     11  H   UNL     1      -9.969  -2.419  20.246  0.00  0.00    +0.000 HD
BRANCH   9  12
ATOM     12  C   UNL     1      -8.616  -2.029  21.880  0.00  0.00    +0.000 C 
ATOM     13  H   UNL     1      -8.246  -1.002  21.791  0.00  0.00    +0.000 HD
ATOM     14  H   UNL     1      -9.519  -2.032  22.502  0.00  0.00    +0.000 HD
BRANCH  12  15
ATOM     15  C   UNL     1      -7.560  -2.859  22.566  0.00  0.00    +0.000 C 
ATOM     16  O   UNL     1      -7.783  -3.729  23.403  0.00  0.00    +0.000 OA
BRANCH  15  17
ATOM     17  O   UNL     1      -6.318  -2.518  22.121  0.00  0.00    +0.000 OA
BRANCH  17  18
ATOM     18  C   UNL     1      -5.501  -3.642  21.783  0.00  0.00    +0.000 C 
ATOM     19  H   UNL     1      -5.334  -4.230  22.690  0.00  0.00    +0.000 HD
ATOM     20  H   UNL     1      -4.529  -3.309  21.403  0.00  0.00    +0.000 HD
ATOM     21  H   UNL     1      -6.005  -4.277  21.047  0.00  0.00    +0.000 HD
ENDBRANCH  17  18
ENDBRANCH  15  17
ENDBRANCH  12  15
ENDBRANCH   9  12
ENDBRANCH   7   9
ENDBRANCH   4   7
ENDBRANCH   1   4
BRANCH   1  22
ATOM     22  N   UNL     1      -8.411  -6.559  17.623  0.00  0.00    +0.000 NA
ATOM     23  H   UNL     1      -7.675  -7.228  17.404  0.00  0.00    +0.000 HD
BRANCH  22  24
ATOM     24  S   UNL     1      -9.929  -7.200  17.185  0.00  0.00    +0.000 S 
ATOM     25  O   UNL     1     -10.677  -7.412  18.399  0.00  0.00    +0.000 OA
ATOM     26  O   UNL     1     -10.450  -6.348  16.130  0.00  0.00    +0.000 OA
BRANCH  24  27
ATOM     27  C   UNL     1      -9.539  -8.793  16.480  0.00  0.00    +0.000 A 
ATOM     28  C   UNL     1      -9.781  -8.954  15.103  0.00  0.00    +0.000 A 
ATOM     29  C   UNL     1      -9.563 -10.182  14.490  0.00  0.00    +0.000 A 
ATOM     30  C   UNL     1      -9.098 -11.255  15.243  0.00  0.00    +0.000 A 
ATOM     31  C   UNL     1      -8.849 -11.113  16.620  0.00  0.00    +0.000 A 
ATOM     32  C   UNL     1      -8.387 -12.195  17.376  0.00  0.00    +0.000 A 
ATOM     33  N   UNL     1      -8.133 -12.159  18.702  0.00  0.00    +0.000 NA
ATOM     34  C   UNL     1      -8.359 -10.986  19.317  0.00  0.00    +0.000 A 
ATOM     35  C   UNL     1      -8.811  -9.845  18.667  0.00  0.00    +0.000 A 
ATOM     36  C   UNL     1      -9.070  -9.879  17.276  0.00  0.00    +0.000 A 
ATOM     37  H   UNL     1     -10.160  -8.128  14.501  0.00  0.00    +0.000 HD
ATOM     38  H   UNL     1      -9.766 -10.308  13.429  0.00  0.00    +0.000 HD
ATOM     39  H   UNL     1      -8.937 -12.212  14.750  0.00  0.00    +0.000 HD
ATOM     40  H   UNL     1      -8.201 -13.164  16.918  0.00  0.00    +0.000 HD
ATOM     41  H   UNL     1      -8.168 -10.976  20.386  0.00  0.00    +0.000 HD
ATOM     42  H   UNL     1      -8.965  -8.955  19.266  0.00  0.00    +0.000 HD
ENDBRANCH  24  27
ENDBRANCH  22  24
ENDBRANCH   1  22
TORSDOF 10
ENDMDL
