REMARK  Name = 
REMARK  5 active torsions:
REMARK  status: ('A' for Active; 'I' for Inactive)
REMARK    1  A    between atoms: C_2  and  C_3
REMARK    2  A    between atoms: C_12  and  O_13
REMARK    3  A    between atoms: C_14  and  O_15
REMARK    4  A    between atoms: C_20  and  O_21
REMARK    5  A    between atoms: C_22  and  O_23
REMARK                            x       y       z     vdW  Elec       q    Type
REMARK                         _______ _______ _______ _____ _____    ______ ____
ROOT
ATOM      1  O   UNL     1      -0.896  -0.241   2.696  0.00  0.00    +0.000 OA
ATOM      2  C   UNL     1      -0.949  -0.326   1.470  0.00  0.00    +0.000 C 
ATOM      3  N   UNL     1       0.206   0.045   0.746  0.00  0.00    +0.000 N 
ATOM      4  C   UNL     1       0.525  -0.314  -0.563  0.00  0.00    +0.000 A 
ATOM      5  C   UNL     1       0.077  -1.324  -1.427  0.00  0.00    +0.000 A 
ATOM      6  C   UNL     1       0.098  -0.986  -2.776  0.00  0.00    +0.000 A 
ATOM      7  C   UNL     1       0.584   0.245  -3.206  0.00  0.00    +0.000 A 
ATOM      8  C   UNL     1       1.345   1.049  -2.361  0.00  0.00    +0.000 A 
ATOM      9  C   UNL     1       1.382   0.689  -1.004  0.00  0.00    +0.000 A 
ATOM     10  C   UNL     1       2.144   0.976   0.153  0.00  0.00    +0.000 A 
ATOM     11  C   UNL     1       3.479   1.324   0.444  0.00  0.00    +0.000 A 
ATOM     12  C   UNL     1       3.780   1.667   1.761  0.00  0.00    +0.000 A 
ATOM     13  C   UNL     1       2.773   1.881   2.694  0.00  0.00    +0.000 A 
ATOM     14  C   UNL     1       1.465   1.497   2.438  0.00  0.00    +0.000 A 
ATOM     15  C   UNL     1       1.240   0.858   1.210  0.00  0.00    +0.000 A 
ATOM     16  H   UNL     1      -0.404  -2.223  -1.061  0.00  0.00    +0.000 HD
ATOM     17  H   UNL     1       1.797   1.969  -2.718  0.00  0.00    +0.000 HD
ATOM     18  H   UNL     1       4.250   1.219  -0.311  0.00  0.00    +0.000 HD
ATOM     19  H   UNL     1       0.694   1.599   3.194  0.00  0.00    +0.000 HD
ENDROOT
BRANCH   2  20
ATOM     20  C   UNL     1      -2.232  -0.778   0.872  0.00  0.00    +0.000 A 
ATOM     21  C   UNL     1      -3.087  -1.556   1.660  0.00  0.00    +0.000 A 
ATOM     22  C   UNL     1      -4.332  -1.945   1.166  0.00  0.00    +0.000 A 
ATOM     23  C   UNL     1      -4.698  -1.581  -0.122  0.00  0.00    +0.000 A 
ATOM     24  C   UNL     1      -3.869  -0.806  -0.915  0.00  0.00    +0.000 A 
ATOM     25  C   UNL     1      -2.648  -0.373  -0.404  0.00  0.00    +0.000 A 
ATOM     26  H   UNL     1      -2.797  -1.837   2.674  0.00  0.00    +0.000 HD
ATOM     27  H   UNL     1      -5.004  -2.516   1.795  0.00  0.00    +0.000 HD
ATOM     28  H   UNL     1      -5.689  -1.873  -0.502  0.00  0.00    +0.000 HD
ATOM     29  H   UNL     1      -4.166  -0.523  -1.923  0.00  0.00    +0.000 HD
ATOM     30  H   UNL     1      -2.044   0.285  -1.025  0.00  0.00    +0.000 HD
ENDBRANCH   2  20
BRANCH   6  31
ATOM     31  O   UNL     1      -0.441  -1.824  -3.712  0.00  0.00    +0.000 OA
ATOM     32  H   UNL     1      -0.322  -2.732  -3.380  0.00  0.00    +0.000 HD
ENDBRANCH   6  31
BRANCH   7  33
ATOM     33  O   UNL     1       0.308   0.669  -4.474  0.00  0.00    +0.000 OA
ATOM     34  H   UNL     1      -0.326   0.008  -4.821  0.00  0.00    +0.000 HD
ENDBRANCH   7  33
BRANCH  12  35
ATOM     35  O   UNL     1       5.076   1.763   2.188  0.00  0.00    +0.000 OA
ATOM     36  H   UNL     1       5.567   1.055   1.731  0.00  0.00    +0.000 HD
ENDBRANCH  12  35
BRANCH  13  37
ATOM     37  O   UNL     1       3.074   2.400   3.921  0.00  0.00    +0.000 OA
ATOM     38  H   UNL     1       4.038   2.558   3.892  0.00  0.00    +0.000 HD
ENDBRANCH  13  37
TORSDOF 5
