MODEL 1
REMARK VINA RESULT:    -8.632      0.000      0.000
REMARK INTER + INTRA:         -10.702
REMARK INTER:                 -10.146
REMARK INTRA:                  -0.556
REMARK UNBOUND:                -0.556
REMARK  Name = 
REMARK  5 active torsions:
REMARK  status: ('A' for Active; 'I' for Inactive)
REMARK    1  A    between atoms: C_2  and  C_3
REMARK    2  A    between atoms: C_13  and  O_14
REMARK    3  A    between atoms: C_15  and  O_16
REMARK    4  A    between atoms: C_22  and  O_23
REMARK    5  A    between atoms: C_24  and  O_25
REMARK                            x       y       z     vdW  Elec       q    Type
REMARK                         _______ _______ _______ _____ _____    ______ ____
ROOT
ATOM      1  O   UNL     1     -11.384  -7.946  16.201  0.00  0.00    +0.000 OA
ATOM      2  C   UNL     1     -10.535  -7.092  16.453  0.00  0.00    +0.000 C 
ATOM      3  N   UNL     1      -9.738  -7.258  17.618  0.00  0.00    +0.000 N 
ATOM      4  C   UNL     1      -9.326  -6.210  18.466  0.00  0.00    +0.000 A 
ATOM      5  C   UNL     1      -9.613  -4.824  18.450  0.00  0.00    +0.000 A 
ATOM      6  C   UNL     1      -8.992  -4.005  19.388  0.00  0.00    +0.000 A 
ATOM      7  C   UNL     1      -8.181  -4.540  20.372  0.00  0.00    +0.000 A 
ATOM      8  C   UNL     1      -7.959  -5.910  20.451  0.00  0.00    +0.000 A 
ATOM      9  C   UNL     1      -8.538  -6.763  19.481  0.00  0.00    +0.000 A 
ATOM     10  C   UNL     1      -8.525  -8.175  19.295  0.00  0.00    +0.000 A 
ATOM     11  C   UNL     1      -7.931  -9.233  20.027  0.00  0.00    +0.000 A 
ATOM     12  C   UNL     1      -8.062 -10.557  19.599  0.00  0.00    +0.000 A 
ATOM     13  C   UNL     1      -8.758 -10.821  18.434  0.00  0.00    +0.000 A 
ATOM     14  C   UNL     1      -9.339  -9.796  17.681  0.00  0.00    +0.000 A 
ATOM     15  C   UNL     1      -9.258  -8.465  18.137  0.00  0.00    +0.000 A 
ATOM     16  H   UNL     1     -10.292  -4.392  17.727  0.00  0.00    +0.000 HD
ATOM     17  H   UNL     1      -7.343  -6.311  21.250  0.00  0.00    +0.000 HD
ATOM     18  H   UNL     1      -7.365  -9.014  20.930  0.00  0.00    +0.000 HD
ATOM     19  H   UNL     1      -7.602 -11.349  20.179  0.00  0.00    +0.000 HD
ENDROOT
BRANCH   2  20
ATOM     20  C   UNL     1     -10.506  -5.885  15.582  0.00  0.00    +0.000 A 
ATOM     21  C   UNL     1      -9.367  -5.648  14.803  0.00  0.00    +0.000 A 
ATOM     22  C   UNL     1      -9.360  -4.609  13.870  0.00  0.00    +0.000 A 
ATOM     23  C   UNL     1     -10.492  -3.809  13.719  0.00  0.00    +0.000 A 
ATOM     24 BR   UNL     1     -10.514  -2.459  12.398  0.00  0.00    +0.000 Br
ATOM     25  C   UNL     1     -11.614  -4.007  14.524  0.00  0.00    +0.000 A 
ATOM     26  C   UNL     1     -11.610  -5.026  15.480  0.00  0.00    +0.000 A 
ATOM     27  H   UNL     1      -8.492  -6.289  14.903  0.00  0.00    +0.000 HD
ATOM     28  H   UNL     1      -8.477  -4.448  13.257  0.00  0.00    +0.000 HD
ATOM     29  H   UNL     1     -12.500  -3.388  14.403  0.00  0.00    +0.000 HD
ATOM     30  H   UNL     1     -12.495  -5.173  16.097  0.00  0.00    +0.000 HD
ENDBRANCH   2  20
BRANCH   6  31
ATOM     31  O   UNL     1      -9.164  -2.646  19.366  0.00  0.00    +0.000 OA
ATOM     32  H   UNL     1      -8.960  -2.324  18.471  0.00  0.00    +0.000 HD
ENDBRANCH   6  31
BRANCH   7  33
ATOM     33  O   UNL     1      -7.602  -3.714  21.292  0.00  0.00    +0.000 OA
ATOM     34  H   UNL     1      -8.135  -2.893  21.256  0.00  0.00    +0.000 HD
ENDBRANCH   7  33
BRANCH  13  35
ATOM     35  O   UNL     1      -8.893 -12.101  17.957  0.00  0.00    +0.000 OA
ATOM     36  H   UNL     1      -9.840 -12.289  17.852  0.00  0.00    +0.000 HD
ENDBRANCH  13  35
BRANCH  14  37
ATOM     37  O   UNL     1      -9.940 -10.137  16.495  0.00  0.00    +0.000 OA
ATOM     38  H   UNL     1      -9.320 -10.759  16.067  0.00  0.00    +0.000 HD
ENDBRANCH  14  37
TORSDOF 5
ENDMDL
MODEL 2
REMARK VINA RESULT:    -8.366      3.732      6.334
REMARK INTER + INTRA:         -10.389
REMARK INTER:                  -9.904
REMARK INTRA:                  -0.485
REMARK UNBOUND:                -0.556
REMARK  Name = 
REMARK  5 active torsions:
REMARK  status: ('A' for Active; 'I' for Inactive)
REMARK    1  A    between atoms: C_2  and  C_3
REMARK    2  A    between atoms: C_13  and  O_14
REMARK    3  A    between atoms: C_15  and  O_16
REMARK    4  A    between atoms: C_22  and  O_23
REMARK    5  A    between atoms: C_24  and  O_25
REMARK                            x       y       z     vdW  Elec       q    Type
REMARK                         _______ _______ _______ _____ _____    ______ ____
ROOT
ATOM      1  O   UNL     1     -10.372  -4.657  17.903  0.00  0.00    +0.000 OA
ATOM      2  C   UNL     1      -9.532  -5.178  18.636  0.00  0.00    +0.000 C 
ATOM      3  N   UNL     1      -8.822  -4.345  19.543  0.00  0.00    +0.000 N 
ATOM      4  C   UNL     1      -7.458  -4.488  19.866  0.00  0.00    +0.000 A 
ATOM      5  C   UNL     1      -6.468  -5.375  19.379  0.00  0.00    +0.000 A 
ATOM      6  C   UNL     1      -5.200  -5.335  19.949  0.00  0.00    +0.000 A 
ATOM      7  C   UNL     1      -4.882  -4.392  20.909  0.00  0.00    +0.000 A 
ATOM      8  C   UNL     1      -5.821  -3.459  21.335  0.00  0.00    +0.000 A 
ATOM      9  C   UNL     1      -7.133  -3.507  20.808  0.00  0.00    +0.000 A 
ATOM     10  C   UNL     1      -8.293  -2.705  21.012  0.00  0.00    +0.000 A 
ATOM     11  C   UNL     1      -8.541  -1.564  21.813  0.00  0.00    +0.000 A 
ATOM     12  C   UNL     1      -9.808  -0.974  21.842  0.00  0.00    +0.000 A 
ATOM     13  C   UNL     1     -10.828  -1.538  21.098  0.00  0.00    +0.000 A 
ATOM     14  C   UNL     1     -10.618  -2.675  20.312  0.00  0.00    +0.000 A 
ATOM     15  C   UNL     1      -9.329  -3.240  20.236  0.00  0.00    +0.000 A 
ATOM     16  H   UNL     1      -6.677  -6.082  18.587  0.00  0.00    +0.000 HD
ATOM     17  H   UNL     1      -5.541  -2.707  22.067  0.00  0.00    +0.000 HD
ATOM     18  H   UNL     1      -7.739  -1.141  22.414  0.00  0.00    +0.000 HD
ATOM     19  H   UNL     1      -9.972  -0.098  22.459  0.00  0.00    +0.000 HD
ENDROOT
BRANCH   2  20
ATOM     20  C   UNL     1      -9.238  -6.620  18.416  0.00  0.00    +0.000 A 
ATOM     21  C   UNL     1      -9.293  -7.490  19.511  0.00  0.00    +0.000 A 
ATOM     22  C   UNL     1      -9.164  -8.867  19.319  0.00  0.00    +0.000 A 
ATOM     23  C   UNL     1      -8.980  -9.371  18.031  0.00  0.00    +0.000 A 
ATOM     24 BR   UNL     1      -8.891 -11.238  17.761  0.00  0.00    +0.000 Br
ATOM     25  C   UNL     1      -8.875  -8.508  16.940  0.00  0.00    +0.000 A 
ATOM     26  C   UNL     1      -8.972  -7.128  17.135  0.00  0.00    +0.000 A 
ATOM     27  H   UNL     1      -9.463  -7.099  20.514  0.00  0.00    +0.000 HD
ATOM     28  H   UNL     1      -9.229  -9.534  20.175  0.00  0.00    +0.000 HD
ATOM     29  H   UNL     1      -8.738  -8.899  15.935  0.00  0.00    +0.000 HD
ATOM     30  H   UNL     1      -8.895  -6.467  16.274  0.00  0.00    +0.000 HD
ENDBRANCH   2  20
BRANCH   6  31
ATOM     31  O   UNL     1      -4.228  -6.227  19.579  0.00  0.00    +0.000 OA
ATOM     32  H   UNL     1      -4.303  -7.016  20.143  0.00  0.00    +0.000 HD
ENDBRANCH   6  31
BRANCH   7  33
ATOM     33  O   UNL     1      -3.622  -4.362  21.436  0.00  0.00    +0.000 OA
ATOM     34  H   UNL     1      -3.310  -5.289  21.380  0.00  0.00    +0.000 HD
ENDBRANCH   7  33
BRANCH  13  35
ATOM     35  O   UNL     1     -12.096  -1.013  21.112  0.00  0.00    +0.000 OA
ATOM     36  H   UNL     1     -12.318  -0.726  20.211  0.00  0.00    +0.000 HD
ENDBRANCH  13  35
BRANCH  14  37
ATOM     37  O   UNL     1     -11.704  -3.218  19.671  0.00  0.00    +0.000 OA
ATOM     38  H   UNL     1     -11.331  -3.692  18.901  0.00  0.00    +0.000 HD
ENDBRANCH  14  37
TORSDOF 5
ENDMDL
MODEL 3
REMARK VINA RESULT:    -7.970      2.748      3.551
REMARK INTER + INTRA:          -9.924
REMARK INTER:                  -9.426
REMARK INTRA:                  -0.498
REMARK UNBOUND:                -0.556
REMARK  Name = 
REMARK  5 active torsions:
REMARK  status: ('A' for Active; 'I' for Inactive)
REMARK    1  A    between atoms: C_2  and  C_3
REMARK    2  A    between atoms: C_13  and  O_14
REMARK    3  A    between atoms: C_15  and  O_16
REMARK    4  A    between atoms: C_22  and  O_23
REMARK    5  A    between atoms: C_24  and  O_25
REMARK                            x       y       z     vdW  Elec       q    Type
REMARK                         _______ _______ _______ _____ _____    ______ ____
ROOT
ATOM      1  O   UNL     1     -12.215  -4.046  17.049  0.00  0.00    +0.000 OA
ATOM      2  C   UNL     1     -11.103  -3.636  17.376  0.00  0.00    +0.000 C 
ATOM      3  N   UNL     1     -10.192  -4.557  17.964  0.00  0.00    +0.000 N 
ATOM      4  C   UNL     1      -9.305  -4.251  19.015  0.00  0.00    +0.000 A 
ATOM      5  C   UNL     1      -9.121  -3.068  19.770  0.00  0.00    +0.000 A 
ATOM      6  C   UNL     1      -8.097  -3.032  20.711  0.00  0.00    +0.000 A 
ATOM      7  C   UNL     1      -7.330  -4.153  20.969  0.00  0.00    +0.000 A 
ATOM      8  C   UNL     1      -7.556  -5.347  20.294  0.00  0.00    +0.000 A 
ATOM      9  C   UNL     1      -8.558  -5.399  19.296  0.00  0.00    +0.000 A 
ATOM     10  C   UNL     1      -9.044  -6.444  18.459  0.00  0.00    +0.000 A 
ATOM     11  C   UNL     1      -8.697  -7.812  18.334  0.00  0.00    +0.000 A 
ATOM     12  C   UNL     1      -9.334  -8.626  17.393  0.00  0.00    +0.000 A 
ATOM     13  C   UNL     1     -10.290  -8.071  16.562  0.00  0.00    +0.000 A 
ATOM     14  C   UNL     1     -10.640  -6.720  16.650  0.00  0.00    +0.000 A 
ATOM     15  C   UNL     1     -10.041  -5.908  17.634  0.00  0.00    +0.000 A 
ATOM     16  H   UNL     1      -9.748  -2.198  19.628  0.00  0.00    +0.000 HD
ATOM     17  H   UNL     1      -6.962  -6.223  20.534  0.00  0.00    +0.000 HD
ATOM     18  H   UNL     1      -7.927  -8.235  18.975  0.00  0.00    +0.000 HD
ATOM     19  H   UNL     1      -9.054  -9.671  17.319  0.00  0.00    +0.000 HD
ENDROOT
BRANCH   2  20
ATOM     20  C   UNL     1     -10.851  -2.175  17.249  0.00  0.00    +0.000 A 
ATOM     21  C   UNL     1      -9.981  -1.729  16.247  0.00  0.00    +0.000 A 
ATOM     22  C   UNL     1      -9.833  -0.363  16.005  0.00  0.00    +0.000 A 
ATOM     23  C   UNL     1     -10.554   0.556  16.767  0.00  0.00    +0.000 A 
ATOM     24 BR   UNL     1     -10.418   2.401  16.383  0.00  0.00    +0.000 Br
ATOM     25  C   UNL     1     -11.387   0.124  17.799  0.00  0.00    +0.000 A 
ATOM     26  C   UNL     1     -11.512  -1.243  18.063  0.00  0.00    +0.000 A 
ATOM     27  H   UNL     1      -9.437  -2.448  15.634  0.00  0.00    +0.000 HD
ATOM     28  H   UNL     1      -9.170  -0.030  15.210  0.00  0.00    +0.000 HD
ATOM     29  H   UNL     1     -11.955   0.838  18.390  0.00  0.00    +0.000 HD
ATOM     30  H   UNL     1     -12.169  -1.566  18.868  0.00  0.00    +0.000 HD
ENDBRANCH   2  20
BRANCH   6  31
ATOM     31  O   UNL     1      -7.817  -1.887  21.410  0.00  0.00    +0.000 OA
ATOM     32  H   UNL     1      -7.330  -1.281  20.825  0.00  0.00    +0.000 HD
ENDBRANCH   6  31
BRANCH   7  33
ATOM     33  O   UNL     1      -6.344  -4.095  21.914  0.00  0.00    +0.000 OA
ATOM     34  H   UNL     1      -6.803  -3.809  22.730  0.00  0.00    +0.000 HD
ENDBRANCH   7  33
BRANCH  13  35
ATOM     35  O   UNL     1     -10.926  -8.821  15.605  0.00  0.00    +0.000 OA
ATOM     36  H   UNL     1     -10.307  -9.497  15.285  0.00  0.00    +0.000 HD
ENDBRANCH  13  35
BRANCH  14  37
ATOM     37  O   UNL     1     -11.538  -6.232  15.734  0.00  0.00    +0.000 OA
ATOM     38  H   UNL     1     -12.179  -5.714  16.259  0.00  0.00    +0.000 HD
ENDBRANCH  14  37
TORSDOF 5
ENDMDL
MODEL 4
REMARK VINA RESULT:    -7.851      3.410      6.732
REMARK INTER + INTRA:          -9.784
REMARK INTER:                  -9.240
REMARK INTRA:                  -0.544
REMARK UNBOUND:                -0.556
REMARK  Name = 
REMARK  5 active torsions:
REMARK  status: ('A' for Active; 'I' for Inactive)
REMARK    1  A    between atoms: C_2  and  C_3
REMARK    2  A    between atoms: C_13  and  O_14
REMARK    3  A    between atoms: C_15  and  O_16
REMARK    4  A    between atoms: C_22  and  O_23
REMARK    5  A    between atoms: C_24  and  O_25
REMARK                            x       y       z     vdW  Elec       q    Type
REMARK                         _______ _______ _______ _____ _____    ______ ____
ROOT
ATOM      1  O   UNL     1     -10.622  -5.454  19.121  0.00  0.00    +0.000 OA
ATOM      2  C   UNL     1     -10.335  -5.287  17.937  0.00  0.00    +0.000 C 
ATOM      3  N   UNL     1     -10.334  -3.960  17.425  0.00  0.00    +0.000 N 
ATOM      4  C   UNL     1     -10.778  -3.594  16.139  0.00  0.00    +0.000 A 
ATOM      5  C   UNL     1     -11.364  -4.354  15.098  0.00  0.00    +0.000 A 
ATOM      6  C   UNL     1     -11.635  -3.727  13.887  0.00  0.00    +0.000 A 
ATOM      7  C   UNL     1     -11.421  -2.371  13.726  0.00  0.00    +0.000 A 
ATOM      8  C   UNL     1     -10.925  -1.595  14.768  0.00  0.00    +0.000 A 
ATOM      9  C   UNL     1     -10.594  -2.215  15.996  0.00  0.00    +0.000 A 
ATOM     10  C   UNL     1     -10.099  -1.716  17.236  0.00  0.00    +0.000 A 
ATOM     11  C   UNL     1      -9.770  -0.413  17.681  0.00  0.00    +0.000 A 
ATOM     12  C   UNL     1      -9.273  -0.205  18.971  0.00  0.00    +0.000 A 
ATOM     13  C   UNL     1      -9.079  -1.294  19.801  0.00  0.00    +0.000 A 
ATOM     14  C   UNL     1      -9.378  -2.594  19.381  0.00  0.00    +0.000 A 
ATOM     15  C   UNL     1      -9.932  -2.804  18.102  0.00  0.00    +0.000 A 
ATOM     16  H   UNL     1     -11.596  -5.404  15.222  0.00  0.00    +0.000 HD
ATOM     17  H   UNL     1     -10.793  -0.526  14.630  0.00  0.00    +0.000 HD
ATOM     18  H   UNL     1      -9.903   0.436  17.015  0.00  0.00    +0.000 HD
ATOM     19  H   UNL     1      -9.032   0.803  19.291  0.00  0.00    +0.000 HD
ENDROOT
BRANCH   2  20
ATOM     20  C   UNL     1     -10.141  -6.506  17.105  0.00  0.00    +0.000 A 
ATOM     21  C   UNL     1      -8.921  -6.675  16.439  0.00  0.00    +0.000 A 
ATOM     22  C   UNL     1      -8.650  -7.869  15.768  0.00  0.00    +0.000 A 
ATOM     23  C   UNL     1      -9.599  -8.891  15.765  0.00  0.00    +0.000 A 
ATOM     24 BR   UNL     1      -9.198 -10.538  14.931  0.00  0.00    +0.000 Br
ATOM     25  C   UNL     1     -10.836  -8.713  16.385  0.00  0.00    +0.000 A 
ATOM     26  C   UNL     1     -11.121  -7.506  17.030  0.00  0.00    +0.000 A 
ATOM     27  H   UNL     1      -8.170  -5.887  16.463  0.00  0.00    +0.000 HD
ATOM     28  H   UNL     1      -7.692  -7.997  15.272  0.00  0.00    +0.000 HD
ATOM     29  H   UNL     1     -11.575  -9.511  16.389  0.00  0.00    +0.000 HD
ATOM     30  H   UNL     1     -12.088  -7.384  17.515  0.00  0.00    +0.000 HD
ENDBRANCH   2  20
BRANCH   6  31
ATOM     31  O   UNL     1     -12.121  -4.432  12.818  0.00  0.00    +0.000 OA
ATOM     32  H   UNL     1     -12.109  -3.852  12.036  0.00  0.00    +0.000 HD
ENDBRANCH   6  31
BRANCH   7  33
ATOM     33  O   UNL     1     -11.716  -1.777  12.532  0.00  0.00    +0.000 OA
ATOM     34  H   UNL     1     -12.402  -1.113  12.750  0.00  0.00    +0.000 HD
ENDBRANCH   7  33
BRANCH  13  35
ATOM     35  O   UNL     1      -8.570  -1.147  21.066  0.00  0.00    +0.000 OA
ATOM     36  H   UNL     1      -9.180  -1.569  21.692  0.00  0.00    +0.000 HD
ENDBRANCH  13  35
BRANCH  14  37
ATOM     37  O   UNL     1      -9.079  -3.625  20.237  0.00  0.00    +0.000 OA
ATOM     38  H   UNL     1      -9.595  -4.387  19.905  0.00  0.00    +0.000 HD
ENDBRANCH  14  37
TORSDOF 5
ENDMDL
MODEL 5
REMARK VINA RESULT:    -7.843      2.999      4.459
REMARK INTER + INTRA:          -9.775
REMARK INTER:                  -9.216
REMARK INTRA:                  -0.559
REMARK UNBOUND:                -0.556
REMARK  Name = 
REMARK  5 active torsions:
REMARK  status: ('A' for Active; 'I' for Inactive)
REMARK    1  A    between atoms: C_2  and  C_3
REMARK    2  A    between atoms: C_13  and  O_14
REMARK    3  A    between atoms: C_15  and  O_16
REMARK    4  A    between atoms: C_22  and  O_23
REMARK    5  A    between atoms: C_24  and  O_25
REMARK                            x       y       z     vdW  Elec       q    Type
REMARK                         _______ _______ _______ _____ _____    ______ ____
ROOT
ATOM      1  O   UNL     1     -12.024  -3.890  18.780  0.00  0.00    +0.000 OA
ATOM      2  C   UNL     1     -10.851  -3.519  18.793  0.00  0.00    +0.000 C 
ATOM      3  N   UNL     1      -9.831  -4.510  18.770  0.00  0.00    +0.000 N 
ATOM      4  C   UNL     1      -8.621  -4.434  19.487  0.00  0.00    +0.000 A 
ATOM      5  C   UNL     1      -8.136  -3.474  20.408  0.00  0.00    +0.000 A 
ATOM      6  C   UNL     1      -6.848  -3.625  20.910  0.00  0.00    +0.000 A 
ATOM      7  C   UNL     1      -6.085  -4.732  20.588  0.00  0.00    +0.000 A 
ATOM      8  C   UNL     1      -6.581  -5.725  19.750  0.00  0.00    +0.000 A 
ATOM      9  C   UNL     1      -7.871  -5.575  19.187  0.00  0.00    +0.000 A 
ATOM     10  C   UNL     1      -8.661  -6.397  18.332  0.00  0.00    +0.000 A 
ATOM     11  C   UNL     1      -8.435  -7.667  17.747  0.00  0.00    +0.000 A 
ATOM     12  C   UNL     1      -9.393  -8.247  16.911  0.00  0.00    +0.000 A 
ATOM     13  C   UNL     1     -10.556  -7.552  16.638  0.00  0.00    +0.000 A 
ATOM     14  C   UNL     1     -10.797  -6.288  17.185  0.00  0.00    +0.000 A 
ATOM     15  C   UNL     1      -9.860  -5.722  18.073  0.00  0.00    +0.000 A 
ATOM     16  H   UNL     1      -8.738  -2.631  20.721  0.00  0.00    +0.000 HD
ATOM     17  H   UNL     1      -5.977  -6.601  19.536  0.00  0.00    +0.000 HD
ATOM     18  H   UNL     1      -7.507  -8.198  17.949  0.00  0.00    +0.000 HD
ATOM     19  H   UNL     1      -9.199  -9.223  16.480  0.00  0.00    +0.000 HD
ENDROOT
BRANCH   2  20
ATOM     20  C   UNL     1     -10.601  -2.062  18.966  0.00  0.00    +0.000 A 
ATOM     21  C   UNL     1      -9.926  -1.373  17.951  0.00  0.00    +0.000 A 
ATOM     22  C   UNL     1      -9.800   0.016  18.012  0.00  0.00    +0.000 A 
ATOM     23  C   UNL     1     -10.349   0.713  19.088  0.00  0.00    +0.000 A 
ATOM     24 BR   UNL     1     -10.253   2.599  19.127  0.00  0.00    +0.000 Br
ATOM     25  C   UNL     1     -10.981   0.030  20.127  0.00  0.00    +0.000 A 
ATOM     26  C   UNL     1     -11.080  -1.363  20.083  0.00  0.00    +0.000 A 
ATOM     27  H   UNL     1      -9.519  -1.915  17.098  0.00  0.00    +0.000 HD
ATOM     28  H   UNL     1      -9.291   0.542  17.208  0.00  0.00    +0.000 HD
ATOM     29  H   UNL     1     -11.416   0.573  20.964  0.00  0.00    +0.000 HD
ATOM     30  H   UNL     1     -11.582  -1.881  20.898  0.00  0.00    +0.000 HD
ENDBRANCH   2  20
BRANCH   6  31
ATOM     31  O   UNL     1      -6.295  -2.682  21.736  0.00  0.00    +0.000 OA
ATOM     32  H   UNL     1      -5.507  -2.314  21.300  0.00  0.00    +0.000 HD
ENDBRANCH   6  31
BRANCH   7  33
ATOM     33  O   UNL     1      -4.830  -4.864  21.112  0.00  0.00    +0.000 OA
ATOM     34  H   UNL     1      -4.478  -3.950  21.140  0.00  0.00    +0.000 HD
ENDBRANCH   7  33
BRANCH  13  35
ATOM     35  O   UNL     1     -11.516  -8.065  15.803  0.00  0.00    +0.000 OA
ATOM     36  H   UNL     1     -11.577  -9.022  15.959  0.00  0.00    +0.000 HD
ENDBRANCH  13  35
BRANCH  14  37
ATOM     37  O   UNL     1     -11.939  -5.631  16.797  0.00  0.00    +0.000 OA
ATOM     38  H   UNL     1     -12.650  -6.015  17.346  0.00  0.00    +0.000 HD
ENDBRANCH  14  37
TORSDOF 5
ENDMDL
MODEL 6
REMARK VINA RESULT:    -7.722      6.554      9.542
REMARK INTER + INTRA:          -9.632
REMARK INTER:                  -9.369
REMARK INTRA:                  -0.263
REMARK UNBOUND:                -0.556
REMARK  Name = 
REMARK  5 active torsions:
REMARK  status: ('A' for Active; 'I' for Inactive)
REMARK    1  A    between atoms: C_2  and  C_3
REMARK    2  A    between atoms: C_13  and  O_14
REMARK    3  A    between atoms: C_15  and  O_16
REMARK    4  A    between atoms: C_22  and  O_23
REMARK    5  A    between atoms: C_24  and  O_25
REMARK                            x       y       z     vdW  Elec       q    Type
REMARK                         _______ _______ _______ _____ _____    ______ ____
ROOT
ATOM      1  O   UNL     1     -10.608   0.391  22.203  0.00  0.00    +0.000 OA
ATOM      2  C   UNL     1      -9.766   0.180  23.075  0.00  0.00    +0.000 C 
ATOM      3  N   UNL     1      -9.237  -1.134  23.195  0.00  0.00    +0.000 N 
ATOM      4  C   UNL     1      -8.928  -1.767  24.416  0.00  0.00    +0.000 A 
ATOM      5  C   UNL     1      -9.100  -1.350  25.757  0.00  0.00    +0.000 A 
ATOM      6  C   UNL     1      -8.622  -2.168  26.776  0.00  0.00    +0.000 A 
ATOM      7  C   UNL     1      -8.070  -3.404  26.493  0.00  0.00    +0.000 A 
ATOM      8  C   UNL     1      -7.973  -3.863  25.184  0.00  0.00    +0.000 A 
ATOM      9  C   UNL     1      -8.406  -3.031  24.125  0.00  0.00    +0.000 A 
ATOM     10  C   UNL     1      -8.463  -3.206  22.712  0.00  0.00    +0.000 A 
ATOM     11  C   UNL     1      -8.111  -4.285  21.864  0.00  0.00    +0.000 A 
ATOM     12  C   UNL     1      -8.252  -4.178  20.478  0.00  0.00    +0.000 A 
ATOM     13  C   UNL     1      -8.715  -2.991  19.939  0.00  0.00    +0.000 A 
ATOM     14  C   UNL     1      -9.052  -1.903  20.750  0.00  0.00    +0.000 A 
ATOM     15  C   UNL     1      -8.965  -2.025  22.151  0.00  0.00    +0.000 A 
ATOM     16  H   UNL     1      -9.583  -0.413  26.005  0.00  0.00    +0.000 HD
ATOM     17  H   UNL     1      -7.564  -4.850  24.988  0.00  0.00    +0.000 HD
ATOM     18  H   UNL     1      -7.725  -5.207  22.294  0.00  0.00    +0.000 HD
ATOM     19  H   UNL     1      -7.981  -5.019  19.850  0.00  0.00    +0.000 HD
ENDROOT
BRANCH   2  20
ATOM     20  C   UNL     1      -9.470   1.293  24.017  0.00  0.00    +0.000 A 
ATOM     21  C   UNL     1      -8.138   1.526  24.382  0.00  0.00    +0.000 A 
ATOM     22  C   UNL     1      -7.807   2.645  25.147  0.00  0.00    +0.000 A 
ATOM     23  C   UNL     1      -8.809   3.530  25.547  0.00  0.00    +0.000 A 
ATOM     24 BR   UNL     1      -8.351   5.089  26.510  0.00  0.00    +0.000 Br
ATOM     25  C   UNL     1     -10.144   3.280  25.229  0.00  0.00    +0.000 A 
ATOM     26  C   UNL     1     -10.480   2.143  24.490  0.00  0.00    +0.000 A 
ATOM     27  H   UNL     1      -7.352   0.849  24.048  0.00  0.00    +0.000 HD
ATOM     28  H   UNL     1      -6.768   2.826  25.407  0.00  0.00    +0.000 HD
ATOM     29  H   UNL     1     -10.926   3.972  25.535  0.00  0.00    +0.000 HD
ATOM     30  H   UNL     1     -11.525   1.964  24.244  0.00  0.00    +0.000 HD
ENDBRANCH   2  20
BRANCH   6  31
ATOM     31  O   UNL     1      -8.683  -1.777  28.087  0.00  0.00    +0.000 OA
ATOM     32  H   UNL     1      -7.990  -1.112  28.242  0.00  0.00    +0.000 HD
ENDBRANCH   6  31
BRANCH   7  33
ATOM     33  O   UNL     1      -7.629  -4.197  27.515  0.00  0.00    +0.000 OA
ATOM     34  H   UNL     1      -8.320  -4.883  27.610  0.00  0.00    +0.000 HD
ENDBRANCH   7  33
BRANCH  13  35
ATOM     35  O   UNL     1      -8.847  -2.826  18.583  0.00  0.00    +0.000 OA
ATOM     36  H   UNL     1      -9.769  -2.589  18.393  0.00  0.00    +0.000 HD
ENDBRANCH  13  35
BRANCH  14  37
ATOM     37  O   UNL     1      -9.424  -0.736  20.130  0.00  0.00    +0.000 OA
ATOM     38  H   UNL     1      -9.192  -0.865  19.189  0.00  0.00    +0.000 HD
ENDBRANCH  14  37
TORSDOF 5
ENDMDL
MODEL 7
REMARK VINA RESULT:    -7.690      3.360      5.829
REMARK INTER + INTRA:          -9.595
REMARK INTER:                  -9.841
REMARK INTRA:                   0.245
REMARK UNBOUND:                -0.556
REMARK  Name = 
REMARK  5 active torsions:
REMARK  status: ('A' for Active; 'I' for Inactive)
REMARK    1  A    between atoms: C_2  and  C_3
REMARK    2  A    between atoms: C_13  and  O_14
REMARK    3  A    between atoms: C_15  and  O_16
REMARK    4  A    between atoms: C_22  and  O_23
REMARK    5  A    between atoms: C_24  and  O_25
REMARK                            x       y       z     vdW  Elec       q    Type
REMARK                         _______ _______ _______ _____ _____    ______ ____
ROOT
ATOM      1  O   UNL     1     -10.220  -6.784  15.801  0.00  0.00    +0.000 OA
ATOM      2  C   UNL     1      -9.691  -6.953  16.898  0.00  0.00    +0.000 C 
ATOM      3  N   UNL     1      -9.437  -5.811  17.706  0.00  0.00    +0.000 N 
ATOM      4  C   UNL     1      -8.293  -5.634  18.510  0.00  0.00    +0.000 A 
ATOM      5  C   UNL     1      -7.136  -6.431  18.683  0.00  0.00    +0.000 A 
ATOM      6  C   UNL     1      -6.187  -6.034  19.619  0.00  0.00    +0.000 A 
ATOM      7  C   UNL     1      -6.322  -4.841  20.305  0.00  0.00    +0.000 A 
ATOM      8  C   UNL     1      -7.412  -4.006  20.082  0.00  0.00    +0.000 A 
ATOM      9  C   UNL     1      -8.418  -4.408  19.172  0.00  0.00    +0.000 A 
ATOM     10  C   UNL     1      -9.618  -3.792  18.713  0.00  0.00    +0.000 A 
ATOM     11  C   UNL     1     -10.228  -2.546  19.004  0.00  0.00    +0.000 A 
ATOM     12  C   UNL     1     -11.445  -2.195  18.415  0.00  0.00    +0.000 A 
ATOM     13  C   UNL     1     -12.065  -3.092  17.565  0.00  0.00    +0.000 A 
ATOM     14  C   UNL     1     -11.496  -4.336  17.275  0.00  0.00    +0.000 A 
ATOM     15  C   UNL     1     -10.242  -4.673  17.821  0.00  0.00    +0.000 A 
ATOM     16  H   UNL     1      -6.980  -7.338  18.113  0.00  0.00    +0.000 HD
ATOM     17  H   UNL     1      -7.483  -3.060  20.609  0.00  0.00    +0.000 HD
ATOM     18  H   UNL     1      -9.745  -1.856  19.692  0.00  0.00    +0.000 HD
ATOM     19  H   UNL     1     -11.889  -1.233  18.649  0.00  0.00    +0.000 HD
ENDROOT
BRANCH   2  20
ATOM     20  C   UNL     1      -9.240  -8.332  17.230  0.00  0.00    +0.000 A 
ATOM     21  C   UNL     1      -9.127  -8.694  18.578  0.00  0.00    +0.000 A 
ATOM     22  C   UNL     1      -8.847 -10.016  18.927  0.00  0.00    +0.000 A 
ATOM     23  C   UNL     1      -8.680 -10.974  17.927  0.00  0.00    +0.000 A 
ATOM     24 BR   UNL     1      -8.386 -12.779  18.400  0.00  0.00    +0.000 Br
ATOM     25  C   UNL     1      -8.744 -10.613  16.581  0.00  0.00    +0.000 A 
ATOM     26  C   UNL     1      -8.992  -9.284  16.230  0.00  0.00    +0.000 A 
ATOM     27  H   UNL     1      -9.283  -7.951  19.360  0.00  0.00    +0.000 HD
ATOM     28  H   UNL     1      -8.782 -10.289  19.977  0.00  0.00    +0.000 HD
ATOM     29  H   UNL     1      -8.620 -11.360  15.800  0.00  0.00    +0.000 HD
ATOM     30  H   UNL     1      -9.045  -9.018  15.176  0.00  0.00    +0.000 HD
ENDBRANCH   2  20
BRANCH   6  31
ATOM     31  O   UNL     1      -5.091  -6.810  19.890  0.00  0.00    +0.000 OA
ATOM     32  H   UNL     1      -5.187  -7.654  19.417  0.00  0.00    +0.000 HD
ENDBRANCH   6  31
BRANCH   7  33
ATOM     33  O   UNL     1      -5.364  -4.465  21.203  0.00  0.00    +0.000 OA
ATOM     34  H   UNL     1      -4.716  -3.958  20.672  0.00  0.00    +0.000 HD
ENDBRANCH   7  33
BRANCH  13  35
ATOM     35  O   UNL     1     -13.274  -2.805  16.982  0.00  0.00    +0.000 OA
ATOM     36  H   UNL     1     -13.973  -3.239  17.499  0.00  0.00    +0.000 HD
ENDBRANCH  13  35
BRANCH  14  37
ATOM     37  O   UNL     1     -12.217  -5.199  16.486  0.00  0.00    +0.000 OA
ATOM     38  H   UNL     1     -13.065  -5.322  16.956  0.00  0.00    +0.000 HD
ENDBRANCH  14  37
TORSDOF 5
ENDMDL
MODEL 8
REMARK VINA RESULT:    -7.625      3.480      6.677
REMARK INTER + INTRA:          -9.519
REMARK INTER:                  -8.980
REMARK INTRA:                  -0.539
REMARK UNBOUND:                -0.556
REMARK  Name = 
REMARK  5 active torsions:
REMARK  status: ('A' for Active; 'I' for Inactive)
REMARK    1  A    between atoms: C_2  and  C_3
REMARK    2  A    between atoms: C_13  and  O_14
REMARK    3  A    between atoms: C_15  and  O_16
REMARK    4  A    between atoms: C_22  and  O_23
REMARK    5  A    between atoms: C_24  and  O_25
REMARK                            x       y       z     vdW  Elec       q    Type
REMARK                         _______ _______ _______ _____ _____    ______ ____
ROOT
ATOM      1  O   UNL     1      -9.238  -5.358  14.121  0.00  0.00    +0.000 OA
ATOM      2  C   UNL     1      -9.849  -5.186  15.174  0.00  0.00    +0.000 C 
ATOM      3  N   UNL     1     -10.562  -3.967  15.347  0.00  0.00    +0.000 N 
ATOM      4  C   UNL     1     -10.655  -3.256  16.560  0.00  0.00    +0.000 A 
ATOM      5  C   UNL     1     -10.068  -3.485  17.828  0.00  0.00    +0.000 A 
ATOM      6  C   UNL     1     -10.408  -2.641  18.880  0.00  0.00    +0.000 A 
ATOM      7  C   UNL     1     -11.231  -1.549  18.678  0.00  0.00    +0.000 A 
ATOM      8  C   UNL     1     -11.747  -1.264  17.419  0.00  0.00    +0.000 A 
ATOM      9  C   UNL     1     -11.458  -2.133  16.339  0.00  0.00    +0.000 A 
ATOM     10  C   UNL     1     -11.802  -2.114  14.957  0.00  0.00    +0.000 A 
ATOM     11  C   UNL     1     -12.554  -1.209  14.168  0.00  0.00    +0.000 A 
ATOM     12  C   UNL     1     -12.759  -1.450  12.807  0.00  0.00    +0.000 A 
ATOM     13  C   UNL     1     -12.242  -2.602  12.243  0.00  0.00    +0.000 A 
ATOM     14  C   UNL     1     -11.512  -3.522  13.001  0.00  0.00    +0.000 A 
ATOM     15  C   UNL     1     -11.254  -3.257  14.361  0.00  0.00    +0.000 A 
ATOM     16  H   UNL     1      -9.373  -4.298  17.995  0.00  0.00    +0.000 HD
ATOM     17  H   UNL     1     -12.367  -0.384  17.276  0.00  0.00    +0.000 HD
ATOM     18  H   UNL     1     -12.977  -0.317  14.625  0.00  0.00    +0.000 HD
ATOM     19  H   UNL     1     -13.333  -0.740  12.223  0.00  0.00    +0.000 HD
ENDROOT
BRANCH   2  20
ATOM     20  C   UNL     1      -9.682  -6.217  16.235  0.00  0.00    +0.000 A 
ATOM     21  C   UNL     1      -8.387  -6.530  16.666  0.00  0.00    +0.000 A 
ATOM     22  C   UNL     1      -8.199  -7.384  17.754  0.00  0.00    +0.000 A 
ATOM     23  C   UNL     1      -9.307  -7.923  18.409  0.00  0.00    +0.000 A 
ATOM     24 BR   UNL     1      -9.055  -9.010  19.933  0.00  0.00    +0.000 Br
ATOM     25  C   UNL     1     -10.599  -7.655  17.956  0.00  0.00    +0.000 A 
ATOM     26  C   UNL     1     -10.787  -6.826  16.847  0.00  0.00    +0.000 A 
ATOM     27  H   UNL     1      -7.523  -6.089  16.171  0.00  0.00    +0.000 HD
ATOM     28  H   UNL     1      -7.190  -7.604  18.092  0.00  0.00    +0.000 HD
ATOM     29  H   UNL     1     -11.463  -8.069  18.469  0.00  0.00    +0.000 HD
ATOM     30  H   UNL     1     -11.801  -6.620  16.509  0.00  0.00    +0.000 HD
ENDBRANCH   2  20
BRANCH   6  31
ATOM     31  O   UNL     1      -9.939  -2.866  20.148  0.00  0.00    +0.000 OA
ATOM     32  H   UNL     1      -9.141  -2.325  20.281  0.00  0.00    +0.000 HD
ENDBRANCH   6  31
BRANCH   7  33
ATOM     33  O   UNL     1     -11.531  -0.726  19.726  0.00  0.00    +0.000 OA
ATOM     34  H   UNL     1     -11.591   0.167  19.328  0.00  0.00    +0.000 HD
ENDBRANCH   7  33
BRANCH  13  35
ATOM     35  O   UNL     1     -12.437  -2.898  10.917  0.00  0.00    +0.000 OA
ATOM     36  H   UNL     1     -12.735  -2.092  10.465  0.00  0.00    +0.000 HD
ENDBRANCH  13  35
BRANCH  14  37
ATOM     37  O   UNL     1     -11.104  -4.678  12.382  0.00  0.00    +0.000 OA
ATOM     38  H   UNL     1     -10.364  -4.408  11.805  0.00  0.00    +0.000 HD
ENDBRANCH  14  37
TORSDOF 5
ENDMDL
MODEL 9
REMARK VINA RESULT:    -7.414      3.895      6.542
REMARK INTER + INTRA:          -9.271
REMARK INTER:                  -8.717
REMARK INTRA:                  -0.554
REMARK UNBOUND:                -0.556
REMARK  Name = 
REMARK  5 active torsions:
REMARK  status: ('A' for Active; 'I' for Inactive)
REMARK    1  A    between atoms: C_2  and  C_3
REMARK    2  A    between atoms: C_13  and  O_14
REMARK    3  A    between atoms: C_15  and  O_16
REMARK    4  A    between atoms: C_22  and  O_23
REMARK    5  A    between atoms: C_24  and  O_25
REMARK                            x       y       z     vdW  Elec       q    Type
REMARK                         _______ _______ _______ _____ _____    ______ ____
ROOT
ATOM      1  O   UNL     1      -6.998  -4.540  20.830  0.00  0.00    +0.000 OA
ATOM      2  C   UNL     1      -8.009  -3.839  20.834  0.00  0.00    +0.000 C 
ATOM      3  N   UNL     1      -8.866  -3.888  19.701  0.00  0.00    +0.000 N 
ATOM      4  C   UNL     1      -9.540  -2.777  19.154  0.00  0.00    +0.000 A 
ATOM      5  C   UNL     1      -9.513  -1.404  19.496  0.00  0.00    +0.000 A 
ATOM      6  C   UNL     1     -10.358  -0.532  18.817  0.00  0.00    +0.000 A 
ATOM      7  C   UNL     1     -11.144  -0.977  17.770  0.00  0.00    +0.000 A 
ATOM      8  C   UNL     1     -11.116  -2.308  17.368  0.00  0.00    +0.000 A 
ATOM      9  C   UNL     1     -10.303  -3.227  18.073  0.00  0.00    +0.000 A 
ATOM     10  C   UNL     1     -10.038  -4.617  17.907  0.00  0.00    +0.000 A 
ATOM     11  C   UNL     1     -10.493  -5.574  16.966  0.00  0.00    +0.000 A 
ATOM     12  C   UNL     1     -10.081  -6.907  17.050  0.00  0.00    +0.000 A 
ATOM     13  C   UNL     1      -9.244  -7.288  18.083  0.00  0.00    +0.000 A 
ATOM     14  C   UNL     1      -8.795  -6.369  19.036  0.00  0.00    +0.000 A 
ATOM     15  C   UNL     1      -9.161  -5.013  18.924  0.00  0.00    +0.000 A 
ATOM     16  H   UNL     1      -8.861  -1.023  20.272  0.00  0.00    +0.000 HD
ATOM     17  H   UNL     1     -11.719  -2.628  16.524  0.00  0.00    +0.000 HD
ATOM     18  H   UNL     1     -11.170  -5.271  16.171  0.00  0.00    +0.000 HD
ATOM     19  H   UNL     1     -10.439  -7.620  16.316  0.00  0.00    +0.000 HD
ENDROOT
BRANCH   2  20
ATOM     20  C   UNL     1      -8.179  -2.898  21.974  0.00  0.00    +0.000 A 
ATOM     21  C   UNL     1      -7.172  -1.957  22.223  0.00  0.00    +0.000 A 
ATOM     22  C   UNL     1      -7.361  -0.968  23.190  0.00  0.00    +0.000 A 
ATOM     23  C   UNL     1      -8.557  -0.923  23.907  0.00  0.00    +0.000 A 
ATOM     24 BR   UNL     1      -8.847   0.466  25.155  0.00  0.00    +0.000 Br
ATOM     25  C   UNL     1      -9.546  -1.884  23.700  0.00  0.00    +0.000 A 
ATOM     26  C   UNL     1      -9.345  -2.893  22.754  0.00  0.00    +0.000 A 
ATOM     27  H   UNL     1      -6.249  -1.977  21.645  0.00  0.00    +0.000 HD
ATOM     28  H   UNL     1      -6.580  -0.232  23.361  0.00  0.00    +0.000 HD
ATOM     29  H   UNL     1     -10.481  -1.846  24.253  0.00  0.00    +0.000 HD
ATOM     30  H   UNL     1     -10.127  -3.633  22.599  0.00  0.00    +0.000 HD
ENDBRANCH   2  20
BRANCH   6  31
ATOM     31  O   UNL     1     -10.438   0.791  19.163  0.00  0.00    +0.000 OA
ATOM     32  H   UNL     1     -11.354   0.986  19.426  0.00  0.00    +0.000 HD
ENDBRANCH   6  31
BRANCH   7  33
ATOM     33  O   UNL     1     -11.948  -0.094  17.107  0.00  0.00    +0.000 OA
ATOM     34  H   UNL     1     -11.633   0.788  17.392  0.00  0.00    +0.000 HD
ENDBRANCH   7  33
BRANCH  13  35
ATOM     35  O   UNL     1      -8.832  -8.589  18.225  0.00  0.00    +0.000 OA
ATOM     36  H   UNL     1      -8.189  -8.784  17.524  0.00  0.00    +0.000 HD
ENDBRANCH  13  35
BRANCH  14  37
ATOM     37  O   UNL     1      -8.034  -6.847  20.074  0.00  0.00    +0.000 OA
ATOM     38  H   UNL     1      -7.197  -7.138  19.661  0.00  0.00    +0.000 HD
ENDBRANCH  14  37
TORSDOF 5
ENDMDL
