REMARK  Name = 
REMARK  7 active torsions:
REMARK  status: ('A' for Active; 'I' for Inactive)
REMARK    1  A    between atoms: C_1  and  O_2
REMARK    2  A    between atoms: O_2  and  C_3
REMARK    3  A    between atoms: C_4  and  N_5
REMARK    4  A    between atoms: N_5  and  C_6
REMARK    5  A    between atoms: N_5  and  C_7
REMARK    6  A    between atoms: C_7  and  C_8
REMARK    7  A    between atoms: C_17  and  C_18
REMARK                            x       y       z     vdW  Elec       q    Type
REMARK                         _______ _______ _______ _____ _____    ______ ____
ROOT
ATOM      1  C   UNL     1       0.963  -0.669  -1.259  0.00  0.00    +0.000 C 
ATOM      2  C   UNL     1       1.880   0.566  -0.870  0.00  0.00    +0.000 C 
ATOM      3  C   UNL     1       0.901   1.802  -0.908  0.00  0.00    +0.000 C 
ATOM      4  C   UNL     1      -0.464   1.370  -0.195  0.00  0.00    +0.000 C 
ATOM      5  O   UNL     1       0.033   0.412   0.800  0.00  0.00    +0.000 OA
ATOM      6  C   UNL     1       0.286  -0.904   0.201  0.00  0.00    +0.000 C 
ATOM      7  N   UNL     1      -0.930  -1.518   0.642  0.00  0.00    +0.000 N 
ATOM      8  C   UNL     1      -1.195  -1.947   1.996  0.00  0.00    +0.000 A 
ATOM      9  C   UNL     1      -0.389  -1.974   3.152  0.00  0.00    +0.000 A 
ATOM     10  C   UNL     1      -0.821  -2.614   4.301  0.00  0.00    +0.000 A 
ATOM     11  C   UNL     1      -2.074  -3.215   4.343  0.00  0.00    +0.000 A 
ATOM     12  C   UNL     1      -2.980  -2.984   3.318  0.00  0.00    +0.000 A 
ATOM     13  C   UNL     1      -2.596  -2.217   2.205  0.00  0.00    +0.000 A 
ATOM     14  C   UNL     1      -3.224  -1.445   1.246  0.00  0.00    +0.000 A 
ATOM     15  C   UNL     1      -4.563  -1.049   1.313  0.00  0.00    +0.000 A 
ATOM     16  C   UNL     1      -4.974  -0.695   0.044  0.00  0.00    +0.000 A 
ATOM     17  C   UNL     1      -3.945  -0.051  -0.709  0.00  0.00    +0.000 A 
ATOM     18  C   UNL     1      -3.863   1.395  -0.406  0.00  0.00    +0.000 A 
ATOM     19  C   UNL     1      -4.886   2.341  -0.255  0.00  0.00    +0.000 A 
ATOM     20  C   UNL     1      -5.557   2.529  -1.443  0.00  0.00    +0.000 A 
ATOM     21  C   UNL     1      -4.838   2.329  -2.626  0.00  0.00    +0.000 A 
ATOM     22  C   UNL     1      -3.422   2.050  -2.612  0.00  0.00    +0.000 A 
ATOM     23  C   UNL     1      -2.817   1.748  -1.345  0.00  0.00    +0.000 A 
ATOM     24  N   UNL     1      -1.696   0.916  -0.935  0.00  0.00    +0.000 N 
ATOM     25  C   UNL     1      -2.509  -0.170  -0.585  0.00  0.00    +0.000 A 
ATOM     26  C   UNL     1      -2.188  -1.122   0.352  0.00  0.00    +0.000 A 
ATOM     27  C   UNL     1      -6.109  -1.531  -0.218  0.00  0.00    +0.000 C 
ATOM     28  O   UNL     1      -6.537  -2.073  -1.228  0.00  0.00    +0.000 OA
ATOM     29  N   UNL     1      -6.552  -1.897   1.077  0.00  0.00    +0.000 N 
ATOM     30  C   UNL     1      -5.702  -1.394   2.140  0.00  0.00    +0.000 C 
ATOM     31  H   UNL     1       1.527  -1.545  -1.596  0.00  0.00    +0.000 HD
ATOM     32  H   UNL     1       2.023   0.470   0.209  0.00  0.00    +0.000 HD
ATOM     33  H   UNL     1       1.358   2.580  -0.282  0.00  0.00    +0.000 HD
ATOM     34  H   UNL     1       0.748   2.239  -1.895  0.00  0.00    +0.000 HD
ATOM     35  H   UNL     1      -0.824   2.243   0.364  0.00  0.00    +0.000 HD
ATOM     36  H   UNL     1       0.562  -1.438   3.193  0.00  0.00    +0.000 HD
ATOM     37  H   UNL     1      -0.176  -2.653   5.172  0.00  0.00    +0.000 HD
ATOM     38  H   UNL     1      -2.384  -3.767   5.221  0.00  0.00    +0.000 HD
ATOM     39  H   UNL     1      -3.996  -3.351   3.415  0.00  0.00    +0.000 HD
ATOM     40  H   UNL     1      -4.756   3.210   0.391  0.00  0.00    +0.000 HD
ATOM     41  H   UNL     1      -6.581   2.889  -1.427  0.00  0.00    +0.000 HD
ATOM     42  H   UNL     1      -5.389   2.373  -3.564  0.00  0.00    +0.000 HD
ATOM     43  H   UNL     1      -2.920   1.839  -3.550  0.00  0.00    +0.000 HD
ATOM     44  H   UNL     1      -6.953  -2.821   1.146  0.00  0.00    +0.000 HD
ATOM     45  H   UNL     1      -6.174  -0.476   2.518  0.00  0.00    +0.000 HD
ATOM     46  H   UNL     1      -5.561  -2.094   2.953  0.00  0.00    +0.000 HD
ENDROOT
BRANCH   6  47
ATOM     47  C   UNL     1       1.436  -1.765   0.869  0.00  0.00    +0.000 C 
ATOM     48  H   UNL     1       1.092  -2.775   1.134  0.00  0.00    +0.000 HD
ATOM     49  H   UNL     1       2.265  -1.997   0.195  0.00  0.00    +0.000 HD
ATOM     50  H   UNL     1       1.896  -1.261   1.724  0.00  0.00    +0.000 HD
ENDBRANCH   6  47
BRANCH   1  51
ATOM     51  O   UNL     1       0.073  -0.339  -2.338  0.00  0.00    +0.000 OA
BRANCH  51  52
ATOM     52  C   UNL     1       0.682   0.115  -3.546  0.00  0.00    +0.000 C 
ATOM     53  H   UNL     1      -0.074   0.644  -4.134  0.00  0.00    +0.000 HD
ATOM     54  H   UNL     1       1.066  -0.724  -4.127  0.00  0.00    +0.000 HD
ATOM     55  H   UNL     1       1.482   0.840  -3.379  0.00  0.00    +0.000 HD
ENDBRANCH  51  52
ENDBRANCH   1  51
BRANCH   2  56
ATOM     56  N   UNL     1       3.347   0.499  -1.100  0.00  0.00    +0.000 NA
BRANCH  56  57
ATOM     57  C   UNL     1       3.846   0.340  -2.444  0.00  0.00    +0.000 C 
ATOM     58  H   UNL     1       3.302  -0.440  -2.984  0.00  0.00    +0.000 HD
ATOM     59  H   UNL     1       4.884  -0.012  -2.432  0.00  0.00    +0.000 HD
ATOM     60  H   UNL     1       3.804   1.274  -3.009  0.00  0.00    +0.000 HD
ENDBRANCH  56  57
BRANCH  56  61
ATOM     61  C   UNL     1       4.103   1.461  -0.272  0.00  0.00    +0.000 C 
ATOM     62  H   UNL     1       3.730   1.432   0.763  0.00  0.00    +0.000 HD
ATOM     63  H   UNL     1       3.915   2.481  -0.628  0.00  0.00    +0.000 HD
BRANCH  61  64
ATOM     64  C   UNL     1       5.600   1.233  -0.124  0.00  0.00    +0.000 A 
ATOM     65  C   UNL     1       6.495   2.160  -0.685  0.00  0.00    +0.000 A 
ATOM     66  C   UNL     1       7.866   2.091  -0.421  0.00  0.00    +0.000 A 
ATOM     67  C   UNL     1       8.369   1.086   0.392  0.00  0.00    +0.000 A 
ATOM     68  C   UNL     1       7.500   0.122   0.923  0.00  0.00    +0.000 A 
ATOM     69  C   UNL     1       6.130   0.195   0.668  0.00  0.00    +0.000 A 
ATOM     70  H   UNL     1       6.118   2.965  -1.308  0.00  0.00    +0.000 HD
ATOM     71  H   UNL     1       8.532   2.840  -0.840  0.00  0.00    +0.000 HD
ATOM     72  H   UNL     1       9.429   1.060   0.633  0.00  0.00    +0.000 HD
ATOM     73  H   UNL     1       7.901  -0.661   1.562  0.00  0.00    +0.000 HD
ATOM     74  H   UNL     1       5.472  -0.552   1.106  0.00  0.00    +0.000 HD
ENDBRANCH  61  64
ENDBRANCH  56  61
ENDBRANCH   2  56
TORSDOF 7
