REMARK  Name = 
REMARK  8 active torsions:
REMARK  status: ('A' for Active; 'I' for Inactive)
REMARK    1  A    between atoms: N_1  and  C_2
REMARK    2  A    between atoms: C_11  and  C_12
REMARK    3  A    between atoms: C_16  and  O_17
REMARK    4  A    between atoms: O_17  and  C_18
REMARK    5  A    between atoms: C_18  and  C_19
REMARK    6  A    between atoms: C_19  and  N_20
REMARK    7  A    between atoms: C_19  and  C_21
REMARK    8  A    between atoms: C_21  and  C_22
REMARK                            x       y       z     vdW  Elec       q    Type
REMARK                         _______ _______ _______ _____ _____    ______ ____
ROOT
ATOM      1  O   UNL     1      -0.201   0.238   0.550  0.00  0.00    +0.000 OA
ENDROOT
BRANCH   1   6
ATOM      2  C   UNL     1       0.157  -2.667   2.712  0.00  0.00    +0.000 A 
ATOM      3  C   UNL     1      -0.704  -2.271   3.737  0.00  0.00    +0.000 A 
ATOM      4  N   UNL     1      -1.464  -1.145   3.733  0.00  0.00    +0.000 NA
ATOM      5  C   UNL     1      -1.321  -0.317   2.673  0.00  0.00    +0.000 A 
ATOM      6  C   UNL     1      -0.453  -0.560   1.625  0.00  0.00    +0.000 A 
ATOM      7  C   UNL     1       0.267  -1.757   1.647  0.00  0.00    +0.000 A 
ATOM      8  H   UNL     1      -0.819  -2.868   4.640  0.00  0.00    +0.000 HD
ATOM      9  H   UNL     1      -1.949   0.566   2.720  0.00  0.00    +0.000 HD
ATOM     10  H   UNL     1       0.925  -1.966   0.807  0.00  0.00    +0.000 HD
BRANCH   2  20
ATOM     11  C   UNL     1       0.410  -5.169   3.226  0.00  0.00    +0.000 A 
ATOM     12  C   UNL     1       1.225  -6.319   3.307  0.00  0.00    +0.000 A 
ATOM     13  C   UNL     1       2.506  -6.264   2.757  0.00  0.00    +0.000 A 
ATOM     14  N   UNL     1       3.489  -7.211   2.629  0.00  0.00    +0.000 N 
ATOM     15  N   UNL     1       4.598  -6.772   2.010  0.00  0.00    +0.000 NA
ATOM     16  C   UNL     1       4.319  -5.490   1.756  0.00  0.00    +0.000 A 
ATOM     17 CL   UNL     1       5.447  -4.500   0.968  0.00  0.00    +0.000 Cl
ATOM     18  C   UNL     1       3.032  -5.110   2.200  0.00  0.00    +0.000 A 
ATOM     19  C   UNL     1       2.251  -3.939   2.211  0.00  0.00    +0.000 A 
ATOM     20  C   UNL     1       0.930  -3.940   2.734  0.00  0.00    +0.000 A 
ATOM     21  H   UNL     1       0.853  -7.236   3.753  0.00  0.00    +0.000 HD
ATOM     22  H   UNL     1       3.459  -8.178   2.932  0.00  0.00    +0.000 HD
ATOM     23  H   UNL     1       2.692  -3.027   1.816  0.00  0.00    +0.000 HD
BRANCH  11  24
ATOM     24  N   UNL     1      -0.869  -5.265   3.818  0.00  0.00    +0.000 N 
ATOM     25  H   UNL     1      -1.213  -6.216   3.911  0.00  0.00    +0.000 HD
ATOM     26  H   UNL     1      -1.563  -4.670   3.372  0.00  0.00    +0.000 HD
ENDBRANCH  11  24
ENDBRANCH   2  20
ENDBRANCH   1   6
BRANCH   1  27
ATOM     27  C   UNL     1      -0.875   1.501   0.488  0.00  0.00    +0.000 C 
ATOM     28  H   UNL     1      -0.621   2.105   1.368  0.00  0.00    +0.000 HD
ATOM     29  H   UNL     1      -1.959   1.339   0.451  0.00  0.00    +0.000 HD
BRANCH  27  30
ATOM     30  C   UNL     1      -0.404   2.230  -0.794  0.00  0.00    +0.000 C 
ATOM     31  H   UNL     1       0.681   2.375  -0.734  0.00  0.00    +0.000 HD
BRANCH  30  32
ATOM     32  N   UNL     1      -0.652   1.370  -1.971  0.00  0.00    +0.000 NA
ATOM     33  H   UNL     1      -1.650   1.212  -2.081  0.00  0.00    +0.000 HD
ATOM     34  H   UNL     1      -0.245   0.454  -1.774  0.00  0.00    +0.000 HD
ENDBRANCH  30  32
BRANCH  30  35
ATOM     35  C   UNL     1      -1.103   3.599  -0.900  0.00  0.00    +0.000 C 
ATOM     36  H   UNL     1      -0.943   4.149   0.039  0.00  0.00    +0.000 HD
ATOM     37  H   UNL     1      -2.188   3.462  -0.981  0.00  0.00    +0.000 HD
BRANCH  35  38
ATOM     38  C   UNL     1      -0.628   4.478  -2.023  0.00  0.00    +0.000 A 
ATOM     39  C   UNL     1       0.436   5.359  -1.976  0.00  0.00    +0.000 A 
ATOM     40  N   UNL     1       0.486   6.037  -3.164  0.00  0.00    +0.000 N 
ATOM     41  C   UNL     1      -0.535   5.631  -3.991  0.00  0.00    +0.000 A 
ATOM     42  C   UNL     1      -0.897   6.079  -5.267  0.00  0.00    +0.000 A 
ATOM     43  C   UNL     1      -1.989   5.466  -5.886  0.00  0.00    +0.000 A 
ATOM     44  C   UNL     1      -2.678   4.430  -5.259  0.00  0.00    +0.000 A 
ATOM     45  C   UNL     1      -2.305   4.000  -3.981  0.00  0.00    +0.000 A 
ATOM     46  C   UNL     1      -1.223   4.620  -3.319  0.00  0.00    +0.000 A 
ATOM     47  H   UNL     1       1.149   5.574  -1.193  0.00  0.00    +0.000 HD
ATOM     48  H   UNL     1       1.159   6.754  -3.399  0.00  0.00    +0.000 HD
ATOM     49  H   UNL     1      -0.357   6.882  -5.762  0.00  0.00    +0.000 HD
ATOM     50  H   UNL     1      -2.302   5.799  -6.872  0.00  0.00    +0.000 HD
ATOM     51  H   UNL     1      -3.514   3.954  -5.764  0.00  0.00    +0.000 HD
ATOM     52  H   UNL     1      -2.848   3.191  -3.502  0.00  0.00    +0.000 HD
ENDBRANCH  35  38
ENDBRANCH  30  35
ENDBRANCH  27  30
ENDBRANCH   1  27
TORSDOF 8
