
 OpenBabel01112422403D

 41 44  0  0  0  0  0  0  0  0999 V2000
    5.2810    3.4012   -4.2090 O   0  0  0  0  0  0  0  0  0  0  0  0
    4.5475    2.6381   -3.5651 N   0  3  0  0  0  0  0  0  0  0  0  0
    3.6409    2.9858   -2.8191 O   0  5  0  0  0  0  0  0  0  0  0  0
    4.8053    1.1886   -3.6974 C   0  0  0  0  0  0  0  0  0  0  0  0
    5.8774    0.7445   -4.4782 C   0  0  0  0  0  0  0  0  0  0  0  0
    6.1585   -0.6187   -4.5453 C   0  0  0  0  0  0  0  0  0  0  0  0
    5.3306   -1.5516   -3.9059 C   0  0  0  0  0  0  0  0  0  0  0  0
    5.8718   -3.2415   -3.7906 S   0  0  0  0  0  0  0  0  0  0  0  0
    7.3004   -3.3052   -4.0489 O   0  0  0  0  0  0  0  0  0  0  0  0
    5.3268   -3.7299   -2.5328 O   0  0  0  0  0  0  0  0  0  0  0  0
    5.1552   -4.1992   -5.0121 N   0  0  0  0  0  0  0  0  0  0  0  0
    4.5863   -5.4385   -4.7506 C   0  0  0  0  0  0  0  0  0  0  0  0
    4.4048   -6.2439   -3.6140 C   0  0  0  0  0  0  0  0  0  0  0  0
    3.3695   -7.1692   -3.6987 C   0  0  0  0  0  0  0  0  0  0  0  0
    3.0741   -7.9914   -2.6471 O   0  0  0  0  0  0  0  0  0  0  0  0
    2.5772   -7.2680   -4.8356 C   0  0  0  0  0  0  0  0  0  0  0  0
    1.3915   -7.9389   -4.7795 O   0  0  0  0  0  0  0  0  0  0  0  0
    2.9934   -6.7109   -6.0352 C   0  0  0  0  0  0  0  0  0  0  0  0
    4.1040   -5.8575   -5.9874 C   0  0  0  0  0  0  0  0  0  0  0  0
    5.0457   -5.3312   -6.9037 C   0  0  0  0  0  0  0  0  0  0  0  0
    5.5893   -5.7375   -8.1406 C   0  0  0  0  0  0  0  0  0  0  0  0
    6.3538   -4.8341   -8.8816 C   0  0  0  0  0  0  0  0  0  0  0  0
    6.3688   -3.5077   -8.4879 C   0  0  0  0  0  0  0  0  0  0  0  0
    6.8507   -2.5266   -9.3132 O   0  0  0  0  0  0  0  0  0  0  0  0
    5.8607   -3.1090   -7.2461 C   0  0  0  0  0  0  0  0  0  0  0  0
    5.6805   -1.7772   -7.0052 O   0  0  0  0  0  0  0  0  0  0  0  0
    5.3997   -4.0887   -6.3705 C   0  0  0  0  0  0  0  0  0  0  0  0
    4.2564   -1.1033   -3.1235 C   0  0  0  0  0  0  0  0  0  0  0  0
    3.9938    0.2717   -3.0110 C   0  0  0  0  0  0  0  0  0  0  0  0
    6.5199    1.4440   -5.0081 H   0  0  0  0  0  0  0  0  0  0  0  0
    7.0316   -0.9534   -5.1040 H   0  0  0  0  0  0  0  0  0  0  0  0
    4.9745   -6.1064   -2.7026 H   0  0  0  0  0  0  0  0  0  0  0  0
    3.9237   -8.2139   -2.2230 H   0  0  0  0  0  0  0  0  0  0  0  0
    1.2572   -8.1100   -3.8250 H   0  0  0  0  0  0  0  0  0  0  0  0
    2.4411   -6.8748   -6.9544 H   0  0  0  0  0  0  0  0  0  0  0  0
    5.4712   -6.7648   -8.4781 H   0  0  0  0  0  0  0  0  0  0  0  0
    6.8456   -5.1679   -9.7893 H   0  0  0  0  0  0  0  0  0  0  0  0
    7.2204   -2.9534  -10.1063 H   0  0  0  0  0  0  0  0  0  0  0  0
    5.8210   -1.3514   -7.8778 H   0  0  0  0  0  0  0  0  0  0  0  0
    3.6537   -1.7992   -2.5417 H   0  0  0  0  0  0  0  0  0  0  0  0
    3.1814    0.6104   -2.3657 H   0  0  0  0  0  0  0  0  0  0  0  0
  1  2  2  0  0  0  0
  2  3  1  0  0  0  0
  2  4  1  0  0  0  0
  4  5  1  0  0  0  0
  4 29  2  0  0  0  0
  5  6  2  0  0  0  0
  5 30  1  0  0  0  0
  6  7  1  0  0  0  0
  6 31  1  0  0  0  0
  7  8  1  0  0  0  0
  7 28  2  0  0  0  0
  8  9  2  0  0  0  0
  8 10  2  0  0  0  0
  8 11  1  0  0  0  0
 11 12  1  0  0  0  0
 11 27  1  0  0  0  0
 12 13  1  0  0  0  0
 12 19  2  0  0  0  0
 13 14  2  0  0  0  0
 13 32  1  0  0  0  0
 14 15  1  0  0  0  0
 14 16  1  0  0  0  0
 15 33  1  0  0  0  0
 16 17  1  0  0  0  0
 16 18  2  0  0  0  0
 17 34  1  0  0  0  0
 18 19  1  0  0  0  0
 18 35  1  0  0  0  0
 19 20  1  0  0  0  0
 20 21  1  0  0  0  0
 20 27  2  0  0  0  0
 21 22  2  0  0  0  0
 21 36  1  0  0  0  0
 22 23  1  0  0  0  0
 22 37  1  0  0  0  0
 23 24  1  0  0  0  0
 23 25  2  0  0  0  0
 24 38  1  0  0  0  0
 25 26  1  0  0  0  0
 25 27  1  0  0  0  0
 26 39  1  0  0  0  0
 28 29  1  0  0  0  0
 28 40  1  0  0  0  0
 29 41  1  0  0  0  0
M  CHG  2   2   1   3  -1
M  END
$$$$
