REMARK  Name = 
REMARK  5 active torsions:
REMARK  status: ('A' for Active; 'I' for Inactive)
REMARK    1  A    between atoms: C_2  and  C_3
REMARK    2  A    between atoms: C_13  and  O_14
REMARK    3  A    between atoms: C_15  and  O_16
REMARK    4  A    between atoms: C_22  and  O_23
REMARK    5  A    between atoms: C_24  and  O_25
REMARK                            x       y       z     vdW  Elec       q    Type
REMARK                         _______ _______ _______ _____ _____    ______ ____
ROOT
ATOM      1  O   UNL     1      -2.618   1.112  -0.241  0.00  0.00    +0.000 OA
ATOM      2  C   UNL     1      -1.396   1.084  -0.103  0.00  0.00    +0.000 C 
ATOM      3  N   UNL     1      -0.728  -0.160  -0.273  0.00  0.00    +0.000 N 
ATOM      4  C   UNL     1       0.367  -0.596   0.499  0.00  0.00    +0.000 A 
ATOM      5  C   UNL     1       1.022  -0.012   1.610  0.00  0.00    +0.000 A 
ATOM      6  C   UNL     1       2.145  -0.647   2.130  0.00  0.00    +0.000 A 
ATOM      7  C   UNL     1       2.565  -1.867   1.633  0.00  0.00    +0.000 A 
ATOM      8  C   UNL     1       1.880  -2.493   0.597  0.00  0.00    +0.000 A 
ATOM      9  C   UNL     1       0.763  -1.847   0.016  0.00  0.00    +0.000 A 
ATOM     10  C   UNL     1      -0.146  -2.217  -1.017  0.00  0.00    +0.000 A 
ATOM     11  C   UNL     1      -0.257  -3.374  -1.827  0.00  0.00    +0.000 A 
ATOM     12  C   UNL     1      -1.254  -3.468  -2.802  0.00  0.00    +0.000 A 
ATOM     13  C   UNL     1      -2.116  -2.403  -2.987  0.00  0.00    +0.000 A 
ATOM     14  C   UNL     1      -2.018  -1.241  -2.215  0.00  0.00    +0.000 A 
ATOM     15  C   UNL     1      -1.051  -1.163  -1.193  0.00  0.00    +0.000 A 
ATOM     16  H   UNL     1       0.675   0.912   2.054  0.00  0.00    +0.000 HD
ATOM     17  H   UNL     1       2.209  -3.465   0.243  0.00  0.00    +0.000 HD
ATOM     18  H   UNL     1       0.440  -4.198  -1.691  0.00  0.00    +0.000 HD
ATOM     19  H   UNL     1      -1.322  -4.366  -3.406  0.00  0.00    +0.000 HD
ENDROOT
BRANCH   2  20
ATOM     20  C   UNL     1      -0.735   2.334   0.361  0.00  0.00    +0.000 A 
ATOM     21  C   UNL     1      -1.449   3.198   1.200  0.00  0.00    +0.000 A 
ATOM     22  C   UNL     1      -0.815   4.304   1.769  0.00  0.00    +0.000 A 
ATOM     23  C   UNL     1       0.532   4.544   1.497  0.00  0.00    +0.000 A 
ATOM     24 BR   UNL     1       1.412   5.991   2.334  0.00  0.00    +0.000 Br
ATOM     25  C   UNL     1       1.238   3.716   0.624  0.00  0.00    +0.000 A 
ATOM     26  C   UNL     1       0.596   2.627   0.029  0.00  0.00    +0.000 A 
ATOM     27  H   UNL     1      -2.494   2.996   1.433  0.00  0.00    +0.000 HD
ATOM     28  H   UNL     1      -1.374   4.956   2.435  0.00  0.00    +0.000 HD
ATOM     29  H   UNL     1       2.290   3.898   0.416  0.00  0.00    +0.000 HD
ATOM     30  H   UNL     1       1.161   1.986  -0.645  0.00  0.00    +0.000 HD
ENDBRANCH   2  20
BRANCH   6  31
ATOM     31  O   UNL     1       2.869  -0.085   3.148  0.00  0.00    +0.000 OA
ATOM     32  H   UNL     1       2.490   0.788   3.350  0.00  0.00    +0.000 HD
ENDBRANCH   6  31
BRANCH   7  33
ATOM     33  O   UNL     1       3.659  -2.478   2.177  0.00  0.00    +0.000 OA
ATOM     34  H   UNL     1       3.954  -1.869   2.885  0.00  0.00    +0.000 HD
ENDBRANCH   7  33
BRANCH  13  35
ATOM     35  O   UNL     1      -3.095  -2.435  -3.948  0.00  0.00    +0.000 OA
ATOM     36  H   UNL     1      -3.059  -3.298  -4.392  0.00  0.00    +0.000 HD
ENDBRANCH  13  35
BRANCH  14  37
ATOM     37  O   UNL     1      -2.860  -0.200  -2.519  0.00  0.00    +0.000 OA
ATOM     38  H   UNL     1      -3.480  -0.562  -3.182  0.00  0.00    +0.000 HD
ENDBRANCH  14  37
TORSDOF 5
