REMARK  Name = 
REMARK  2 active torsions:
REMARK  status: ('A' for Active; 'I' for Inactive)
REMARK    1  A    between atoms: S_2  and  C_4
REMARK    2  A    between atoms: S_2  and  N_14
REMARK                            x       y       z     vdW  Elec       q    Type
REMARK                         _______ _______ _______ _____ _____    ______ ____
ROOT
ATOM      1  O   UNL     1      -2.536   0.360   1.339  0.00  0.00    +0.000 OA
ATOM      2  S   UNL     1      -1.122   0.593   1.537  0.00  0.00    +0.000 S 
ATOM      3  O   UNL     1      -0.665   1.433   2.627  0.00  0.00    +0.000 OA
ENDROOT
BRANCH   2   4
ATOM      4  N   UNL     1      -0.462   1.260   0.080  0.00  0.00    +0.000 NA
ATOM      5  C   UNL     1       1.000   1.565   0.185  0.00  0.00    +0.000 C 
ATOM      6  C   UNL     1       1.717   1.397  -1.148  0.00  0.00    +0.000 C 
ATOM      7  C   UNL     1       1.328   2.344  -2.283  0.00  0.00    +0.000 C 
ATOM      8  N   UNL     1       0.449   3.456  -1.931  0.00  0.00    +0.000 NA
ATOM      9  C   UNL     1      -0.932   2.990  -1.728  0.00  0.00    +0.000 C 
ATOM     10  C   UNL     1      -1.240   2.489  -0.310  0.00  0.00    +0.000 C 
ATOM     11  H   UNL     1       1.476   0.863   0.878  0.00  0.00    +0.000 HD
ATOM     12  H   UNL     1       1.163   2.566   0.602  0.00  0.00    +0.000 HD
ATOM     13  H   UNL     1       1.599   0.364  -1.498  0.00  0.00    +0.000 HD
ATOM     14  H   UNL     1       2.790   1.531  -0.956  0.00  0.00    +0.000 HD
ATOM     15  H   UNL     1       0.905   1.771  -3.118  0.00  0.00    +0.000 HD
ATOM     16  H   UNL     1       2.254   2.776  -2.685  0.00  0.00    +0.000 HD
ATOM     17  H   UNL     1       0.446   4.111  -2.714  0.00  0.00    +0.000 HD
ATOM     18  H   UNL     1      -1.210   2.235  -2.474  0.00  0.00    +0.000 HD
ATOM     19  H   UNL     1      -1.589   3.849  -1.911  0.00  0.00    +0.000 HD
ATOM     20  H   UNL     1      -2.311   2.255  -0.292  0.00  0.00    +0.000 HD
ATOM     21  H   UNL     1      -1.063   3.289   0.419  0.00  0.00    +0.000 HD
ENDBRANCH   2   4
BRANCH   2  22
ATOM     22  C   UNL     1      -0.332  -1.000   1.683  0.00  0.00    +0.000 A 
ATOM     23  C   UNL     1       0.490  -1.208   2.804  0.00  0.00    +0.000 A 
ATOM     24  C   UNL     1       1.124  -2.431   2.985  0.00  0.00    +0.000 A 
ATOM     25  C   UNL     1       0.935  -3.450   2.057  0.00  0.00    +0.000 A 
ATOM     26  C   UNL     1       0.104  -3.261   0.938  0.00  0.00    +0.000 A 
ATOM     27  C   UNL     1      -0.098  -4.287   0.009  0.00  0.00    +0.000 A 
ATOM     28  N   UNL     1      -0.885  -4.196  -1.084  0.00  0.00    +0.000 NA
ATOM     29  C   UNL     1      -1.516  -3.023  -1.267  0.00  0.00    +0.000 A 
ATOM     30  C   UNL     1      -1.385  -1.936  -0.416  0.00  0.00    +0.000 A 
ATOM     31  C   UNL     1      -0.557  -2.029   0.727  0.00  0.00    +0.000 A 
ATOM     32  H   UNL     1       0.638  -0.422   3.543  0.00  0.00    +0.000 HD
ATOM     33  H   UNL     1       1.759  -2.593   3.854  0.00  0.00    +0.000 HD
ATOM     34  H   UNL     1       1.436  -4.404   2.216  0.00  0.00    +0.000 HD
ATOM     35  H   UNL     1       0.388  -5.253   0.128  0.00  0.00    +0.000 HD
ATOM     36  H   UNL     1      -2.156  -2.971  -2.143  0.00  0.00    +0.000 HD
ATOM     37  H   UNL     1      -1.942  -1.036  -0.655  0.00  0.00    +0.000 HD
ENDBRANCH   2  22
TORSDOF 2
