REMARK  Name = 
REMARK  7 active torsions:
REMARK  status: ('A' for Active; 'I' for Inactive)
REMARK    1  A    between atoms: C_1  and  N_2
REMARK    2  A    between atoms: C_12  and  C_13
REMARK    3  A    between atoms: C_13  and  C_14
REMARK    4  A    between atoms: C_14  and  N_15
REMARK    5  A    between atoms: N_15  and  C_16
REMARK    6  A    between atoms: C_16  and  C_17
REMARK    7  A    between atoms: C_17  and  O_18
REMARK                            x       y       z     vdW  Elec       q    Type
REMARK                         _______ _______ _______ _____ _____    ______ ____
ROOT
ATOM      1  N   UNL     1      -4.745   2.009  -1.986  0.00  0.00    +0.000 N 
ATOM      2  C   UNL     1      -5.205   1.387  -3.168  0.00  0.00    +0.000 A 
ATOM      3  C   UNL     1      -5.469   0.140  -2.631  0.00  0.00    +0.000 A 
ATOM      4  C   UNL     1      -4.271  -0.119  -1.916  0.00  0.00    +0.000 A 
ATOM      5  C   UNL     1      -3.595  -1.308  -1.604  0.00  0.00    +0.000 A 
ATOM      6  C   UNL     1      -2.335  -1.193  -1.042  0.00  0.00    +0.000 A 
ATOM      7  C   UNL     1      -1.862   0.055  -0.628  0.00  0.00    +0.000 A 
ATOM      8  C   UNL     1      -0.550   0.171  -0.163  0.00  0.00    +0.000 A 
ATOM      9  N   UNL     1       0.354  -0.763   0.215  0.00  0.00    +0.000 N 
ATOM     10  C   UNL     1       1.278  -0.225   1.095  0.00  0.00    +0.000 A 
ATOM     11  C   UNL     1       2.142  -0.908   1.964  0.00  0.00    +0.000 A 
ATOM     12  C   UNL     1       2.883  -0.106   2.845  0.00  0.00    +0.000 A 
ATOM     13  C   UNL     1       2.815   1.285   2.797  0.00  0.00    +0.000 A 
ATOM     14  C   UNL     1       1.983   1.934   1.876  0.00  0.00    +0.000 A 
ATOM     15  C   UNL     1       1.165   1.156   1.029  0.00  0.00    +0.000 A 
ATOM     16  C   UNL     1       0.066   1.356   0.164  0.00  0.00    +0.000 A 
ATOM     17  C   UNL     1      -0.691   2.554   0.204  0.00  0.00    +0.000 A 
ATOM     18  C   UNL     1      -2.099   2.307   0.089  0.00  0.00    +0.000 A 
ATOM     19  C   UNL     1      -2.672   1.225  -0.609  0.00  0.00    +0.000 A 
ATOM     20  C   UNL     1      -3.836   1.133  -1.409  0.00  0.00    +0.000 A 
ATOM     21  C   UNL     1      -2.581   2.925   1.319  0.00  0.00    +0.000 C 
ATOM     22  O   UNL     1      -3.427   2.576   2.141  0.00  0.00    +0.000 OA
ATOM     23  N   UNL     1      -1.629   3.883   1.610  0.00  0.00    +0.000 N 
ATOM     24  C   UNL     1      -0.450   3.755   0.918  0.00  0.00    +0.000 C 
ATOM     25  O   UNL     1       0.485   4.524   0.997  0.00  0.00    +0.000 OA
ATOM     26  H   UNL     1      -4.549   1.589  -4.014  0.00  0.00    +0.000 HD
ATOM     27  H   UNL     1      -6.446  -0.248  -2.360  0.00  0.00    +0.000 HD
ATOM     28  H   UNL     1      -3.960  -2.260  -1.969  0.00  0.00    +0.000 HD
ATOM     29  H   UNL     1      -1.716  -2.084  -0.999  0.00  0.00    +0.000 HD
ATOM     30  H   UNL     1       0.177  -1.751   0.143  0.00  0.00    +0.000 HD
ATOM     31  H   UNL     1       3.527  -0.572   3.587  0.00  0.00    +0.000 HD
ATOM     32  H   UNL     1       3.403   1.877   3.495  0.00  0.00    +0.000 HD
ATOM     33  H   UNL     1       1.962   3.019   1.887  0.00  0.00    +0.000 HD
ATOM     34  H   UNL     1      -1.566   4.298   2.525  0.00  0.00    +0.000 HD
ENDROOT
BRANCH   1  35
ATOM     35  C   UNL     1      -5.500   3.121  -1.459  0.00  0.00    +0.000 C 
ATOM     36  H   UNL     1      -4.961   4.046  -1.659  0.00  0.00    +0.000 HD
ATOM     37  H   UNL     1      -5.700   2.957  -0.402  0.00  0.00    +0.000 HD
ATOM     38  H   UNL     1      -6.463   3.154  -1.992  0.00  0.00    +0.000 HD
ENDBRANCH   1  35
BRANCH  11  39
ATOM     39  C   UNL     1       2.220  -2.415   2.022  0.00  0.00    +0.000 C 
ATOM     40  H   UNL     1       1.234  -2.794   2.325  0.00  0.00    +0.000 HD
ATOM     41  H   UNL     1       2.923  -2.728   2.802  0.00  0.00    +0.000 HD
BRANCH  39  42
ATOM     42  C   UNL     1       2.615  -3.075   0.687  0.00  0.00    +0.000 C 
ATOM     43  H   UNL     1       1.867  -2.863  -0.081  0.00  0.00    +0.000 HD
ATOM     44  H   UNL     1       2.619  -4.163   0.823  0.00  0.00    +0.000 HD
BRANCH  42  45
ATOM     45  N   UNL     1       3.928  -2.626   0.220  0.00  0.00    +0.000 NA
ATOM     46  H   UNL     1       4.634  -2.940   0.883  0.00  0.00    +0.000 HD
BRANCH  45  47
ATOM     47  C   UNL     1       4.222  -3.171  -1.112  0.00  0.00    +0.000 C 
ATOM     48  H   UNL     1       3.452  -2.863  -1.829  0.00  0.00    +0.000 HD
ATOM     49  H   UNL     1       4.230  -4.266  -1.056  0.00  0.00    +0.000 HD
BRANCH  47  50
ATOM     50  C   UNL     1       5.583  -2.684  -1.616  0.00  0.00    +0.000 C 
ATOM     51  H   UNL     1       5.605  -1.595  -1.729  0.00  0.00    +0.000 HD
ATOM     52  H   UNL     1       5.800  -3.132  -2.591  0.00  0.00    +0.000 HD
BRANCH  50  53
ATOM     53  O   UNL     1       6.615  -3.072  -0.712  0.00  0.00    +0.000 OA
ATOM     54  H   UNL     1       6.496  -2.509   0.073  0.00  0.00    +0.000 HD
ENDBRANCH  50  53
ENDBRANCH  47  50
ENDBRANCH  45  47
ENDBRANCH  42  45
ENDBRANCH  39  42
ENDBRANCH  11  39
TORSDOF 7
