MODEL 1
REMARK VINA RESULT:    -7.563      0.000      0.000
REMARK INTER + INTRA:         -10.004
REMARK INTER:                  -9.552
REMARK INTRA:                  -0.452
REMARK UNBOUND:                -0.452
REMARK  Name = 
REMARK  7 active torsions:
REMARK  status: ('A' for Active; 'I' for Inactive)
REMARK    1  A    between atoms: C_1  and  S_2
REMARK    2  A    between atoms: S_2  and  C_5
REMARK    3  A    between atoms: C_8  and  C_9
REMARK    4  A    between atoms: C_14  and  O_15
REMARK    5  A    between atoms: C_16  and  O_17
REMARK    6  A    between atoms: C_24  and  O_25
REMARK    7  A    between atoms: C_26  and  O_27
REMARK                            x       y       z     vdW  Elec       q    Type
REMARK                         _______ _______ _______ _____ _____    ______ ____
ROOT
ATOM      1  C   UNL     1      -9.396  -4.471  18.423  0.00  0.00    +0.000 C 
ATOM      2  O   UNL     1      -8.783  -4.261  19.478  0.00  0.00    +0.000 OA
ATOM      3  N   UNL     1      -9.985  -3.344  17.801  0.00  0.00    +0.000 N 
ATOM      4  C   UNL     1     -10.130  -2.107  18.443  0.00  0.00    +0.000 A 
ATOM      5  C   UNL     1     -10.020  -1.702  19.784  0.00  0.00    +0.000 A 
ATOM      6  C   UNL     1      -9.723  -0.360  19.982  0.00  0.00    +0.000 A 
ATOM      7  C   UNL     1      -9.503   0.498  18.912  0.00  0.00    +0.000 A 
ATOM      8  C   UNL     1      -9.903   0.145  17.631  0.00  0.00    +0.000 A 
ATOM      9  C   UNL     1     -10.333  -1.178  17.434  0.00  0.00    +0.000 A 
ATOM     10  C   UNL     1     -11.038  -1.902  16.448  0.00  0.00    +0.000 A 
ATOM     11  C   UNL     1     -11.999  -1.608  15.462  0.00  0.00    +0.000 A 
ATOM     12 BR   UNL     1     -13.101  -0.076  15.632  0.00  0.00    +0.000 Br
ATOM     13  C   UNL     1     -12.240  -2.517  14.432  0.00  0.00    +0.000 A 
ATOM     14  C   UNL     1     -11.410  -3.620  14.323  0.00  0.00    +0.000 A 
ATOM     15  C   UNL     1     -10.502  -3.959  15.335  0.00  0.00    +0.000 A 
ATOM     16  C   UNL     1     -10.485  -3.189  16.503  0.00  0.00    +0.000 A 
ATOM     17  H   UNL     1     -10.065  -2.410  20.604  0.00  0.00    +0.000 HD
ATOM     18  H   UNL     1      -9.816   0.842  16.805  0.00  0.00    +0.000 HD
ATOM     19  H   UNL     1     -13.024  -2.321  13.710  0.00  0.00    +0.000 HD
ENDROOT
BRANCH   1  23
ATOM     20  C   UNL     1      -9.720  -8.422  16.893  0.00  0.00    +0.000 A 
ATOM     21  C   UNL     1      -8.457  -7.829  16.962  0.00  0.00    +0.000 A 
ATOM     22  C   UNL     1      -8.326  -6.547  17.503  0.00  0.00    +0.000 A 
ATOM     23  C   UNL     1      -9.450  -5.882  18.004  0.00  0.00    +0.000 A 
ATOM     24  C   UNL     1     -10.710  -6.499  17.946  0.00  0.00    +0.000 A 
ATOM     25  C   UNL     1     -10.851  -7.766  17.383  0.00  0.00    +0.000 A 
ATOM     26  H   UNL     1      -7.578  -8.331  16.562  0.00  0.00    +0.000 HD
ATOM     27  H   UNL     1      -7.348  -6.078  17.502  0.00  0.00    +0.000 HD
ATOM     28  H   UNL     1     -11.595  -5.964  18.293  0.00  0.00    +0.000 HD
ATOM     29  H   UNL     1     -11.842  -8.207  17.292  0.00  0.00    +0.000 HD
BRANCH  20  30
ATOM     30  S   UNL     1      -9.907  -9.964  16.031  0.00  0.00    +0.000 S 
ATOM     31  O   UNL     1     -10.993  -9.808  15.094  0.00  0.00    +0.000 OA
ATOM     32  O   UNL     1      -9.936 -11.018  17.041  0.00  0.00    +0.000 OA
BRANCH  30  33
ATOM     33  C   UNL     1      -8.402 -10.127  15.117  0.00  0.00    +0.000 C 
ATOM     34  H   UNL     1      -7.578 -10.157  15.833  0.00  0.00    +0.000 HD
ATOM     35  H   UNL     1      -8.286  -9.266  14.455  0.00  0.00    +0.000 HD
ATOM     36  H   UNL     1      -8.434 -11.055  14.546  0.00  0.00    +0.000 HD
ENDBRANCH  30  33
ENDBRANCH  20  30
ENDBRANCH   1  23
BRANCH   6  37
ATOM     37  O   UNL     1      -9.605   0.154  21.243  0.00  0.00    +0.000 OA
ATOM     38  H   UNL     1      -9.912  -0.553  21.843  0.00  0.00    +0.000 HD
ENDBRANCH   6  37
BRANCH   7  39
ATOM     39  O   UNL     1      -8.905   1.705  19.124  0.00  0.00    +0.000 OA
ATOM     40  H   UNL     1      -9.273   2.281  18.422  0.00  0.00    +0.000 HD
ENDBRANCH   7  39
BRANCH  14  41
ATOM     41  O   UNL     1     -11.453  -4.432  13.221  0.00  0.00    +0.000 OA
ATOM     42  H   UNL     1     -11.530  -3.869  12.429  0.00  0.00    +0.000 HD
ENDBRANCH  14  41
BRANCH  15  43
ATOM     43  O   UNL     1      -9.621  -4.986  15.125  0.00  0.00    +0.000 OA
ATOM     44  H   UNL     1      -9.285  -5.208  16.018  0.00  0.00    +0.000 HD
ENDBRANCH  15  43
TORSDOF 7
ENDMDL
MODEL 2
REMARK VINA RESULT:    -7.547      1.316      1.737
REMARK INTER + INTRA:          -9.984
REMARK INTER:                  -9.419
REMARK INTRA:                  -0.565
REMARK UNBOUND:                -0.452
REMARK  Name = 
REMARK  7 active torsions:
REMARK  status: ('A' for Active; 'I' for Inactive)
REMARK    1  A    between atoms: C_1  and  S_2
REMARK    2  A    between atoms: S_2  and  C_5
REMARK    3  A    between atoms: C_8  and  C_9
REMARK    4  A    between atoms: C_14  and  O_15
REMARK    5  A    between atoms: C_16  and  O_17
REMARK    6  A    between atoms: C_24  and  O_25
REMARK    7  A    between atoms: C_26  and  O_27
REMARK                            x       y       z     vdW  Elec       q    Type
REMARK                         _______ _______ _______ _____ _____    ______ ____
ROOT
ATOM      1  C   UNL     1     -10.090  -4.483  17.594  0.00  0.00    +0.000 C 
ATOM      2  O   UNL     1      -9.786  -4.195  18.759  0.00  0.00    +0.000 OA
ATOM      3  N   UNL     1     -10.600  -3.430  16.796  0.00  0.00    +0.000 N 
ATOM      4  C   UNL     1     -11.015  -2.202  17.328  0.00  0.00    +0.000 A 
ATOM      5  C   UNL     1     -11.286  -1.764  18.636  0.00  0.00    +0.000 A 
ATOM      6  C   UNL     1     -11.170  -0.395  18.845  0.00  0.00    +0.000 A 
ATOM      7  C   UNL     1     -10.764   0.459  17.828  0.00  0.00    +0.000 A 
ATOM      8  C   UNL     1     -10.792   0.046  16.505  0.00  0.00    +0.000 A 
ATOM      9  C   UNL     1     -11.037  -1.316  16.262  0.00  0.00    +0.000 A 
ATOM     10  C   UNL     1     -11.400  -2.123  15.162  0.00  0.00    +0.000 A 
ATOM     11  C   UNL     1     -12.101  -1.942  13.954  0.00  0.00    +0.000 A 
ATOM     12 BR   UNL     1     -13.343  -0.523  13.777  0.00  0.00    +0.000 Br
ATOM     13  C   UNL     1     -11.989  -2.889  12.937  0.00  0.00    +0.000 A 
ATOM     14  C   UNL     1     -11.063  -3.908  13.087  0.00  0.00    +0.000 A 
ATOM     15  C   UNL     1     -10.416  -4.138  14.308  0.00  0.00    +0.000 A 
ATOM     16  C   UNL     1     -10.766  -3.349  15.409  0.00  0.00    +0.000 A 
ATOM     17  H   UNL     1     -11.474  -2.458  19.447  0.00  0.00    +0.000 HD
ATOM     18  H   UNL     1     -10.561   0.733  15.699  0.00  0.00    +0.000 HD
ATOM     19  H   UNL     1     -12.579  -2.784  12.033  0.00  0.00    +0.000 HD
ENDROOT
BRANCH   1  23
ATOM     20  C   UNL     1      -9.500  -8.638  16.929  0.00  0.00    +0.000 A 
ATOM     21  C   UNL     1     -10.790  -8.115  16.812  0.00  0.00    +0.000 A 
ATOM     22  C   UNL     1     -10.996  -6.744  16.984  0.00  0.00    +0.000 A 
ATOM     23  C   UNL     1      -9.908  -5.900  17.235  0.00  0.00    +0.000 A 
ATOM     24  C   UNL     1      -8.614  -6.438  17.329  0.00  0.00    +0.000 A 
ATOM     25  C   UNL     1      -8.406  -7.808  17.186  0.00  0.00    +0.000 A 
ATOM     26  H   UNL     1     -11.646  -8.763  16.632  0.00  0.00    +0.000 HD
ATOM     27  H   UNL     1     -12.009  -6.358  16.943  0.00  0.00    +0.000 HD
ATOM     28  H   UNL     1      -7.771  -5.790  17.572  0.00  0.00    +0.000 HD
ATOM     29  H   UNL     1      -7.407  -8.218  17.320  0.00  0.00    +0.000 HD
BRANCH  20  30
ATOM     30  S   UNL     1      -9.274 -10.400  16.902  0.00  0.00    +0.000 S 
ATOM     31  O   UNL     1      -8.328 -10.700  15.856  0.00  0.00    +0.000 OA
ATOM     32  O   UNL     1     -10.604 -11.002  16.903  0.00  0.00    +0.000 OA
BRANCH  30  33
ATOM     33  C   UNL     1      -8.514 -10.756  18.459  0.00  0.00    +0.000 C 
ATOM     34  H   UNL     1      -7.623 -10.130  18.546  0.00  0.00    +0.000 HD
ATOM     35  H   UNL     1      -8.231 -11.810  18.490  0.00  0.00    +0.000 HD
ATOM     36  H   UNL     1      -9.217 -10.518  19.258  0.00  0.00    +0.000 HD
ENDBRANCH  30  33
ENDBRANCH  20  30
ENDBRANCH   1  23
BRANCH   6  37
ATOM     37  O   UNL     1     -11.424   0.150  20.072  0.00  0.00    +0.000 OA
ATOM     38  H   UNL     1     -12.204   0.724  19.947  0.00  0.00    +0.000 HD
ENDBRANCH   6  37
BRANCH   7  39
ATOM     39  O   UNL     1     -10.350   1.723  18.133  0.00  0.00    +0.000 OA
ATOM     40  H   UNL     1     -10.399   2.202  17.280  0.00  0.00    +0.000 HD
ENDBRANCH   7  39
BRANCH  14  41
ATOM     41  O   UNL     1     -10.752  -4.740  12.045  0.00  0.00    +0.000 OA
ATOM     42  H   UNL     1     -11.529  -4.804  11.461  0.00  0.00    +0.000 HD
ENDBRANCH  14  41
BRANCH  15  43
ATOM     43  O   UNL     1      -9.422  -5.077  14.370  0.00  0.00    +0.000 OA
ATOM     44  H   UNL     1      -8.677  -4.680  13.872  0.00  0.00    +0.000 HD
ENDBRANCH  15  43
TORSDOF 7
ENDMDL
MODEL 3
REMARK VINA RESULT:    -7.466      3.703      6.080
REMARK INTER + INTRA:          -9.882
REMARK INTER:                  -9.476
REMARK INTRA:                  -0.406
REMARK UNBOUND:                -0.452
REMARK  Name = 
REMARK  7 active torsions:
REMARK  status: ('A' for Active; 'I' for Inactive)
REMARK    1  A    between atoms: C_1  and  S_2
REMARK    2  A    between atoms: S_2  and  C_5
REMARK    3  A    between atoms: C_8  and  C_9
REMARK    4  A    between atoms: C_14  and  O_15
REMARK    5  A    between atoms: C_16  and  O_17
REMARK    6  A    between atoms: C_24  and  O_25
REMARK    7  A    between atoms: C_26  and  O_27
REMARK                            x       y       z     vdW  Elec       q    Type
REMARK                         _______ _______ _______ _____ _____    ______ ____
ROOT
ATOM      1  C   UNL     1     -10.488  -2.121  19.918  0.00  0.00    +0.000 C 
ATOM      2  O   UNL     1     -11.217  -1.395  20.605  0.00  0.00    +0.000 OA
ATOM      3  N   UNL     1      -9.366  -2.687  20.570  0.00  0.00    +0.000 N 
ATOM      4  C   UNL     1      -8.917  -2.257  21.826  0.00  0.00    +0.000 A 
ATOM      5  C   UNL     1      -9.198  -1.127  22.611  0.00  0.00    +0.000 A 
ATOM      6  C   UNL     1      -8.985  -1.279  23.976  0.00  0.00    +0.000 A 
ATOM      7  C   UNL     1      -8.568  -2.490  24.513  0.00  0.00    +0.000 A 
ATOM      8  C   UNL     1      -8.026  -3.473  23.699  0.00  0.00    +0.000 A 
ATOM      9  C   UNL     1      -8.114  -3.280  22.310  0.00  0.00    +0.000 A 
ATOM     10  C   UNL     1      -7.523  -3.822  21.149  0.00  0.00    +0.000 A 
ATOM     11  C   UNL     1      -6.307  -4.453  20.826  0.00  0.00    +0.000 A 
ATOM     12 BR   UNL     1      -4.776  -4.181  21.908  0.00  0.00    +0.000 Br
ATOM     13  C   UNL     1      -6.188  -5.164  19.632  0.00  0.00    +0.000 A 
ATOM     14  C   UNL     1      -7.326  -5.360  18.868  0.00  0.00    +0.000 A 
ATOM     15  C   UNL     1      -8.520  -4.680  19.141  0.00  0.00    +0.000 A 
ATOM     16  C   UNL     1      -8.531  -3.739  20.178  0.00  0.00    +0.000 A 
ATOM     17  H   UNL     1      -9.646  -0.233  22.193  0.00  0.00    +0.000 HD
ATOM     18  H   UNL     1      -7.618  -4.386  24.119  0.00  0.00    +0.000 HD
ATOM     19  H   UNL     1      -5.233  -5.594  19.351  0.00  0.00    +0.000 HD
ENDROOT
BRANCH   1  23
ATOM     20  C   UNL     1     -11.339  -2.714  15.797  0.00  0.00    +0.000 A 
ATOM     21  C   UNL     1     -12.186  -3.289  16.748  0.00  0.00    +0.000 A 
ATOM     22  C   UNL     1     -11.947  -3.068  18.106  0.00  0.00    +0.000 A 
ATOM     23  C   UNL     1     -10.887  -2.246  18.505  0.00  0.00    +0.000 A 
ATOM     24  C   UNL     1     -10.056  -1.659  17.537  0.00  0.00    +0.000 A 
ATOM     25  C   UNL     1     -10.274  -1.897  16.181  0.00  0.00    +0.000 A 
ATOM     26  H   UNL     1     -13.004  -3.942  16.450  0.00  0.00    +0.000 HD
ATOM     27  H   UNL     1     -12.580  -3.563  18.835  0.00  0.00    +0.000 HD
ATOM     28  H   UNL     1      -9.201  -1.056  17.845  0.00  0.00    +0.000 HD
ATOM     29  H   UNL     1      -9.587  -1.483  15.445  0.00  0.00    +0.000 HD
BRANCH  20  30
ATOM     30  S   UNL     1     -11.531  -3.155  14.087  0.00  0.00    +0.000 S 
ATOM     31  O   UNL     1     -12.334  -2.132  13.463  0.00  0.00    +0.000 OA
ATOM     32  O   UNL     1     -11.943  -4.555  14.050  0.00  0.00    +0.000 OA
BRANCH  30  33
ATOM     33  C   UNL     1      -9.892  -3.052  13.433  0.00  0.00    +0.000 C 
ATOM     34  H   UNL     1      -9.245  -2.649  14.216  0.00  0.00    +0.000 HD
ATOM     35  H   UNL     1      -9.888  -2.384  12.569  0.00  0.00    +0.000 HD
ATOM     36  H   UNL     1      -9.559  -4.052  13.153  0.00  0.00    +0.000 HD
ENDBRANCH  30  33
ENDBRANCH  20  30
ENDBRANCH   1  23
BRANCH   6  37
ATOM     37  O   UNL     1      -9.210  -0.243  24.840  0.00  0.00    +0.000 OA
ATOM     38  H   UNL     1      -8.344   0.192  24.957  0.00  0.00    +0.000 HD
ENDBRANCH   6  37
BRANCH   7  39
ATOM     39  O   UNL     1      -8.677  -2.708  25.855  0.00  0.00    +0.000 OA
ATOM     40  H   UNL     1      -7.784  -3.007  26.122  0.00  0.00    +0.000 HD
ENDBRANCH   7  39
BRANCH  14  41
ATOM     41  O   UNL     1      -7.324  -6.222  17.804  0.00  0.00    +0.000 OA
ATOM     42  H   UNL     1      -7.395  -5.698  16.985  0.00  0.00    +0.000 HD
ENDBRANCH  14  41
BRANCH  15  43
ATOM     43  O   UNL     1      -9.647  -4.999  18.433  0.00  0.00    +0.000 OA
ATOM     44  H   UNL     1      -9.707  -5.975  18.495  0.00  0.00    +0.000 HD
ENDBRANCH  15  43
TORSDOF 7
ENDMDL
MODEL 4
REMARK VINA RESULT:    -7.163      3.882      6.434
REMARK INTER + INTRA:          -9.498
REMARK INTER:                  -8.941
REMARK INTRA:                  -0.557
REMARK UNBOUND:                -0.452
REMARK  Name = 
REMARK  7 active torsions:
REMARK  status: ('A' for Active; 'I' for Inactive)
REMARK    1  A    between atoms: C_1  and  S_2
REMARK    2  A    between atoms: S_2  and  C_5
REMARK    3  A    between atoms: C_8  and  C_9
REMARK    4  A    between atoms: C_14  and  O_15
REMARK    5  A    between atoms: C_16  and  O_17
REMARK    6  A    between atoms: C_24  and  O_25
REMARK    7  A    between atoms: C_26  and  O_27
REMARK                            x       y       z     vdW  Elec       q    Type
REMARK                         _______ _______ _______ _____ _____    ______ ____
ROOT
ATOM      1  C   UNL     1     -10.865  -0.559  19.812  0.00  0.00    +0.000 C 
ATOM      2  O   UNL     1     -11.282   0.158  18.893  0.00  0.00    +0.000 OA
ATOM      3  N   UNL     1     -10.603   0.084  21.045  0.00  0.00    +0.000 N 
ATOM      4  C   UNL     1     -10.536   1.478  21.179  0.00  0.00    +0.000 A 
ATOM      5  C   UNL     1     -10.443   2.529  20.251  0.00  0.00    +0.000 A 
ATOM      6  C   UNL     1     -10.910   3.761  20.693  0.00  0.00    +0.000 A 
ATOM      7  C   UNL     1     -11.474   3.911  21.953  0.00  0.00    +0.000 A 
ATOM      8  C   UNL     1     -11.285   2.946  22.931  0.00  0.00    +0.000 A 
ATOM      9  C   UNL     1     -10.692   1.735  22.533  0.00  0.00    +0.000 A 
ATOM     10  C   UNL     1     -10.088   0.623  23.158  0.00  0.00    +0.000 A 
ATOM     11  C   UNL     1      -9.404   0.380  24.364  0.00  0.00    +0.000 A 
ATOM     12 BR   UNL     1      -8.554   1.805  25.280  0.00  0.00    +0.000 Br
ATOM     13  C   UNL     1      -9.227  -0.928  24.813  0.00  0.00    +0.000 A 
ATOM     14  C   UNL     1      -9.870  -1.948  24.133  0.00  0.00    +0.000 A 
ATOM     15  C   UNL     1     -10.492  -1.728  22.896  0.00  0.00    +0.000 A 
ATOM     16  C   UNL     1     -10.402  -0.456  22.320  0.00  0.00    +0.000 A 
ATOM     17  H   UNL     1     -10.121   2.366  19.228  0.00  0.00    +0.000 HD
ATOM     18  H   UNL     1     -11.646   3.094  23.942  0.00  0.00    +0.000 HD
ATOM     19  H   UNL     1      -8.643  -1.119  25.706  0.00  0.00    +0.000 HD
ENDROOT
BRANCH   1  23
ATOM     20  C   UNL     1     -10.320  -4.537  18.419  0.00  0.00    +0.000 A 
ATOM     21  C   UNL     1      -9.229  -3.862  18.971  0.00  0.00    +0.000 A 
ATOM     22  C   UNL     1      -9.400  -2.570  19.474  0.00  0.00    +0.000 A 
ATOM     23  C   UNL     1     -10.665  -1.975  19.456  0.00  0.00    +0.000 A 
ATOM     24  C   UNL     1     -11.758  -2.673  18.915  0.00  0.00    +0.000 A 
ATOM     25  C   UNL     1     -11.588  -3.951  18.387  0.00  0.00    +0.000 A 
ATOM     26  H   UNL     1      -8.236  -4.310  18.978  0.00  0.00    +0.000 HD
ATOM     27  H   UNL     1      -8.533  -2.038  19.852  0.00  0.00    +0.000 HD
ATOM     28  H   UNL     1     -12.736  -2.194  18.856  0.00  0.00    +0.000 HD
ATOM     29  H   UNL     1     -12.431  -4.457  17.919  0.00  0.00    +0.000 HD
BRANCH  20  30
ATOM     30  S   UNL     1     -10.056  -6.095  17.608  0.00  0.00    +0.000 S 
ATOM     31  O   UNL     1     -10.316  -5.903  16.203  0.00  0.00    +0.000 OA
ATOM     32  O   UNL     1     -10.785  -7.104  18.372  0.00  0.00    +0.000 OA
BRANCH  30  33
ATOM     33  C   UNL     1      -8.326  -6.397  17.819  0.00  0.00    +0.000 C 
ATOM     34  H   UNL     1      -8.215  -7.342  18.356  0.00  0.00    +0.000 HD
ATOM     35  H   UNL     1      -7.886  -5.586  18.402  0.00  0.00    +0.000 HD
ATOM     36  H   UNL     1      -7.858  -6.469  16.837  0.00  0.00    +0.000 HD
ENDBRANCH  30  33
ENDBRANCH  20  30
ENDBRANCH   1  23
BRANCH   6  37
ATOM     37  O   UNL     1     -10.857   4.862  19.884  0.00  0.00    +0.000 OA
ATOM     38  H   UNL     1     -11.720   5.306  19.992  0.00  0.00    +0.000 HD
ENDBRANCH   6  37
BRANCH   7  39
ATOM     39  O   UNL     1     -12.207   5.025  22.237  0.00  0.00    +0.000 OA
ATOM     40  H   UNL     1     -12.993   4.949  21.657  0.00  0.00    +0.000 HD
ENDBRANCH   7  39
BRANCH  14  41
ATOM     41  O   UNL     1      -9.915  -3.219  24.640  0.00  0.00    +0.000 OA
ATOM     42  H   UNL     1      -9.874  -3.848  23.896  0.00  0.00    +0.000 HD
ENDBRANCH  14  41
BRANCH  15  43
ATOM     43  O   UNL     1     -11.218  -2.739  22.325  0.00  0.00    +0.000 OA
ATOM     44  H   UNL     1     -11.890  -2.970  22.998  0.00  0.00    +0.000 HD
ENDBRANCH  15  43
TORSDOF 7
ENDMDL
MODEL 5
REMARK VINA RESULT:    -7.099      3.532      7.198
REMARK INTER + INTRA:          -9.418
REMARK INTER:                  -9.272
REMARK INTRA:                  -0.146
REMARK UNBOUND:                -0.452
REMARK  Name = 
REMARK  7 active torsions:
REMARK  status: ('A' for Active; 'I' for Inactive)
REMARK    1  A    between atoms: C_1  and  S_2
REMARK    2  A    between atoms: S_2  and  C_5
REMARK    3  A    between atoms: C_8  and  C_9
REMARK    4  A    between atoms: C_14  and  O_15
REMARK    5  A    between atoms: C_16  and  O_17
REMARK    6  A    between atoms: C_24  and  O_25
REMARK    7  A    between atoms: C_26  and  O_27
REMARK                            x       y       z     vdW  Elec       q    Type
REMARK                         _______ _______ _______ _____ _____    ______ ____
ROOT
ATOM      1  C   UNL     1     -10.614  -2.207  18.316  0.00  0.00    +0.000 C 
ATOM      2  O   UNL     1     -10.901  -1.230  17.612  0.00  0.00    +0.000 OA
ATOM      3  N   UNL     1     -10.524  -3.455  17.654  0.00  0.00    +0.000 N 
ATOM      4  C   UNL     1     -10.995  -3.664  16.351  0.00  0.00    +0.000 A 
ATOM      5  C   UNL     1     -11.827  -2.917  15.499  0.00  0.00    +0.000 A 
ATOM      6  C   UNL     1     -11.664  -3.159  14.141  0.00  0.00    +0.000 A 
ATOM      7  C   UNL     1     -10.703  -4.046  13.674  0.00  0.00    +0.000 A 
ATOM      8  C   UNL     1     -10.116  -4.965  14.530  0.00  0.00    +0.000 A 
ATOM      9  C   UNL     1     -10.372  -4.819  15.904  0.00  0.00    +0.000 A 
ATOM     10  C   UNL     1     -10.233  -5.599  17.072  0.00  0.00    +0.000 A 
ATOM     11  C   UNL     1     -10.207  -6.972  17.382  0.00  0.00    +0.000 A 
ATOM     12 BR   UNL     1     -11.010  -8.228  16.212  0.00  0.00    +0.000 Br
ATOM     13  C   UNL     1      -9.719  -7.397  18.617  0.00  0.00    +0.000 A 
ATOM     14  C   UNL     1      -9.126  -6.461  19.447  0.00  0.00    +0.000 A 
ATOM     15  C   UNL     1      -9.209  -5.088  19.181  0.00  0.00    +0.000 A 
ATOM     16  C   UNL     1      -9.963  -4.664  18.081  0.00  0.00    +0.000 A 
ATOM     17  H   UNL     1     -12.479  -2.135  15.873  0.00  0.00    +0.000 HD
ATOM     18  H   UNL     1      -9.431  -5.719  14.158  0.00  0.00    +0.000 HD
ATOM     19  H   UNL     1      -9.760  -8.448  18.883  0.00  0.00    +0.000 HD
ENDROOT
BRANCH   1  23
ATOM     20  C   UNL     1     -10.134  -1.746  22.513  0.00  0.00    +0.000 A 
ATOM     21  C   UNL     1      -9.075  -1.395  21.672  0.00  0.00    +0.000 A 
ATOM     22  C   UNL     1      -9.231  -1.498  20.288  0.00  0.00    +0.000 A 
ATOM     23  C   UNL     1     -10.453  -1.916  19.751  0.00  0.00    +0.000 A 
ATOM     24  C   UNL     1     -11.516  -2.247  20.608  0.00  0.00    +0.000 A 
ATOM     25  C   UNL     1     -11.358  -2.171  21.990  0.00  0.00    +0.000 A 
ATOM     26  H   UNL     1      -8.115  -1.083  22.078  0.00  0.00    +0.000 HD
ATOM     27  H   UNL     1      -8.383  -1.273  19.648  0.00  0.00    +0.000 HD
ATOM     28  H   UNL     1     -12.454  -2.618  20.195  0.00  0.00    +0.000 HD
ATOM     29  H   UNL     1     -12.170  -2.487  22.643  0.00  0.00    +0.000 HD
BRANCH  20  30
ATOM     30  S   UNL     1      -9.867  -1.797  24.268  0.00  0.00    +0.000 S 
ATOM     31  O   UNL     1     -11.006  -2.454  24.861  0.00  0.00    +0.000 OA
ATOM     32  O   UNL     1      -9.479  -0.452  24.681  0.00  0.00    +0.000 OA
BRANCH  30  33
ATOM     33  C   UNL     1      -8.459  -2.851  24.454  0.00  0.00    +0.000 C 
ATOM     34  H   UNL     1      -8.585  -3.418  25.379  0.00  0.00    +0.000 HD
ATOM     35  H   UNL     1      -7.556  -2.240  24.514  0.00  0.00    +0.000 HD
ATOM     36  H   UNL     1      -8.412  -3.532  23.603  0.00  0.00    +0.000 HD
ENDBRANCH  30  33
ENDBRANCH  20  30
ENDBRANCH   1  23
BRANCH   6  37
ATOM     37  O   UNL     1     -12.429  -2.503  13.216  0.00  0.00    +0.000 OA
ATOM     38  H   UNL     1     -12.877  -1.789  13.707  0.00  0.00    +0.000 HD
ENDBRANCH   6  37
BRANCH   7  39
ATOM     39  O   UNL     1     -10.346  -4.024  12.357  0.00  0.00    +0.000 OA
ATOM     40  H   UNL     1     -11.191  -4.143  11.878  0.00  0.00    +0.000 HD
ENDBRANCH   7  39
BRANCH  14  41
ATOM     41  O   UNL     1      -8.440  -6.843  20.569  0.00  0.00    +0.000 OA
ATOM     42  H   UNL     1      -7.614  -6.327  20.613  0.00  0.00    +0.000 HD
ENDBRANCH  14  41
BRANCH  15  43
ATOM     43  O   UNL     1      -8.503  -4.213  19.963  0.00  0.00    +0.000 OA
ATOM     44  H   UNL     1      -8.224  -3.504  19.347  0.00  0.00    +0.000 HD
ENDBRANCH  15  43
TORSDOF 7
ENDMDL
MODEL 6
REMARK VINA RESULT:    -7.013      3.150      5.169
REMARK INTER + INTRA:          -9.309
REMARK INTER:                  -8.809
REMARK INTRA:                  -0.500
REMARK UNBOUND:                -0.452
REMARK  Name = 
REMARK  7 active torsions:
REMARK  status: ('A' for Active; 'I' for Inactive)
REMARK    1  A    between atoms: C_1  and  S_2
REMARK    2  A    between atoms: S_2  and  C_5
REMARK    3  A    between atoms: C_8  and  C_9
REMARK    4  A    between atoms: C_14  and  O_15
REMARK    5  A    between atoms: C_16  and  O_17
REMARK    6  A    between atoms: C_24  and  O_25
REMARK    7  A    between atoms: C_26  and  O_27
REMARK                            x       y       z     vdW  Elec       q    Type
REMARK                         _______ _______ _______ _____ _____    ______ ____
ROOT
ATOM      1  C   UNL     1     -11.187  -1.583  17.771  0.00  0.00    +0.000 C 
ATOM      2  O   UNL     1     -11.304  -1.172  16.609  0.00  0.00    +0.000 OA
ATOM      3  N   UNL     1     -11.285  -0.613  18.796  0.00  0.00    +0.000 N 
ATOM      4  C   UNL     1     -11.236   0.766  18.549  0.00  0.00    +0.000 A 
ATOM      5  C   UNL     1     -10.856   1.528  17.431  0.00  0.00    +0.000 A 
ATOM      6  C   UNL     1     -11.410   2.801  17.358  0.00  0.00    +0.000 A 
ATOM      7  C   UNL     1     -12.315   3.251  18.310  0.00  0.00    +0.000 A 
ATOM      8  C   UNL     1     -12.438   2.603  19.530  0.00  0.00    +0.000 A 
ATOM      9  C   UNL     1     -11.777   1.372  19.674  0.00  0.00    +0.000 A 
ATOM     10  C   UNL     1     -11.402   0.513  20.730  0.00  0.00    +0.000 A 
ATOM     11  C   UNL     1     -11.105   0.654  22.099  0.00  0.00    +0.000 A 
ATOM     12 BR   UNL     1     -10.535   2.326  22.783  0.00  0.00    +0.000 Br
ATOM     13  C   UNL     1     -11.091  -0.469  22.926  0.00  0.00    +0.000 A 
ATOM     14  C   UNL     1     -11.525  -1.675  22.404  0.00  0.00    +0.000 A 
ATOM     15  C   UNL     1     -11.754  -1.841  21.031  0.00  0.00    +0.000 A 
ATOM     16  C   UNL     1     -11.476  -0.772  20.173  0.00  0.00    +0.000 A 
ATOM     17  H   UNL     1     -10.253   1.115  16.631  0.00  0.00    +0.000 HD
ATOM     18  H   UNL     1     -13.076   2.997  20.313  0.00  0.00    +0.000 HD
ATOM     19  H   UNL     1     -10.798  -0.371  23.965  0.00  0.00    +0.000 HD
ENDROOT
BRANCH   1  23
ATOM     20  C   UNL     1     -10.309  -5.741  17.766  0.00  0.00    +0.000 A 
ATOM     21  C   UNL     1      -9.458  -4.875  18.456  0.00  0.00    +0.000 A 
ATOM     22  C   UNL     1      -9.755  -3.511  18.505  0.00  0.00    +0.000 A 
ATOM     23  C   UNL     1     -10.918  -3.027  17.897  0.00  0.00    +0.000 A 
ATOM     24  C   UNL     1     -11.775  -3.912  17.223  0.00  0.00    +0.000 A 
ATOM     25  C   UNL     1     -11.470  -5.270  17.148  0.00  0.00    +0.000 A 
ATOM     26  H   UNL     1      -8.543  -5.238  18.921  0.00  0.00    +0.000 HD
ATOM     27  H   UNL     1      -9.058  -2.842  19.000  0.00  0.00    +0.000 HD
ATOM     28  H   UNL     1     -12.657  -3.532  16.707  0.00  0.00    +0.000 HD
ATOM     29  H   UNL     1     -12.112  -5.935  16.573  0.00  0.00    +0.000 HD
BRANCH  20  30
ATOM     30  S   UNL     1      -9.826  -7.436  17.544  0.00  0.00    +0.000 S 
ATOM     31  O   UNL     1      -8.558  -7.439  16.855  0.00  0.00    +0.000 OA
ATOM     32  O   UNL     1     -10.978  -8.141  16.991  0.00  0.00    +0.000 OA
BRANCH  30  33
ATOM     33  C   UNL     1      -9.565  -8.025  19.191  0.00  0.00    +0.000 C 
ATOM     34  H   UNL     1      -8.886  -7.330  19.690  0.00  0.00    +0.000 HD
ATOM     35  H   UNL     1      -9.117  -9.019  19.152  0.00  0.00    +0.000 HD
ATOM     36  H   UNL     1     -10.523  -8.050  19.712  0.00  0.00    +0.000 HD
ENDBRANCH  30  33
ENDBRANCH  20  30
ENDBRANCH   1  23
BRANCH   6  37
ATOM     37  O   UNL     1     -11.103   3.641  16.324  0.00  0.00    +0.000 OA
ATOM     38  H   UNL     1     -11.660   3.349  15.577  0.00  0.00    +0.000 HD
ENDBRANCH   6  37
BRANCH   7  39
ATOM     39  O   UNL     1     -13.079   4.351  18.050  0.00  0.00    +0.000 OA
ATOM     40  H   UNL     1     -12.776   4.649  17.168  0.00  0.00    +0.000 HD
ENDBRANCH   7  39
BRANCH  14  41
ATOM     41  O   UNL     1     -11.739  -2.760  23.211  0.00  0.00    +0.000 OA
ATOM     42  H   UNL     1     -12.377  -2.506  23.903  0.00  0.00    +0.000 HD
ENDBRANCH  14  41
BRANCH  15  43
ATOM     43  O   UNL     1     -12.299  -3.015  20.583  0.00  0.00    +0.000 OA
ATOM     44  H   UNL     1     -12.502  -2.846  19.640  0.00  0.00    +0.000 HD
ENDBRANCH  15  43
TORSDOF 7
ENDMDL
MODEL 7
REMARK VINA RESULT:    -6.950      2.083      4.247
REMARK INTER + INTRA:          -9.230
REMARK INTER:                  -8.813
REMARK INTRA:                  -0.417
REMARK UNBOUND:                -0.452
REMARK  Name = 
REMARK  7 active torsions:
REMARK  status: ('A' for Active; 'I' for Inactive)
REMARK    1  A    between atoms: C_1  and  S_2
REMARK    2  A    between atoms: S_2  and  C_5
REMARK    3  A    between atoms: C_8  and  C_9
REMARK    4  A    between atoms: C_14  and  O_15
REMARK    5  A    between atoms: C_16  and  O_17
REMARK    6  A    between atoms: C_24  and  O_25
REMARK    7  A    between atoms: C_26  and  O_27
REMARK                            x       y       z     vdW  Elec       q    Type
REMARK                         _______ _______ _______ _____ _____    ______ ____
ROOT
ATOM      1  C   UNL     1     -11.320  -4.792  15.638  0.00  0.00    +0.000 C 
ATOM      2  O   UNL     1     -12.031  -4.896  14.630  0.00  0.00    +0.000 OA
ATOM      3  N   UNL     1     -11.173  -3.490  16.174  0.00  0.00    +0.000 N 
ATOM      4  C   UNL     1     -11.556  -2.332  15.482  0.00  0.00    +0.000 A 
ATOM      5  C   UNL     1     -11.896  -2.083  14.142  0.00  0.00    +0.000 A 
ATOM      6  C   UNL     1     -12.700  -0.970  13.926  0.00  0.00    +0.000 A 
ATOM      7  C   UNL     1     -13.165  -0.198  14.982  0.00  0.00    +0.000 A 
ATOM      8  C   UNL     1     -12.582  -0.293  16.237  0.00  0.00    +0.000 A 
ATOM      9  C   UNL     1     -11.664  -1.336  16.441  0.00  0.00    +0.000 A 
ATOM     10  C   UNL     1     -10.674  -1.675  17.389  0.00  0.00    +0.000 A 
ATOM     11  C   UNL     1      -9.841  -0.977  18.285  0.00  0.00    +0.000 A 
ATOM     12 BR   UNL     1      -9.427   0.846  17.976  0.00  0.00    +0.000 Br
ATOM     13  C   UNL     1      -9.205  -1.661  19.320  0.00  0.00    +0.000 A 
ATOM     14  C   UNL     1      -9.537  -2.989  19.532  0.00  0.00    +0.000 A 
ATOM     15  C   UNL     1     -10.306  -3.709  18.608  0.00  0.00    +0.000 A 
ATOM     16  C   UNL     1     -10.691  -3.077  17.421  0.00  0.00    +0.000 A 
ATOM     17  H   UNL     1     -11.634  -2.769  13.344  0.00  0.00    +0.000 HD
ATOM     18  H   UNL     1     -12.878   0.367  17.044  0.00  0.00    +0.000 HD
ATOM     19  H   UNL     1      -8.513  -1.137  19.969  0.00  0.00    +0.000 HD
ENDROOT
BRANCH   1  23
ATOM     20  C   UNL     1      -9.729  -8.591  16.684  0.00  0.00    +0.000 A 
ATOM     21  C   UNL     1      -8.888  -7.652  16.081  0.00  0.00    +0.000 A 
ATOM     22  C   UNL     1      -9.382  -6.383  15.770  0.00  0.00    +0.000 A 
ATOM     23  C   UNL     1     -10.701  -6.048  16.097  0.00  0.00    +0.000 A 
ATOM     24  C   UNL     1     -11.529  -6.995  16.721  0.00  0.00    +0.000 A 
ATOM     25  C   UNL     1     -11.049  -8.271  17.009  0.00  0.00    +0.000 A 
ATOM     26  H   UNL     1      -7.865  -7.907  15.809  0.00  0.00    +0.000 HD
ATOM     27  H   UNL     1      -8.734  -5.682  15.255  0.00  0.00    +0.000 HD
ATOM     28  H   UNL     1     -12.571  -6.752  16.934  0.00  0.00    +0.000 HD
ATOM     29  H   UNL     1     -11.719  -9.014  17.439  0.00  0.00    +0.000 HD
BRANCH  20  30
ATOM     30  S   UNL     1      -9.154 -10.258  16.898  0.00  0.00    +0.000 S 
ATOM     31  O   UNL     1      -8.136 -10.496  15.905  0.00  0.00    +0.000 OA
ATOM     32  O   UNL     1     -10.336 -11.111  16.977  0.00  0.00    +0.000 OA
BRANCH  30  33
ATOM     33  C   UNL     1      -8.385 -10.242  18.491  0.00  0.00    +0.000 C 
ATOM     34  H   UNL     1      -7.429 -10.763  18.405  0.00  0.00    +0.000 HD
ATOM     35  H   UNL     1      -9.027 -10.760  19.207  0.00  0.00    +0.000 HD
ATOM     36  H   UNL     1      -8.220  -9.208  18.794  0.00  0.00    +0.000 HD
ENDBRANCH  30  33
ENDBRANCH  20  30
ENDBRANCH   1  23
BRANCH   6  37
ATOM     37  O   UNL     1     -13.085  -0.618  12.662  0.00  0.00    +0.000 OA
ATOM     38  H   UNL     1     -12.933  -1.411  12.113  0.00  0.00    +0.000 HD
ENDBRANCH   6  37
BRANCH   7  39
ATOM     39  O   UNL     1     -14.195   0.674  14.780  0.00  0.00    +0.000 OA
ATOM     40  H   UNL     1     -14.202   1.226  15.590  0.00  0.00    +0.000 HD
ENDBRANCH   7  39
BRANCH  14  41
ATOM     41  O   UNL     1      -9.116  -3.654  20.652  0.00  0.00    +0.000 OA
ATOM     42  H   UNL     1      -9.880  -3.765  21.248  0.00  0.00    +0.000 HD
ENDBRANCH  14  41
BRANCH  15  43
ATOM     43  O   UNL     1     -10.709  -4.980  18.922  0.00  0.00    +0.000 OA
ATOM     44  H   UNL     1     -11.150  -5.305  18.110  0.00  0.00    +0.000 HD
ENDBRANCH  15  43
TORSDOF 7
ENDMDL
MODEL 8
REMARK VINA RESULT:    -6.946      5.441      9.725
REMARK INTER + INTRA:          -9.224
REMARK INTER:                  -8.655
REMARK INTRA:                  -0.570
REMARK UNBOUND:                -0.452
REMARK  Name = 
REMARK  7 active torsions:
REMARK  status: ('A' for Active; 'I' for Inactive)
REMARK    1  A    between atoms: C_1  and  S_2
REMARK    2  A    between atoms: S_2  and  C_5
REMARK    3  A    between atoms: C_8  and  C_9
REMARK    4  A    between atoms: C_14  and  O_15
REMARK    5  A    between atoms: C_16  and  O_17
REMARK    6  A    between atoms: C_24  and  O_25
REMARK    7  A    between atoms: C_26  and  O_27
REMARK                            x       y       z     vdW  Elec       q    Type
REMARK                         _______ _______ _______ _____ _____    ______ ____
ROOT
ATOM      1  C   UNL     1      -9.920  -0.577  20.227  0.00  0.00    +0.000 C 
ATOM      2  O   UNL     1      -9.785  -0.951  19.054  0.00  0.00    +0.000 OA
ATOM      3  N   UNL     1      -9.269  -1.354  21.215  0.00  0.00    +0.000 N 
ATOM      4  C   UNL     1      -8.735  -2.624  20.958  0.00  0.00    +0.000 A 
ATOM      5  C   UNL     1      -8.881  -3.529  19.893  0.00  0.00    +0.000 A 
ATOM      6  C   UNL     1      -7.836  -4.430  19.727  0.00  0.00    +0.000 A 
ATOM      7  C   UNL     1      -6.710  -4.389  20.538  0.00  0.00    +0.000 A 
ATOM      8  C   UNL     1      -6.729  -3.695  21.738  0.00  0.00    +0.000 A 
ATOM      9  C   UNL     1      -7.841  -2.874  21.989  0.00  0.00    +0.000 A 
ATOM     10  C   UNL     1      -8.416  -2.218  23.098  0.00  0.00    +0.000 A 
ATOM     11  C   UNL     1      -8.439  -2.407  24.493  0.00  0.00    +0.000 A 
ATOM     12 BR   UNL     1      -8.116  -4.124  25.226  0.00  0.00    +0.000 Br
ATOM     13  C   UNL     1      -8.840  -1.366  25.330  0.00  0.00    +0.000 A 
ATOM     14  C   UNL     1      -9.057  -0.119  24.769  0.00  0.00    +0.000 A 
ATOM     15  C   UNL     1      -9.106   0.063  23.381  0.00  0.00    +0.000 A 
ATOM     16  C   UNL     1      -8.991  -1.060  22.555  0.00  0.00    +0.000 A 
ATOM     17  H   UNL     1      -9.704  -3.463  19.190  0.00  0.00    +0.000 HD
ATOM     18  H   UNL     1      -5.886  -3.729  22.419  0.00  0.00    +0.000 HD
ATOM     19  H   UNL     1      -8.921  -1.532  26.398  0.00  0.00    +0.000 HD
ENDROOT
BRANCH   1  23
ATOM     20  C   UNL     1     -12.501   2.795  20.385  0.00  0.00    +0.000 A 
ATOM     21  C   UNL     1     -12.880   1.626  21.050  0.00  0.00    +0.000 A 
ATOM     22  C   UNL     1     -12.024   0.522  21.045  0.00  0.00    +0.000 A 
ATOM     23  C   UNL     1     -10.781   0.605  20.409  0.00  0.00    +0.000 A 
ATOM     24  C   UNL     1     -10.404   1.793  19.762  0.00  0.00    +0.000 A 
ATOM     25  C   UNL     1     -11.266   2.889  19.740  0.00  0.00    +0.000 A 
ATOM     26  H   UNL     1     -13.851   1.545  21.536  0.00  0.00    +0.000 HD
ATOM     27  H   UNL     1     -12.353  -0.396  21.520  0.00  0.00    +0.000 HD
ATOM     28  H   UNL     1      -9.457   1.845  19.225  0.00  0.00    +0.000 HD
ATOM     29  H   UNL     1     -10.986   3.782  19.185  0.00  0.00    +0.000 HD
BRANCH  20  30
ATOM     30  S   UNL     1     -13.672   4.122  20.230  0.00  0.00    +0.000 S 
ATOM     31  O   UNL     1     -14.330   4.271  21.505  0.00  0.00    +0.000 OA
ATOM     32  O   UNL     1     -14.442   3.873  19.016  0.00  0.00    +0.000 OA
BRANCH  30  33
ATOM     33  C   UNL     1     -12.665   5.549  19.954  0.00  0.00    +0.000 C 
ATOM     34  H   UNL     1     -12.979   6.321  20.659  0.00  0.00    +0.000 HD
ATOM     35  H   UNL     1     -12.810   5.901  18.931  0.00  0.00    +0.000 HD
ATOM     36  H   UNL     1     -11.621   5.285  20.130  0.00  0.00    +0.000 HD
ENDBRANCH  30  33
ENDBRANCH  20  30
ENDBRANCH   1  23
BRANCH   6  37
ATOM     37  O   UNL     1      -7.872  -5.369  18.734  0.00  0.00    +0.000 OA
ATOM     38  H   UNL     1      -7.156  -5.124  18.117  0.00  0.00    +0.000 HD
ENDBRANCH   6  37
BRANCH   7  39
ATOM     39  O   UNL     1      -5.579  -5.052  20.159  0.00  0.00    +0.000 OA
ATOM     40  H   UNL     1      -5.766  -5.337  19.241  0.00  0.00    +0.000 HD
ENDBRANCH   7  39
BRANCH  14  41
ATOM     41  O   UNL     1      -9.241   0.987  25.554  0.00  0.00    +0.000 OA
ATOM     42  H   UNL     1      -8.430   1.132  26.075  0.00  0.00    +0.000 HD
ENDBRANCH  14  41
BRANCH  15  43
ATOM     43  O   UNL     1      -9.200   1.333  22.877  0.00  0.00    +0.000 OA
ATOM     44  H   UNL     1      -8.365   1.464  22.383  0.00  0.00    +0.000 HD
ENDBRANCH  15  43
TORSDOF 7
ENDMDL
MODEL 9
REMARK VINA RESULT:    -6.806      3.959      7.012
REMARK INTER + INTRA:          -9.048
REMARK INTER:                  -8.476
REMARK INTRA:                  -0.572
REMARK UNBOUND:                -0.452
REMARK  Name = 
REMARK  7 active torsions:
REMARK  status: ('A' for Active; 'I' for Inactive)
REMARK    1  A    between atoms: C_1  and  S_2
REMARK    2  A    between atoms: S_2  and  C_5
REMARK    3  A    between atoms: C_8  and  C_9
REMARK    4  A    between atoms: C_14  and  O_15
REMARK    5  A    between atoms: C_16  and  O_17
REMARK    6  A    between atoms: C_24  and  O_25
REMARK    7  A    between atoms: C_26  and  O_27
REMARK                            x       y       z     vdW  Elec       q    Type
REMARK                         _______ _______ _______ _____ _____    ______ ____
ROOT
ATOM      1  C   UNL     1     -10.799  -2.410  18.637  0.00  0.00    +0.000 C 
ATOM      2  O   UNL     1     -11.637  -3.305  18.468  0.00  0.00    +0.000 OA
ATOM      3  N   UNL     1     -10.315  -1.771  17.471  0.00  0.00    +0.000 N 
ATOM      4  C   UNL     1     -10.529  -2.273  16.180  0.00  0.00    +0.000 A 
ATOM      5  C   UNL     1     -10.976  -3.514  15.695  0.00  0.00    +0.000 A 
ATOM      6  C   UNL     1     -11.548  -3.491  14.429  0.00  0.00    +0.000 A 
ATOM      7  C   UNL     1     -11.703  -2.302  13.727  0.00  0.00    +0.000 A 
ATOM      8  C   UNL     1     -11.000  -1.166  14.098  0.00  0.00    +0.000 A 
ATOM      9  C   UNL     1     -10.304  -1.211  15.318  0.00  0.00    +0.000 A 
ATOM     10  C   UNL     1      -9.296  -0.462  15.964  0.00  0.00    +0.000 A 
ATOM     11  C   UNL     1      -8.230   0.366  15.565  0.00  0.00    +0.000 A 
ATOM     12 BR   UNL     1      -7.483   0.189  13.833  0.00  0.00    +0.000 Br
ATOM     13  C   UNL     1      -7.627   1.217  16.490  0.00  0.00    +0.000 A 
ATOM     14  C   UNL     1      -8.202   1.338  17.744  0.00  0.00    +0.000 A 
ATOM     15  C   UNL     1      -9.215   0.470  18.173  0.00  0.00    +0.000 A 
ATOM     16  C   UNL     1      -9.604  -0.574  17.327  0.00  0.00    +0.000 A 
ATOM     17  H   UNL     1     -10.966  -4.409  16.307  0.00  0.00    +0.000 HD
ATOM     18  H   UNL     1     -11.047  -0.260  13.506  0.00  0.00    +0.000 HD
ATOM     19  H   UNL     1      -6.764   1.806  16.201  0.00  0.00    +0.000 HD
ENDROOT
BRANCH   1  23
ATOM     20  C   UNL     1      -9.858  -2.069  22.767  0.00  0.00    +0.000 A 
ATOM     21  C   UNL     1      -8.845  -2.424  21.874  0.00  0.00    +0.000 A 
ATOM     22  C   UNL     1      -9.126  -2.498  20.507  0.00  0.00    +0.000 A 
ATOM     23  C   UNL     1     -10.405  -2.182  20.039  0.00  0.00    +0.000 A 
ATOM     24  C   UNL     1     -11.409  -1.807  20.947  0.00  0.00    +0.000 A 
ATOM     25  C   UNL     1     -11.142  -1.757  22.313  0.00  0.00    +0.000 A 
ATOM     26  H   UNL     1      -7.850  -2.687  22.228  0.00  0.00    +0.000 HD
ATOM     27  H   UNL     1      -8.344  -2.826  19.830  0.00  0.00    +0.000 HD
ATOM     28  H   UNL     1     -12.420  -1.606  20.590  0.00  0.00    +0.000 HD
ATOM     29  H   UNL     1     -11.944  -1.523  23.011  0.00  0.00    +0.000 HD
BRANCH  20  30
ATOM     30  S   UNL     1      -9.547  -2.165  24.513  0.00  0.00    +0.000 S 
ATOM     31  O   UNL     1     -10.783  -2.539  25.155  0.00  0.00    +0.000 OA
ATOM     32  O   UNL     1      -8.849  -0.940  24.892  0.00  0.00    +0.000 OA
BRANCH  30  33
ATOM     33  C   UNL     1      -8.410  -3.511  24.670  0.00  0.00    +0.000 C 
ATOM     34  H   UNL     1      -7.906  -3.412  25.634  0.00  0.00    +0.000 HD
ATOM     35  H   UNL     1      -7.677  -3.460  23.862  0.00  0.00    +0.000 HD
ATOM     36  H   UNL     1      -8.965  -4.449  24.634  0.00  0.00    +0.000 HD
ENDBRANCH  30  33
ENDBRANCH  20  30
ENDBRANCH   1  23
BRANCH   6  37
ATOM     37  O   UNL     1     -12.006  -4.639  13.845  0.00  0.00    +0.000 OA
ATOM     38  H   UNL     1     -11.299  -4.921  13.233  0.00  0.00    +0.000 HD
ENDBRANCH   6  37
BRANCH   7  39
ATOM     39  O   UNL     1     -12.543  -2.256  12.653  0.00  0.00    +0.000 OA
ATOM     40  H   UNL     1     -13.264  -2.877  12.886  0.00  0.00    +0.000 HD
ENDBRANCH   7  39
BRANCH  14  41
ATOM     41  O   UNL     1      -7.793   2.307  18.620  0.00  0.00    +0.000 OA
ATOM     42  H   UNL     1      -7.093   2.833  18.191  0.00  0.00    +0.000 HD
ENDBRANCH  14  41
BRANCH  15  43
ATOM     43  O   UNL     1      -9.833   0.708  19.372  0.00  0.00    +0.000 OA
ATOM     44  H   UNL     1      -9.367   0.126  20.008  0.00  0.00    +0.000 HD
ENDBRANCH  15  43
TORSDOF 7
ENDMDL
