REMARK  Name = 
REMARK  5 active torsions:
REMARK  status: ('A' for Active; 'I' for Inactive)
REMARK    1  A    between atoms: C_1  and  N_2
REMARK    2  A    between atoms: N_2  and  C_3
REMARK    3  A    between atoms: C_7  and  C_8
REMARK    4  A    between atoms: C_9  and  O_10
REMARK    5  A    between atoms: O_10  and  C_11
REMARK                            x       y       z     vdW  Elec       q    Type
REMARK                         _______ _______ _______ _____ _____    ______ ____
ROOT
ATOM      1  C   UNL     1       2.888  -1.407   1.457  0.00  0.00    +0.000 C 
ATOM      2  C   UNL     1       2.092  -0.717   2.625  0.00  0.00    +0.000 C 
ATOM      3  C   UNL     1       0.918   0.128   2.036  0.00  0.00    +0.000 C 
ATOM      4  O   UNL     1       1.612   0.673   0.844  0.00  0.00    +0.000 OA
ATOM      5  C   UNL     1       1.477  -0.279  -0.248  0.00  0.00    +0.000 C 
ATOM      6  C   UNL     1       1.787  -1.789   0.413  0.00  0.00    +0.000 C 
ATOM      7  N   UNL     1       0.294   0.269  -0.895  0.00  0.00    +0.000 N 
ATOM      8  C   UNL     1       0.166   1.013  -2.130  0.00  0.00    +0.000 A 
ATOM      9  C   UNL     1       1.073   1.570  -3.040  0.00  0.00    +0.000 A 
ATOM     10  C   UNL     1       0.608   2.178  -4.219  0.00  0.00    +0.000 A 
ATOM     11  C   UNL     1      -0.747   2.249  -4.512  0.00  0.00    +0.000 A 
ATOM     12  C   UNL     1      -1.665   1.925  -3.533  0.00  0.00    +0.000 A 
ATOM     13  C   UNL     1      -1.180   1.476  -2.314  0.00  0.00    +0.000 A 
ATOM     14  C   UNL     1      -1.696   1.552  -1.031  0.00  0.00    +0.000 A 
ATOM     15  C   UNL     1      -2.343   2.699  -0.598  0.00  0.00    +0.000 A 
ATOM     16  C   UNL     1      -3.228   2.345   0.450  0.00  0.00    +0.000 A 
ATOM     17  C   UNL     1      -2.435   1.462   1.368  0.00  0.00    +0.000 A 
ATOM     18  C   UNL     1      -2.905   0.068   1.373  0.00  0.00    +0.000 A 
ATOM     19  C   UNL     1      -4.102  -0.421   0.769  0.00  0.00    +0.000 A 
ATOM     20  C   UNL     1      -4.044  -1.600   0.047  0.00  0.00    +0.000 A 
ATOM     21  C   UNL     1      -2.994  -2.466   0.255  0.00  0.00    +0.000 A 
ATOM     22  C   UNL     1      -1.951  -2.181   1.160  0.00  0.00    +0.000 A 
ATOM     23  C   UNL     1      -1.724  -0.850   1.586  0.00  0.00    +0.000 A 
ATOM     24  N   UNL     1      -0.535  -0.054   1.785  0.00  0.00    +0.000 N 
ATOM     25  C   UNL     1      -1.077   0.999   1.122  0.00  0.00    +0.000 A 
ATOM     26  C   UNL     1      -0.755   0.905  -0.278  0.00  0.00    +0.000 A 
ATOM     27  C   UNL     1      -3.924   3.599   0.668  0.00  0.00    +0.000 C 
ATOM     28  O   UNL     1      -5.118   3.868   0.725  0.00  0.00    +0.000 OA
ATOM     29  N   UNL     1      -2.965   4.584   0.328  0.00  0.00    +0.000 N 
ATOM     30  C   UNL     1      -1.747   3.985  -0.159  0.00  0.00    +0.000 C 
ATOM     31  H   UNL     1       3.531  -0.634   1.024  0.00  0.00    +0.000 HD
ATOM     32  H   UNL     1       1.804  -1.353   3.459  0.00  0.00    +0.000 HD
ATOM     33  H   UNL     1       2.818   0.009   3.036  0.00  0.00    +0.000 HD
ATOM     34  H   UNL     1       0.875   0.981   2.732  0.00  0.00    +0.000 HD
ATOM     35  H   UNL     1       2.109  -2.477  -0.374  0.00  0.00    +0.000 HD
ATOM     36  H   UNL     1       2.130   1.634  -2.830  0.00  0.00    +0.000 HD
ATOM     37  H   UNL     1       1.318   2.630  -4.899  0.00  0.00    +0.000 HD
ATOM     38  H   UNL     1      -1.095   2.665  -5.454  0.00  0.00    +0.000 HD
ATOM     39  H   UNL     1      -2.731   2.103  -3.676  0.00  0.00    +0.000 HD
ATOM     40  H   UNL     1      -4.925   0.264   0.564  0.00  0.00    +0.000 HD
ATOM     41  H   UNL     1      -4.793  -1.804  -0.716  0.00  0.00    +0.000 HD
ATOM     42  H   UNL     1      -2.944  -3.378  -0.341  0.00  0.00    +0.000 HD
ATOM     43  H   UNL     1      -1.229  -2.967   1.247  0.00  0.00    +0.000 HD
ATOM     44  H   UNL     1      -3.353   5.357  -0.197  0.00  0.00    +0.000 HD
ATOM     45  H   UNL     1      -1.122   3.821   0.738  0.00  0.00    +0.000 HD
ATOM     46  H   UNL     1      -1.185   4.558  -0.883  0.00  0.00    +0.000 HD
ENDROOT
BRANCH   5  47
ATOM     47  C   UNL     1       2.674  -0.196  -1.250  0.00  0.00    +0.000 C 
ATOM     48  H   UNL     1       3.414  -0.993  -1.120  0.00  0.00    +0.000 HD
ATOM     49  H   UNL     1       3.223   0.743  -1.166  0.00  0.00    +0.000 HD
ATOM     50  H   UNL     1       2.351  -0.400  -2.278  0.00  0.00    +0.000 HD
ENDBRANCH   5  47
BRANCH   1  51
ATOM     51  N   UNL     1       3.904  -2.377   1.889  0.00  0.00    +0.000 NA
ATOM     52  H   UNL     1       3.620  -2.976   2.642  0.00  0.00    +0.000 HD
BRANCH  51  53
ATOM     53  C   UNL     1       4.507  -3.134   0.797  0.00  0.00    +0.000 C 
ATOM     54  H   UNL     1       3.825  -3.906   0.433  0.00  0.00    +0.000 HD
ATOM     55  H   UNL     1       5.417  -3.629   1.147  0.00  0.00    +0.000 HD
ATOM     56  H   UNL     1       4.799  -2.495  -0.044  0.00  0.00    +0.000 HD
ENDBRANCH  51  53
ENDBRANCH   1  51
BRANCH   6  57
ATOM     57  O   UNL     1       0.754  -2.455   1.130  0.00  0.00    +0.000 OA
BRANCH  57  58
ATOM     58  C   UNL     1       1.090  -3.609   1.909  0.00  0.00    +0.000 C 
ATOM     59  H   UNL     1       1.725  -3.373   2.764  0.00  0.00    +0.000 HD
ATOM     60  H   UNL     1       1.536  -4.388   1.292  0.00  0.00    +0.000 HD
ATOM     61  H   UNL     1       0.179  -4.005   2.373  0.00  0.00    +0.000 HD
ENDBRANCH  57  58
ENDBRANCH   6  57
TORSDOF 5
