
 OpenBabel01112422263D

 70 74  0  0  1  0  0  0  0  0999 V2000
    3.0673    2.2021    1.4111 O   0  0  0  0  0  0  0  0  0  0  0  0
    3.1134    1.2689    0.6215 C   0  0  0  0  0  0  0  0  0  0  0  0
    2.7087   -0.0117    0.9177 N   0  0  0  0  0  0  0  0  0  0  0  0
    2.3021   -0.4872    2.2539 C   0  0  3  0  0  0  0  0  0  0  0  0
    3.3571   -0.2725    3.3719 C   0  0  0  0  0  0  0  0  0  0  0  0
    4.5821   -1.1014    3.3682 N   0  0  3  0  0  0  0  0  0  0  0  0
    4.4575   -2.3157    4.1759 C   0  0  0  0  0  0  0  0  0  0  0  0
    3.4839   -3.3463    3.5987 C   0  0  0  0  0  0  0  0  0  0  0  0
    3.0309   -3.0128    2.1635 C   0  0  3  0  0  0  0  0  0  0  0  0
    4.2737   -2.5787    1.3583 C   0  0  0  0  0  0  0  0  0  0  0  0
    5.0720   -1.4453    2.0323 C   0  0  0  0  0  0  0  0  0  0  0  0
    1.8736   -1.9763    2.2019 C   0  0  3  0  0  0  0  0  0  0  0  0
    1.0444   -2.1321    1.0214 O   0  0  0  0  0  0  0  0  0  0  0  0
   -0.2420   -2.5173    1.2235 C   0  0  0  0  0  0  0  0  0  0  0  0
   -0.6849   -3.0608    2.2209 O   0  0  0  0  0  0  0  0  0  0  0  0
   -1.0916   -2.0571    0.0906 C   0  0  0  0  0  0  0  0  0  0  0  0
   -2.4700   -2.2979    0.1288 C   0  0  0  0  0  0  0  0  0  0  0  0
   -3.2928   -1.7969   -0.8858 C   0  0  0  0  0  0  0  0  0  0  0  0
   -4.6349   -2.0593   -0.8295 O   0  0  0  0  0  0  0  0  0  0  0  0
   -2.7588   -1.0440   -1.9502 C   0  0  0  0  0  0  0  0  0  0  0  0
   -3.6571   -0.5120   -3.0086 C   0  0  0  0  0  0  0  0  0  0  0  0
   -4.7404   -0.0178   -2.6765 O   0  0  0  0  0  0  0  0  0  0  0  0
   -3.2510   -0.3391   -4.4372 C   0  0  0  0  0  0  0  0  0  0  0  0
   -3.7398    0.8117   -5.0966 C   0  0  0  0  0  0  0  0  0  0  0  0
   -4.6082    1.7012   -4.5080 O   0  0  0  0  0  0  0  0  0  0  0  0
   -3.3532    1.1386   -6.3919 C   0  0  0  0  0  0  0  0  0  0  0  0
   -2.4654    0.3216   -7.0755 C   0  0  0  0  0  0  0  0  0  0  0  0
   -1.9834   -0.8355   -6.4652 C   0  0  0  0  0  0  0  0  0  0  0  0
   -2.3649   -1.1716   -5.1484 C   0  0  0  0  0  0  0  0  0  0  0  0
   -1.8426   -2.4451   -4.5926 C   0  0  0  0  0  0  0  0  0  0  0  0
   -2.5133   -3.1980   -3.9106 O   0  0  0  0  0  0  0  0  0  0  0  0
   -0.5477   -2.6885   -4.8972 O   0  0  0  0  0  0  0  0  0  0  0  0
   -1.3827   -0.7818   -1.9496 C   0  0  0  0  0  0  0  0  0  0  0  0
   -0.7377    0.0043   -2.8729 O   0  0  0  0  0  0  0  0  0  0  0  0
   -0.5553   -1.3030   -0.9601 C   0  0  0  0  0  0  0  0  0  0  0  0
    3.7172    1.4468   -0.7349 C   0  0  0  0  0  0  0  0  0  0  0  0
    4.7683    2.3626   -0.8821 C   0  0  0  0  0  0  0  0  0  0  0  0
    5.4250    2.4940   -2.1107 C   0  0  0  0  0  0  0  0  0  0  0  0
    5.0206    1.7127   -3.1890 C   0  0  0  0  0  0  0  0  0  0  0  0
    5.6414    1.7903   -4.4000 O   0  0  0  0  0  0  0  0  0  0  0  0
    3.9635    0.8194   -3.0651 C   0  0  0  0  0  0  0  0  0  0  0  0
    3.3055    0.6886   -1.8402 C   0  0  0  0  0  0  0  0  0  0  0  0
    2.7597   -0.7168    0.1991 H   0  0  0  0  0  0  0  0  0  0  0  0
    1.4175    0.1172    2.4949 H   0  0  0  0  0  0  0  0  0  0  0  0
    2.8467   -0.3964    4.3380 H   0  0  0  0  0  0  0  0  0  0  0  0
    3.6781    0.7741    3.3675 H   0  0  0  0  0  0  0  0  0  0  0  0
    4.1842   -2.0704    5.2093 H   0  0  0  0  0  0  0  0  0  0  0  0
    5.4514   -2.7777    4.2572 H   0  0  0  0  0  0  0  0  0  0  0  0
    2.6164   -3.4513    4.2606 H   0  0  0  0  0  0  0  0  0  0  0  0
    3.9807   -4.3251    3.5925 H   0  0  0  0  0  0  0  0  0  0  0  0
    2.6391   -3.9317    1.7079 H   0  0  0  0  0  0  0  0  0  0  0  0
    4.0056   -2.3098    0.3318 H   0  0  0  0  0  0  0  0  0  0  0  0
    4.9393   -3.4474    1.2654 H   0  0  0  0  0  0  0  0  0  0  0  0
    5.1383   -0.5583    1.3938 H   0  0  0  0  0  0  0  0  0  0  0  0
    6.1173   -1.7700    2.1241 H   0  0  0  0  0  0  0  0  0  0  0  0
    1.2699   -2.1663    3.0982 H   0  0  0  0  0  0  0  0  0  0  0  0
   -2.8914   -2.8737    0.9499 H   0  0  0  0  0  0  0  0  0  0  0  0
   -4.8667   -2.4673    0.0201 H   0  0  0  0  0  0  0  0  0  0  0  0
   -4.9859    1.2747   -3.7037 H   0  0  0  0  0  0  0  0  0  0  0  0
   -3.7523    2.0337   -6.8642 H   0  0  0  0  0  0  0  0  0  0  0  0
   -2.1657    0.5753   -8.0914 H   0  0  0  0  0  0  0  0  0  0  0  0
   -1.3248   -1.4826   -7.0439 H   0  0  0  0  0  0  0  0  0  0  0  0
   -0.0588   -1.9618   -5.3261 H   0  0  0  0  0  0  0  0  0  0  0  0
   -1.3249    0.7241   -3.1518 H   0  0  0  0  0  0  0  0  0  0  0  0
    0.5050   -1.0872   -0.9998 H   0  0  0  0  0  0  0  0  0  0  0  0
    5.0932    2.9591   -0.0310 H   0  0  0  0  0  0  0  0  0  0  0  0
    6.2470    3.1978   -2.2010 H   0  0  0  0  0  0  0  0  0  0  0  0
    6.3728    2.4270   -4.3369 H   0  0  0  0  0  0  0  0  0  0  0  0
    3.6558    0.2230   -3.9195 H   0  0  0  0  0  0  0  0  0  0  0  0
    2.4707   -0.0003   -1.7744 H   0  0  0  0  0  0  0  0  0  0  0  0
  1  2  2  0  0  0  0
  2  3  1  0  0  0  0
  2 36  1  0  0  0  0
  3  4  1  0  0  0  0
  3 43  1  0  0  0  0
  4  5  1  0  0  0  0
  4 12  1  0  0  0  0
  4 44  1  0  0  0  0
  5  6  1  0  0  0  0
  5 45  1  0  0  0  0
  5 46  1  0  0  0  0
  6  7  1  0  0  0  0
  6 11  1  0  0  0  0
  7  8  1  0  0  0  0
  7 47  1  0  0  0  0
  7 48  1  0  0  0  0
  8  9  1  0  0  0  0
  8 49  1  0  0  0  0
  8 50  1  0  0  0  0
  9 10  1  0  0  0  0
  9 12  1  0  0  0  0
  9 51  1  0  0  0  0
 10 11  1  0  0  0  0
 10 52  1  0  0  0  0
 10 53  1  0  0  0  0
 11 54  1  0  0  0  0
 11 55  1  0  0  0  0
 12 13  1  0  0  0  0
 12 56  1  0  0  0  0
 13 14  1  0  0  0  0
 14 15  2  0  0  0  0
 14 16  1  0  0  0  0
 16 17  1  0  0  0  0
 16 35  2  0  0  0  0
 17 18  2  0  0  0  0
 17 57  1  0  0  0  0
 18 19  1  0  0  0  0
 18 20  1  0  0  0  0
 19 58  1  0  0  0  0
 20 21  1  0  0  0  0
 20 33  2  0  0  0  0
 21 22  2  0  0  0  0
 21 23  1  0  0  0  0
 23 24  1  0  0  0  0
 23 29  2  0  0  0  0
 24 25  1  0  0  0  0
 24 26  2  0  0  0  0
 25 59  1  0  0  0  0
 26 27  1  0  0  0  0
 26 60  1  0  0  0  0
 27 28  2  0  0  0  0
 27 61  1  0  0  0  0
 28 29  1  0  0  0  0
 28 62  1  0  0  0  0
 29 30  1  0  0  0  0
 30 31  2  0  0  0  0
 30 32  1  0  0  0  0
 32 63  1  0  0  0  0
 33 34  1  0  0  0  0
 33 35  1  0  0  0  0
 34 64  1  0  0  0  0
 35 65  1  0  0  0  0
 36 37  1  0  0  0  0
 36 42  2  0  0  0  0
 37 38  2  0  0  0  0
 37 66  1  0  0  0  0
 38 39  1  0  0  0  0
 38 67  1  0  0  0  0
 39 40  1  0  0  0  0
 39 41  2  0  0  0  0
 40 68  1  0  0  0  0
 41 42  1  0  0  0  0
 41 69  1  0  0  0  0
 42 70  1  0  0  0  0
M  END
$$$$
