
 OpenBabel01112422353D

 54 59  0  0  0  0  0  0  0  0999 V2000
    1.6042    0.3021    0.6302 C   0  0  0  0  0  0  0  0  0  0  0  0
    2.3590   -0.8094    0.1033 N   0  0  0  0  0  0  0  0  0  0  0  0
    1.8990   -1.4317   -1.0782 C   0  0  0  0  0  0  0  0  0  0  0  0
    1.6354   -2.6783   -0.5411 C   0  0  0  0  0  0  0  0  0  0  0  0
    2.8335   -2.9378    0.1741 C   0  0  0  0  0  0  0  0  0  0  0  0
    3.5093   -4.1269    0.4854 C   0  0  0  0  0  0  0  0  0  0  0  0
    4.7696   -4.0116    1.0479 C   0  0  0  0  0  0  0  0  0  0  0  0
    5.2427   -2.7635    1.4618 C   0  0  0  0  0  0  0  0  0  0  0  0
    6.5542   -2.6473    1.9262 C   0  0  0  0  0  0  0  0  0  0  0  0
    7.4582   -3.5818    2.3043 N   0  0  0  0  0  0  0  0  0  0  0  0
    8.3825   -3.0434    3.1851 C   0  0  0  0  0  0  0  0  0  0  0  0
    9.2462   -3.7264    4.0538 C   0  0  0  0  0  0  0  0  0  0  0  0
    9.3248   -5.2340    4.1116 C   0  0  0  0  0  0  0  0  0  0  0  0
    9.7199   -5.8941    2.7770 C   0  0  0  0  0  0  0  0  0  0  0  0
   11.0322   -5.4447    2.3094 N   0  0  0  0  0  0  0  0  0  0  0  0
   11.3262   -5.9900    0.9779 C   0  0  0  0  0  0  0  0  0  0  0  0
   12.6872   -5.5030    0.4734 C   0  0  0  0  0  0  0  0  0  0  0  0
   13.7192   -5.8905    1.3778 O   0  0  0  0  0  0  0  0  0  0  0  0
    9.9875   -2.9245    4.9344 C   0  0  0  0  0  0  0  0  0  0  0  0
    9.9194   -1.5338    4.8868 C   0  0  0  0  0  0  0  0  0  0  0  0
    9.0878   -0.8846    3.9652 C   0  0  0  0  0  0  0  0  0  0  0  0
    8.2694   -1.6631    3.1187 C   0  0  0  0  0  0  0  0  0  0  0  0
    7.1700   -1.4626    2.2537 C   0  0  0  0  0  0  0  0  0  0  0  0
    6.4131   -0.2651    2.2937 C   0  0  0  0  0  0  0  0  0  0  0  0
    5.0058   -0.5118    2.1789 C   0  0  0  0  0  0  0  0  0  0  0  0
    4.4323   -1.5934    1.4805 C   0  0  0  0  0  0  0  0  0  0  0  0
    3.2687   -1.6858    0.6808 C   0  0  0  0  0  0  0  0  0  0  0  0
    4.5235    0.1062    3.4087 C   0  0  0  0  0  0  0  0  0  0  0  0
    3.6775   -0.2427    4.2303 O   0  0  0  0  0  0  0  0  0  0  0  0
    5.4752    1.0644    3.6997 N   0  0  0  0  0  0  0  0  0  0  0  0
    6.6547    0.9363    3.0079 C   0  0  0  0  0  0  0  0  0  0  0  0
    7.5898    1.7051    3.0864 O   0  0  0  0  0  0  0  0  0  0  0  0
    2.1435    1.2277    0.4307 H   0  0  0  0  0  0  0  0  0  0  0  0
    1.4041    0.1379    1.6881 H   0  0  0  0  0  0  0  0  0  0  0  0
    0.6414    0.3356    0.0974 H   0  0  0  0  0  0  0  0  0  0  0  0
    2.5553   -1.2298   -1.9247 H   0  0  0  0  0  0  0  0  0  0  0  0
    0.6589   -3.0666   -0.2701 H   0  0  0  0  0  0  0  0  0  0  0  0
    3.1442   -5.0782    0.1208 H   0  0  0  0  0  0  0  0  0  0  0  0
    5.3887   -4.9028    1.0904 H   0  0  0  0  0  0  0  0  0  0  0  0
    7.2811   -4.5693    2.2328 H   0  0  0  0  0  0  0  0  0  0  0  0
    8.3387   -5.6124    4.4150 H   0  0  0  0  0  0  0  0  0  0  0  0
   10.0272   -5.5463    4.8921 H   0  0  0  0  0  0  0  0  0  0  0  0
    8.9717   -5.6817    2.0083 H   0  0  0  0  0  0  0  0  0  0  0  0
    9.7237   -6.9820    2.9126 H   0  0  0  0  0  0  0  0  0  0  0  0
   11.7385   -5.7585    2.9723 H   0  0  0  0  0  0  0  0  0  0  0  0
   10.5565   -5.6820    0.2606 H   0  0  0  0  0  0  0  0  0  0  0  0
   11.3340   -7.0843    1.0341 H   0  0  0  0  0  0  0  0  0  0  0  0
   12.7092   -4.4134    0.3610 H   0  0  0  0  0  0  0  0  0  0  0  0
   12.9045   -5.9506   -0.5010 H   0  0  0  0  0  0  0  0  0  0  0  0
   13.6003   -5.3274    2.1626 H   0  0  0  0  0  0  0  0  0  0  0  0
   10.6311   -3.3908    5.6767 H   0  0  0  0  0  0  0  0  0  0  0  0
   10.5073   -0.9413    5.5849 H   0  0  0  0  0  0  0  0  0  0  0  0
    9.0661    0.2003    3.9762 H   0  0  0  0  0  0  0  0  0  0  0  0
    5.5389    1.4792    4.6150 H   0  0  0  0  0  0  0  0  0  0  0  0
  1  2  1  0  0  0  0
  1 33  1  0  0  0  0
  1 34  1  0  0  0  0
  1 35  1  0  0  0  0
  2  3  1  0  0  0  0
  2 27  1  0  0  0  0
  3  4  2  0  0  0  0
  3 36  1  0  0  0  0
  4  5  1  0  0  0  0
  4 37  1  0  0  0  0
  5  6  1  0  0  0  0
  5 27  2  0  0  0  0
  6  7  2  0  0  0  0
  6 38  1  0  0  0  0
  7  8  1  0  0  0  0
  7 39  1  0  0  0  0
  8  9  1  0  0  0  0
  8 26  2  0  0  0  0
  9 10  1  0  0  0  0
  9 23  2  0  0  0  0
 10 11  1  0  0  0  0
 10 40  1  0  0  0  0
 11 12  1  0  0  0  0
 11 22  2  0  0  0  0
 12 13  1  0  0  0  0
 12 19  2  0  0  0  0
 13 14  1  0  0  0  0
 13 41  1  0  0  0  0
 13 42  1  0  0  0  0
 14 15  1  0  0  0  0
 14 43  1  0  0  0  0
 14 44  1  0  0  0  0
 15 16  1  0  0  0  0
 15 45  1  0  0  0  0
 16 17  1  0  0  0  0
 16 46  1  0  0  0  0
 16 47  1  0  0  0  0
 17 18  1  0  0  0  0
 17 48  1  0  0  0  0
 17 49  1  0  0  0  0
 18 50  1  0  0  0  0
 19 20  1  0  0  0  0
 19 51  1  0  0  0  0
 20 21  2  0  0  0  0
 20 52  1  0  0  0  0
 21 22  1  0  0  0  0
 21 53  1  0  0  0  0
 22 23  1  0  0  0  0
 23 24  1  0  0  0  0
 24 25  2  0  0  0  0
 24 31  1  0  0  0  0
 25 26  1  0  0  0  0
 25 28  1  0  0  0  0
 26 27  1  0  0  0  0
 28 29  2  0  0  0  0
 28 30  1  0  0  0  0
 30 31  1  0  0  0  0
 30 54  1  0  0  0  0
 31 32  2  0  0  0  0
M  END
$$$$
