MODEL 1
REMARK VINA RESULT:   -12.279      0.000      0.000
REMARK INTER + INTRA:         -14.475
REMARK INTER:                 -13.715
REMARK INTRA:                  -0.760
REMARK UNBOUND:                -0.760
REMARK  Name = 
REMARK  2 active torsions:
REMARK  status: ('A' for Active; 'I' for Inactive)
REMARK    1  A    between atoms: C_6  and  N_7
REMARK    2  A    between atoms: C_16  and  N_17
REMARK                            x       y       z     vdW  Elec       q    Type
REMARK                         _______ _______ _______ _____ _____    ______ ____
ROOT
ATOM      1  O   UNL     1     -11.864  -7.645  17.942  0.00  0.00    +0.000 OA
ATOM      2  C   UNL     1     -10.953  -6.856  18.096  0.00  0.00    +0.000 C 
ATOM      3  N   UNL     1     -11.046  -5.527  17.912  0.00  0.00    +0.000 N 
ATOM      4  C   UNL     1      -9.889  -4.919  18.225  0.00  0.00    +0.000 C 
ATOM      5  O   UNL     1      -9.676  -3.731  18.075  0.00  0.00    +0.000 OA
ATOM      6  C   UNL     1      -8.939  -5.960  18.685  0.00  0.00    +0.000 C 
ATOM      7  C   UNL     1      -9.587  -7.146  18.588  0.00  0.00    +0.000 C 
ATOM      8  H   UNL     1     -11.866  -5.053  17.573  0.00  0.00    +0.000 HD
ENDROOT
BRANCH   6   9
ATOM      9  N   UNL     1      -7.593  -5.721  19.012  0.00  0.00    +0.000 N 
ATOM     10  C   UNL     1      -6.498  -6.205  18.305  0.00  0.00    +0.000 A 
ATOM     11  C   UNL     1      -5.331  -5.775  18.881  0.00  0.00    +0.000 A 
ATOM     12  C   UNL     1      -5.681  -4.978  19.992  0.00  0.00    +0.000 A 
ATOM     13  C   UNL     1      -4.916  -4.278  20.945  0.00  0.00    +0.000 A 
ATOM     14  C   UNL     1      -5.557  -3.587  21.975  0.00  0.00    +0.000 A 
ATOM     15  C   UNL     1      -6.942  -3.604  22.072  0.00  0.00    +0.000 A 
ATOM     16  C   UNL     1      -7.719  -4.300  21.141  0.00  0.00    +0.000 A 
ATOM     17  C   UNL     1      -7.080  -4.961  20.074  0.00  0.00    +0.000 A 
ATOM     18  H   UNL     1      -6.633  -6.804  17.413  0.00  0.00    +0.000 HD
ATOM     19  H   UNL     1      -4.333  -6.009  18.535  0.00  0.00    +0.000 HD
ATOM     20  H   UNL     1      -3.831  -4.277  20.884  0.00  0.00    +0.000 HD
ATOM     21  H   UNL     1      -4.969  -3.040  22.706  0.00  0.00    +0.000 HD
ATOM     22  H   UNL     1      -7.433  -3.071  22.883  0.00  0.00    +0.000 HD
ATOM     23  H   UNL     1      -8.797  -4.308  21.260  0.00  0.00    +0.000 HD
ENDBRANCH   6   9
BRANCH   7  24
ATOM     24  N   UNL     1      -9.148  -8.415  18.982  0.00  0.00    +0.000 N 
ATOM     25  C   UNL     1      -8.665  -8.729  20.246  0.00  0.00    +0.000 A 
ATOM     26  C   UNL     1      -8.247 -10.034  20.276  0.00  0.00    +0.000 A 
ATOM     27  C   UNL     1      -8.495 -10.584  19.000  0.00  0.00    +0.000 A 
ATOM     28  C   UNL     1      -8.260 -11.857  18.444  0.00  0.00    +0.000 A 
ATOM     29  C   UNL     1      -8.599 -12.106  17.113  0.00  0.00    +0.000 A 
ATOM     30  C   UNL     1      -9.165 -11.104  16.334  0.00  0.00    +0.000 A 
ATOM     31  C   UNL     1      -9.404  -9.832  16.864  0.00  0.00    +0.000 A 
ATOM     32  C   UNL     1      -9.078  -9.583  18.211  0.00  0.00    +0.000 A 
ATOM     33  H   UNL     1      -8.658  -7.988  21.035  0.00  0.00    +0.000 HD
ATOM     34  H   UNL     1      -7.804 -10.536  21.127  0.00  0.00    +0.000 HD
ATOM     35  H   UNL     1      -7.807 -12.641  19.045  0.00  0.00    +0.000 HD
ATOM     36  H   UNL     1      -8.413 -13.088  16.684  0.00  0.00    +0.000 HD
ATOM     37  H   UNL     1      -9.422 -11.307  15.298  0.00  0.00    +0.000 HD
ATOM     38  H   UNL     1      -9.831  -9.066  16.224  0.00  0.00    +0.000 HD
ENDBRANCH   7  24
TORSDOF 2
ENDMDL
MODEL 2
REMARK VINA RESULT:   -12.246      0.073      6.167
REMARK INTER + INTRA:         -14.439
REMARK INTER:                 -13.653
REMARK INTRA:                  -0.786
REMARK UNBOUND:                -0.760
REMARK  Name = 
REMARK  2 active torsions:
REMARK  status: ('A' for Active; 'I' for Inactive)
REMARK    1  A    between atoms: C_6  and  N_7
REMARK    2  A    between atoms: C_16  and  N_17
REMARK                            x       y       z     vdW  Elec       q    Type
REMARK                         _______ _______ _______ _____ _____    ______ ____
ROOT
ATOM      1  O   UNL     1      -9.713  -3.725  18.121  0.00  0.00    +0.000 OA
ATOM      2  C   UNL     1      -9.904  -4.918  18.251  0.00  0.00    +0.000 C 
ATOM      3  N   UNL     1     -11.050  -5.552  17.946  0.00  0.00    +0.000 N 
ATOM      4  C   UNL     1     -10.929  -6.876  18.137  0.00  0.00    +0.000 C 
ATOM      5  O   UNL     1     -11.838  -7.674  18.011  0.00  0.00    +0.000 OA
ATOM      6  C   UNL     1      -9.546  -7.144  18.599  0.00  0.00    +0.000 C 
ATOM      7  C   UNL     1      -8.926  -5.942  18.685  0.00  0.00    +0.000 C 
ATOM      8  H   UNL     1     -11.889  -5.095  17.629  0.00  0.00    +0.000 HD
ENDROOT
BRANCH   6   9
ATOM      9  N   UNL     1      -9.067  -8.406  18.992  0.00  0.00    +0.000 N 
ATOM     10  C   UNL     1      -8.596  -8.725  20.261  0.00  0.00    +0.000 A 
ATOM     11  C   UNL     1      -8.221 -10.042  20.312  0.00  0.00    +0.000 A 
ATOM     12  C   UNL     1      -8.467 -10.598  19.039  0.00  0.00    +0.000 A 
ATOM     13  C   UNL     1      -8.284 -11.890  18.508  0.00  0.00    +0.000 A 
ATOM     14  C   UNL     1      -8.597 -12.139  17.170  0.00  0.00    +0.000 A 
ATOM     15  C   UNL     1      -9.067 -11.115  16.359  0.00  0.00    +0.000 A 
ATOM     16  C   UNL     1      -9.247  -9.824  16.865  0.00  0.00    +0.000 A 
ATOM     17  C   UNL     1      -8.978  -9.577  18.225  0.00  0.00    +0.000 A 
ATOM     18  H   UNL     1      -8.589  -7.987  21.053  0.00  0.00    +0.000 HD
ATOM     19  H   UNL     1      -7.816 -10.549  21.178  0.00  0.00    +0.000 HD
ATOM     20  H   UNL     1      -7.899 -12.690  19.133  0.00  0.00    +0.000 HD
ATOM     21  H   UNL     1      -8.464 -13.136  16.761  0.00  0.00    +0.000 HD
ATOM     22  H   UNL     1      -9.299 -11.315  15.316  0.00  0.00    +0.000 HD
ATOM     23  H   UNL     1      -9.597  -9.043  16.197  0.00  0.00    +0.000 HD
ENDBRANCH   6   9
BRANCH   7  24
ATOM     24  N   UNL     1      -7.589  -5.669  18.993  0.00  0.00    +0.000 N 
ATOM     25  C   UNL     1      -6.497  -6.171  18.296  0.00  0.00    +0.000 A 
ATOM     26  C   UNL     1      -5.333  -5.776  18.902  0.00  0.00    +0.000 A 
ATOM     27  C   UNL     1      -5.687  -4.973  20.008  0.00  0.00    +0.000 A 
ATOM     28  C   UNL     1      -4.927  -4.314  20.995  0.00  0.00    +0.000 A 
ATOM     29  C   UNL     1      -5.573  -3.595  22.001  0.00  0.00    +0.000 A 
ATOM     30  C   UNL     1      -6.960  -3.527  22.035  0.00  0.00    +0.000 A 
ATOM     31  C   UNL     1      -7.735  -4.176  21.068  0.00  0.00    +0.000 A 
ATOM     32  C   UNL     1      -7.086  -4.888  20.041  0.00  0.00    +0.000 A 
ATOM     33  H   UNL     1      -6.638  -6.778  17.409  0.00  0.00    +0.000 HD
ATOM     34  H   UNL     1      -4.334  -6.044  18.585  0.00  0.00    +0.000 HD
ATOM     35  H   UNL     1      -3.843  -4.374  20.979  0.00  0.00    +0.000 HD
ATOM     36  H   UNL     1      -4.986  -3.090  22.765  0.00  0.00    +0.000 HD
ATOM     37  H   UNL     1      -7.454  -2.967  22.826  0.00  0.00    +0.000 HD
ATOM     38  H   UNL     1      -8.817  -4.117  21.133  0.00  0.00    +0.000 HD
ENDBRANCH   7  24
TORSDOF 2
ENDMDL
MODEL 3
REMARK VINA RESULT:    -9.847      1.057      5.736
REMARK INTER + INTRA:         -11.759
REMARK INTER:                 -11.893
REMARK INTRA:                   0.134
REMARK UNBOUND:                -0.760
REMARK  Name = 
REMARK  2 active torsions:
REMARK  status: ('A' for Active; 'I' for Inactive)
REMARK    1  A    between atoms: C_6  and  N_7
REMARK    2  A    between atoms: C_16  and  N_17
REMARK                            x       y       z     vdW  Elec       q    Type
REMARK                         _______ _______ _______ _____ _____    ______ ____
ROOT
ATOM      1  O   UNL     1      -9.870  -2.510  18.343  0.00  0.00    +0.000 OA
ATOM      2  C   UNL     1      -9.997  -3.713  18.233  0.00  0.00    +0.000 C 
ATOM      3  N   UNL     1     -10.808  -4.324  17.352  0.00  0.00    +0.000 N 
ATOM      4  C   UNL     1     -10.678  -5.660  17.429  0.00  0.00    +0.000 C 
ATOM      5  O   UNL     1     -11.350  -6.452  16.798  0.00  0.00    +0.000 OA
ATOM      6  C   UNL     1      -9.654  -5.958  18.459  0.00  0.00    +0.000 C 
ATOM      7  C   UNL     1      -9.252  -4.765  18.962  0.00  0.00    +0.000 C 
ATOM      8  H   UNL     1     -11.436  -3.848  16.727  0.00  0.00    +0.000 HD
ENDROOT
BRANCH   6   9
ATOM      9  N   UNL     1      -9.310  -7.251  18.889  0.00  0.00    +0.000 N 
ATOM     10  C   UNL     1      -9.028  -7.610  20.202  0.00  0.00    +0.000 A 
ATOM     11  C   UNL     1      -8.744  -8.949  20.278  0.00  0.00    +0.000 A 
ATOM     12  C   UNL     1      -8.856  -9.477  18.974  0.00  0.00    +0.000 A 
ATOM     13  C   UNL     1      -8.684 -10.772  18.449  0.00  0.00    +0.000 A 
ATOM     14  C   UNL     1      -8.834 -10.989  17.078  0.00  0.00    +0.000 A 
ATOM     15  C   UNL     1      -9.130  -9.929  16.231  0.00  0.00    +0.000 A 
ATOM     16  C   UNL     1      -9.296  -8.634  16.732  0.00  0.00    +0.000 A 
ATOM     17  C   UNL     1      -9.192  -8.418  18.119  0.00  0.00    +0.000 A 
ATOM     18  H   UNL     1      -9.080  -6.882  21.001  0.00  0.00    +0.000 HD
ATOM     19  H   UNL     1      -8.487  -9.489  21.181  0.00  0.00    +0.000 HD
ATOM     20  H   UNL     1      -8.434 -11.601  19.105  0.00  0.00    +0.000 HD
ATOM     21  H   UNL     1      -8.710 -11.989  16.673  0.00  0.00    +0.000 HD
ATOM     22  H   UNL     1      -9.236 -10.105  15.163  0.00  0.00    +0.000 HD
ATOM     23  H   UNL     1      -9.508  -7.828  16.038  0.00  0.00    +0.000 HD
ENDBRANCH   6   9
BRANCH   7  24
ATOM     24  N   UNL     1      -8.244  -4.508  19.897  0.00  0.00    +0.000 N 
ATOM     25  C   UNL     1      -8.402  -3.737  21.041  0.00  0.00    +0.000 A 
ATOM     26  C   UNL     1      -7.203  -3.619  21.696  0.00  0.00    +0.000 A 
ATOM     27  C   UNL     1      -6.251  -4.361  20.964  0.00  0.00    +0.000 A 
ATOM     28  C   UNL     1      -4.872  -4.586  21.143  0.00  0.00    +0.000 A 
ATOM     29  C   UNL     1      -4.172  -5.365  20.220  0.00  0.00    +0.000 A 
ATOM     30  C   UNL     1      -4.829  -5.916  19.126  0.00  0.00    +0.000 A 
ATOM     31  C   UNL     1      -6.197  -5.703  18.927  0.00  0.00    +0.000 A 
ATOM     32  C   UNL     1      -6.909  -4.931  19.866  0.00  0.00    +0.000 A 
ATOM     33  H   UNL     1      -9.370  -3.327  21.303  0.00  0.00    +0.000 HD
ATOM     34  H   UNL     1      -7.032  -3.053  22.602  0.00  0.00    +0.000 HD
ATOM     35  H   UNL     1      -4.351  -4.149  21.989  0.00  0.00    +0.000 HD
ATOM     36  H   UNL     1      -3.107  -5.536  20.356  0.00  0.00    +0.000 HD
ATOM     37  H   UNL     1      -4.273  -6.518  18.411  0.00  0.00    +0.000 HD
ATOM     38  H   UNL     1      -6.676  -6.132  18.054  0.00  0.00    +0.000 HD
ENDBRANCH   7  24
TORSDOF 2
ENDMDL
MODEL 4
REMARK VINA RESULT:    -9.322      1.223      2.168
REMARK INTER + INTRA:         -11.173
REMARK INTER:                 -11.132
REMARK INTRA:                  -0.041
REMARK UNBOUND:                -0.760
REMARK  Name = 
REMARK  2 active torsions:
REMARK  status: ('A' for Active; 'I' for Inactive)
REMARK    1  A    between atoms: C_6  and  N_7
REMARK    2  A    between atoms: C_16  and  N_17
REMARK                            x       y       z     vdW  Elec       q    Type
REMARK                         _______ _______ _______ _____ _____    ______ ____
ROOT
ATOM      1  O   UNL     1     -11.659  -6.190  16.377  0.00  0.00    +0.000 OA
ATOM      2  C   UNL     1     -10.966  -5.434  17.029  0.00  0.00    +0.000 C 
ATOM      3  N   UNL     1     -11.046  -4.093  16.993  0.00  0.00    +0.000 N 
ATOM      4  C   UNL     1     -10.194  -3.539  17.873  0.00  0.00    +0.000 C 
ATOM      5  O   UNL     1     -10.010  -2.343  17.990  0.00  0.00    +0.000 OA
ATOM      6  C   UNL     1      -9.492  -4.638  18.578  0.00  0.00    +0.000 C 
ATOM      7  C   UNL     1      -9.953  -5.796  18.047  0.00  0.00    +0.000 C 
ATOM      8  H   UNL     1     -11.653  -3.573  16.382  0.00  0.00    +0.000 HD
ENDROOT
BRANCH   6   9
ATOM      9  N   UNL     1      -8.456  -4.452  19.510  0.00  0.00    +0.000 N 
ATOM     10  C   UNL     1      -8.550  -3.694  20.671  0.00  0.00    +0.000 A 
ATOM     11  C   UNL     1      -7.367  -3.733  21.362  0.00  0.00    +0.000 A 
ATOM     12  C   UNL     1      -6.481  -4.551  20.630  0.00  0.00    +0.000 A 
ATOM     13  C   UNL     1      -5.148  -4.951  20.848  0.00  0.00    +0.000 A 
ATOM     14  C   UNL     1      -4.505  -5.759  19.909  0.00  0.00    +0.000 A 
ATOM     15  C   UNL     1      -5.168  -6.151  18.753  0.00  0.00    +0.000 A 
ATOM     16  C   UNL     1      -6.488  -5.757  18.514  0.00  0.00    +0.000 A 
ATOM     17  C   UNL     1      -7.157  -4.980  19.480  0.00  0.00    +0.000 A 
ATOM     18  H   UNL     1      -9.476  -3.199  20.939  0.00  0.00    +0.000 HD
ATOM     19  H   UNL     1      -7.166  -3.227  22.298  0.00  0.00    +0.000 HD
ATOM     20  H   UNL     1      -4.619  -4.632  21.742  0.00  0.00    +0.000 HD
ATOM     21  H   UNL     1      -3.480  -6.075  20.079  0.00  0.00    +0.000 HD
ATOM     22  H   UNL     1      -4.657  -6.772  18.021  0.00  0.00    +0.000 HD
ATOM     23  H   UNL     1      -6.968  -6.065  17.590  0.00  0.00    +0.000 HD
ENDBRANCH   6   9
BRANCH   7  24
ATOM     24  N   UNL     1      -9.662  -7.109  18.432  0.00  0.00    +0.000 N 
ATOM     25  C   UNL     1      -9.463  -7.525  19.742  0.00  0.00    +0.000 A 
ATOM     26  C   UNL     1      -9.119  -8.852  19.765  0.00  0.00    +0.000 A 
ATOM     27  C   UNL     1      -9.126  -9.310  18.430  0.00  0.00    +0.000 A 
ATOM     28  C   UNL     1      -8.840 -10.561  17.847  0.00  0.00    +0.000 A 
ATOM     29  C   UNL     1      -8.911 -10.711  16.460  0.00  0.00    +0.000 A 
ATOM     30  C   UNL     1      -9.259  -9.633  15.655  0.00  0.00    +0.000 A 
ATOM     31  C   UNL     1      -9.544  -8.382  16.213  0.00  0.00    +0.000 A 
ATOM     32  C   UNL     1      -9.490  -8.232  17.612  0.00  0.00    +0.000 A 
ATOM     33  H   UNL     1      -9.583  -6.833  20.567  0.00  0.00    +0.000 HD
ATOM     34  H   UNL     1      -8.884  -9.427  20.651  0.00  0.00    +0.000 HD
ATOM     35  H   UNL     1      -8.556 -11.403  18.470  0.00  0.00    +0.000 HD
ATOM     36  H   UNL     1      -8.686 -11.674  16.010  0.00  0.00    +0.000 HD
ATOM     37  H   UNL     1      -9.308  -9.760  14.577  0.00  0.00    +0.000 HD
ATOM     38  H   UNL     1      -9.796  -7.557  15.555  0.00  0.00    +0.000 HD
ENDBRANCH   7  24
TORSDOF 2
ENDMDL
