REMARK  Name = 
REMARK  13 active torsions:
REMARK  status: ('A' for Active; 'I' for Inactive)
REMARK    1  A    between atoms: C_2  and  C_32
REMARK    2  A    between atoms: N_3  and  C_4
REMARK    3  A    between atoms: C_8  and  O_9
REMARK    4  A    between atoms: O_9  and  C_10
REMARK    5  A    between atoms: C_10  and  C_12
REMARK    6  A    between atoms: C_14  and  O_15
REMARK    7  A    between atoms: C_16  and  C_17
REMARK    8  A    between atoms: C_17  and  C_19
REMARK    9  A    between atoms: C_20  and  O_21
REMARK   10  A    between atoms: C_25  and  C_26
REMARK   11  A    between atoms: C_26  and  O_28
REMARK   12  A    between atoms: C_29  and  O_30
REMARK   13  A    between atoms: C_35  and  O_36
REMARK                            x       y       z     vdW  Elec       q    Type
REMARK                         _______ _______ _______ _____ _____    ______ ____
ROOT
ATOM      1  C   UNL     1       1.585   0.464   1.346  0.00  0.00    +0.000 C 
ATOM      2  O   UNL     1       2.750   0.521   1.714  0.00  0.00    +0.000 OA
ENDROOT
BRANCH   1   3
ATOM      3  C   UNL     1       1.164   0.895  -0.008  0.00  0.00    +0.000 A 
ATOM      4  C   UNL     1      -0.084   0.579  -0.550  0.00  0.00    +0.000 A 
ATOM      5  C   UNL     1      -0.397   1.015  -1.842  0.00  0.00    +0.000 A 
ATOM      6  C   UNL     1       0.524   1.758  -2.608  0.00  0.00    +0.000 A 
ATOM      7  C   UNL     1       1.741   2.125  -2.022  0.00  0.00    +0.000 A 
ATOM      8  C   UNL     1       2.067   1.677  -0.743  0.00  0.00    +0.000 A 
ATOM      9  H   UNL     1      -0.789  -0.024   0.012  0.00  0.00    +0.000 HD
ATOM     10  H   UNL     1       3.030   1.948  -0.314  0.00  0.00    +0.000 HD
BRANCH   5  11
ATOM     11  O   UNL     1      -1.618   0.678  -2.364  0.00  0.00    +0.000 OA
ATOM     12  H   UNL     1      -2.224   0.406  -1.656  0.00  0.00    +0.000 HD
ENDBRANCH   5  11
BRANCH   6  13
ATOM     13  C   UNL     1       0.183   2.148  -3.997  0.00  0.00    +0.000 C 
ATOM     14  O   UNL     1      -0.941   2.612  -4.216  0.00  0.00    +0.000 OA
BRANCH  13  15
ATOM     15  C   UNL     1       1.168   2.197  -5.123  0.00  0.00    +0.000 A 
ATOM     16  C   UNL     1       0.971   3.222  -6.078  0.00  0.00    +0.000 A 
ATOM     17  C   UNL     1       1.856   3.424  -7.135  0.00  0.00    +0.000 A 
ATOM     18  C   UNL     1       2.965   2.601  -7.275  0.00  0.00    +0.000 A 
ATOM     19  C   UNL     1       3.181   1.572  -6.358  0.00  0.00    +0.000 A 
ATOM     20  C   UNL     1       2.294   1.365  -5.276  0.00  0.00    +0.000 A 
ATOM     21  H   UNL     1       1.666   4.217  -7.854  0.00  0.00    +0.000 HD
ATOM     22  H   UNL     1       3.648   2.748  -8.108  0.00  0.00    +0.000 HD
ATOM     23  H   UNL     1       4.034   0.914  -6.518  0.00  0.00    +0.000 HD
BRANCH  16  24
ATOM     24  O   UNL     1      -0.074   4.110  -6.026  0.00  0.00    +0.000 OA
ATOM     25  H   UNL     1      -0.746   3.758  -5.396  0.00  0.00    +0.000 HD
ENDBRANCH  16  24
BRANCH  20  26
ATOM     26  C   UNL     1       2.569   0.212  -4.391  0.00  0.00    +0.000 C 
ATOM     27  O   UNL     1       1.705  -0.530  -3.972  0.00  0.00    +0.000 OA
BRANCH  26  28
ATOM     28  O   UNL     1       3.882   0.058  -4.085  0.00  0.00    +0.000 OA
ATOM     29  H   UNL     1       4.472   0.795  -4.336  0.00  0.00    +0.000 HD
ENDBRANCH  26  28
ENDBRANCH  20  26
ENDBRANCH  13  15
ENDBRANCH   6  13
BRANCH   7  30
ATOM     30  O   UNL     1       2.689   2.909  -2.627  0.00  0.00    +0.000 OA
ATOM     31  H   UNL     1       2.265   3.522  -3.253  0.00  0.00    +0.000 HD
ENDBRANCH   7  30
ENDBRANCH   1   3
BRANCH   1  32
ATOM     32  O   UNL     1       0.523   0.156   2.144  0.00  0.00    +0.000 OA
BRANCH  32  37
ATOM     33  C   UNL     1      -0.191  -0.436   4.446  0.00  0.00    +0.000 C 
ATOM     34  C   UNL     1      -1.114   0.730   4.792  0.00  0.00    +0.000 C 
ATOM     35  N   UNL     1      -0.212   1.877   4.983  0.00  0.00    +0.000 NA
ATOM     36  C   UNL     1       0.864   1.691   3.994  0.00  0.00    +0.000 C 
ATOM     37  C   UNL     1       0.867   0.213   3.548  0.00  0.00    +0.000 C 
ATOM     38  H   UNL     1       0.298  -0.767   5.374  0.00  0.00    +0.000 HD
ATOM     39  H   UNL     1      -1.695   0.543   5.701  0.00  0.00    +0.000 HD
ATOM     40  H   UNL     1      -1.821   0.940   3.981  0.00  0.00    +0.000 HD
ATOM     41  H   UNL     1       0.192   1.812   5.920  0.00  0.00    +0.000 HD
ATOM     42  H   UNL     1       1.825   1.968   4.439  0.00  0.00    +0.000 HD
ATOM     43  H   UNL     1       0.683   2.370   3.152  0.00  0.00    +0.000 HD
ATOM     44  H   UNL     1       1.832  -0.278   3.728  0.00  0.00    +0.000 HD
BRANCH  33  47
ATOM     45  O   UNL     1      -1.913  -2.131   5.852  0.00  0.00    +0.000 OA
ATOM     46  C   UNL     1      -1.717  -2.348   4.658  0.00  0.00    +0.000 C 
ATOM     47  N   UNL     1      -0.868  -1.590   3.879  0.00  0.00    +0.000 N 
ATOM     48  H   UNL     1      -0.895  -1.672   2.870  0.00  0.00    +0.000 HD
BRANCH  46  49
ATOM     49  C   UNL     1      -2.462  -3.430   3.969  0.00  0.00    +0.000 A 
ATOM     50  C   UNL     1      -3.784  -3.686   4.358  0.00  0.00    +0.000 A 
ATOM     51  C   UNL     1      -4.533  -4.663   3.700  0.00  0.00    +0.000 A 
ATOM     52  C   UNL     1      -3.942  -5.394   2.674  0.00  0.00    +0.000 A 
ATOM     53  C   UNL     1      -2.613  -5.182   2.314  0.00  0.00    +0.000 A 
ATOM     54  C   UNL     1      -1.866  -4.195   2.960  0.00  0.00    +0.000 A 
ATOM     55  H   UNL     1      -4.233  -3.115   5.168  0.00  0.00    +0.000 HD
ATOM     56  H   UNL     1      -5.562  -4.837   3.998  0.00  0.00    +0.000 HD
ATOM     57  H   UNL     1      -2.163  -5.785   1.529  0.00  0.00    +0.000 HD
ATOM     58  H   UNL     1      -0.824  -4.050   2.687  0.00  0.00    +0.000 HD
BRANCH  52  59
ATOM     59  O   UNL     1      -4.642  -6.338   1.983  0.00  0.00    +0.000 OA
ATOM     60  H   UNL     1      -5.572  -6.303   2.259  0.00  0.00    +0.000 HD
ENDBRANCH  52  59
ENDBRANCH  46  49
ENDBRANCH  33  47
ENDBRANCH  32  37
ENDBRANCH   1  32
TORSDOF 13
