MODEL 1
REMARK VINA RESULT:   -10.899      0.000      0.000
REMARK INTER + INTRA:         -14.066
REMARK INTER:                 -13.767
REMARK INTRA:                  -0.300
REMARK UNBOUND:                -0.300
REMARK  Name = 
REMARK  5 active torsions:
REMARK  status: ('A' for Active; 'I' for Inactive)
REMARK    1  A    between atoms: C_1  and  N_2
REMARK    2  A    between atoms: C_12  and  C_13
REMARK    3  A    between atoms: C_13  and  C_14
REMARK    4  A    between atoms: C_14  and  N_15
REMARK    5  A    between atoms: C_18  and  C_19
REMARK                            x       y       z     vdW  Elec       q    Type
REMARK                         _______ _______ _______ _____ _____    ______ ____
ROOT
ATOM      1  N   UNL     1      -9.242   1.416  24.172  0.00  0.00    +0.000 N 
ATOM      2  C   UNL     1      -8.467   1.271  25.346  0.00  0.00    +0.000 A 
ATOM      3  C   UNL     1      -9.031   0.138  25.906  0.00  0.00    +0.000 A 
ATOM      4  C   UNL     1      -8.987  -0.683  24.742  0.00  0.00    +0.000 A 
ATOM      5  C   UNL     1      -8.520  -1.984  24.523  0.00  0.00    +0.000 A 
ATOM      6  C   UNL     1      -8.472  -2.450  23.214  0.00  0.00    +0.000 A 
ATOM      7  C   UNL     1      -9.045  -1.699  22.177  0.00  0.00    +0.000 A 
ATOM      8  C   UNL     1      -9.044  -2.193  20.861  0.00  0.00    +0.000 A 
ATOM      9  N   UNL     1      -8.749  -3.437  20.368  0.00  0.00    +0.000 N 
ATOM     10  C   UNL     1      -9.363  -3.623  19.142  0.00  0.00    +0.000 A 
ATOM     11  C   UNL     1      -9.572  -4.833  18.459  0.00  0.00    +0.000 A 
ATOM     12  C   UNL     1     -10.336  -4.744  17.287  0.00  0.00    +0.000 A 
ATOM     13  C   UNL     1     -10.784  -3.520  16.796  0.00  0.00    +0.000 A 
ATOM     14  C   UNL     1     -10.510  -2.330  17.475  0.00  0.00    +0.000 A 
ATOM     15  C   UNL     1      -9.813  -2.371  18.694  0.00  0.00    +0.000 A 
ATOM     16  C   UNL     1      -9.492  -1.509  19.760  0.00  0.00    +0.000 A 
ATOM     17  C   UNL     1     -10.174  -0.265  19.946  0.00  0.00    +0.000 A 
ATOM     18  C   UNL     1     -10.476  -0.029  21.320  0.00  0.00    +0.000 A 
ATOM     19  C   UNL     1      -9.694  -0.461  22.400  0.00  0.00    +0.000 A 
ATOM     20  C   UNL     1      -9.435   0.122  23.667  0.00  0.00    +0.000 A 
ATOM     21  C   UNL     1     -11.948  -0.064  21.259  0.00  0.00    +0.000 C 
ATOM     22  O   UNL     1     -12.782  -0.603  21.983  0.00  0.00    +0.000 OA
ATOM     23  N   UNL     1     -12.246   0.327  19.969  0.00  0.00    +0.000 N 
ATOM     24  C   UNL     1     -11.185   0.317  19.114  0.00  0.00    +0.000 C 
ATOM     25  O   UNL     1     -11.206   0.707  17.962  0.00  0.00    +0.000 OA
ATOM     26  H   UNL     1      -7.408   1.497  25.214  0.00  0.00    +0.000 HD
ATOM     27  H   UNL     1      -9.978   0.261  26.432  0.00  0.00    +0.000 HD
ATOM     28  H   UNL     1      -8.088  -2.556  25.336  0.00  0.00    +0.000 HD
ATOM     29  H   UNL     1      -7.987  -3.402  23.030  0.00  0.00    +0.000 HD
ATOM     30  H   UNL     1      -8.418  -4.192  20.950  0.00  0.00    +0.000 HD
ATOM     31  H   UNL     1     -10.605  -5.639  16.732  0.00  0.00    +0.000 HD
ATOM     32  H   UNL     1     -11.372  -3.490  15.880  0.00  0.00    +0.000 HD
ATOM     33  H   UNL     1     -10.893  -1.406  17.057  0.00  0.00    +0.000 HD
ATOM     34  H   UNL     1     -13.158   0.142  19.573  0.00  0.00    +0.000 HD
ENDROOT
BRANCH   1  35
ATOM     35  C   UNL     1      -9.176   2.679  23.469  0.00  0.00    +0.000 C 
ATOM     36  H   UNL     1     -10.181   3.093  23.403  0.00  0.00    +0.000 HD
ATOM     37  H   UNL     1      -8.704   2.536  22.497  0.00  0.00    +0.000 HD
ATOM     38  H   UNL     1      -8.555   3.363  24.067  0.00  0.00    +0.000 HD
ENDBRANCH   1  35
BRANCH  11  39
ATOM     39  C   UNL     1      -9.077  -6.152  19.026  0.00  0.00    +0.000 C 
ATOM     40  H   UNL     1      -9.888  -6.615  19.601  0.00  0.00    +0.000 HD
ATOM     41  H   UNL     1      -8.279  -5.909  19.736  0.00  0.00    +0.000 HD
BRANCH  39  42
ATOM     42  C   UNL     1      -8.518  -7.141  17.996  0.00  0.00    +0.000 C 
ATOM     43  H   UNL     1      -7.529  -7.479  18.332  0.00  0.00    +0.000 HD
ATOM     44  H   UNL     1      -8.367  -6.594  17.055  0.00  0.00    +0.000 HD
BRANCH  42  45
ATOM     45  N   UNL     1      -9.374  -8.316  17.678  0.00  0.00    +0.000 NA
ATOM     46  C   UNL     1      -9.783  -8.217  16.282  0.00  0.00    +0.000 C 
ATOM     47  C   UNL     1     -10.655  -9.388  15.847  0.00  0.00    +0.000 C 
ATOM     48  C   UNL     1      -9.946 -10.728  16.074  0.00  0.00    +0.000 C 
ATOM     49  C   UNL     1      -9.508 -10.808  17.535  0.00  0.00    +0.000 C 
ATOM     50  C   UNL     1      -8.678  -9.593  17.962  0.00  0.00    +0.000 C 
ATOM     51  H   UNL     1      -8.909  -8.144  15.617  0.00  0.00    +0.000 HD
ATOM     52  H   UNL     1     -10.369  -7.297  16.136  0.00  0.00    +0.000 HD
ATOM     53  H   UNL     1     -10.935  -9.265  14.797  0.00  0.00    +0.000 HD
ATOM     54  H   UNL     1     -11.595  -9.379  16.409  0.00  0.00    +0.000 HD
ATOM     55  H   UNL     1     -10.651 -11.547  15.877  0.00  0.00    +0.000 HD
ATOM     56  H   UNL     1      -8.928 -11.719  17.719  0.00  0.00    +0.000 HD
ATOM     57  H   UNL     1     -10.399 -10.870  18.174  0.00  0.00    +0.000 HD
ATOM     58  H   UNL     1      -7.697  -9.608  17.478  0.00  0.00    +0.000 HD
ATOM     59  H   UNL     1      -8.511  -9.694  19.037  0.00  0.00    +0.000 HD
BRANCH  48  60
ATOM     60  C   UNL     1      -8.769 -10.940  15.125  0.00  0.00    +0.000 C 
ATOM     61  N   UNL     1      -8.060 -12.088  15.316  0.00  0.00    +0.000 N 
ATOM     62  O   UNL     1      -8.426 -10.148  14.254  0.00  0.00    +0.000 OA
ATOM     63  H   UNL     1      -8.153 -12.654  16.147  0.00  0.00    +0.000 HD
ATOM     64  H   UNL     1      -7.231 -12.211  14.746  0.00  0.00    +0.000 HD
ENDBRANCH  48  60
ENDBRANCH  42  45
ENDBRANCH  39  42
ENDBRANCH  11  39
TORSDOF 5
ENDMDL
MODEL 2
REMARK VINA RESULT:   -10.873      2.725      5.532
REMARK INTER + INTRA:         -14.033
REMARK INTER:                 -13.422
REMARK INTRA:                  -0.611
REMARK UNBOUND:                -0.300
REMARK  Name = 
REMARK  5 active torsions:
REMARK  status: ('A' for Active; 'I' for Inactive)
REMARK    1  A    between atoms: C_1  and  N_2
REMARK    2  A    between atoms: C_12  and  C_13
REMARK    3  A    between atoms: C_13  and  C_14
REMARK    4  A    between atoms: C_14  and  N_15
REMARK    5  A    between atoms: C_18  and  C_19
REMARK                            x       y       z     vdW  Elec       q    Type
REMARK                         _______ _______ _______ _____ _____    ______ ____
ROOT
ATOM      1  N   UNL     1     -12.838   0.433  15.638  0.00  0.00    +0.000 N 
ATOM      2  C   UNL     1     -13.689   0.120  14.553  0.00  0.00    +0.000 A 
ATOM      3  C   UNL     1     -12.784  -0.379  13.632  0.00  0.00    +0.000 A 
ATOM      4  C   UNL     1     -12.127  -1.298  14.501  0.00  0.00    +0.000 A 
ATOM      5  C   UNL     1     -11.806  -2.654  14.370  0.00  0.00    +0.000 A 
ATOM      6  C   UNL     1     -11.297  -3.316  15.482  0.00  0.00    +0.000 A 
ATOM      7  C   UNL     1     -10.952  -2.596  16.635  0.00  0.00    +0.000 A 
ATOM      8  C   UNL     1     -10.388  -3.255  17.740  0.00  0.00    +0.000 A 
ATOM      9  N   UNL     1      -9.887  -4.524  17.870  0.00  0.00    +0.000 N 
ATOM     10  C   UNL     1      -8.990  -4.578  18.923  0.00  0.00    +0.000 A 
ATOM     11  C   UNL     1      -8.042  -5.579  19.195  0.00  0.00    +0.000 A 
ATOM     12  C   UNL     1      -7.172  -5.317  20.262  0.00  0.00    +0.000 A 
ATOM     13  C   UNL     1      -7.301  -4.173  21.047  0.00  0.00    +0.000 A 
ATOM     14  C   UNL     1      -8.291  -3.225  20.780  0.00  0.00    +0.000 A 
ATOM     15  C   UNL     1      -9.140  -3.402  19.675  0.00  0.00    +0.000 A 
ATOM     16  C   UNL     1     -10.097  -2.670  18.946  0.00  0.00    +0.000 A 
ATOM     17  C   UNL     1     -10.204  -1.249  19.071  0.00  0.00    +0.000 A 
ATOM     18  C   UNL     1     -10.402  -0.620  17.806  0.00  0.00    +0.000 A 
ATOM     19  C   UNL     1     -11.091  -1.189  16.727  0.00  0.00    +0.000 A 
ATOM     20  C   UNL     1     -11.904  -0.610  15.719  0.00  0.00    +0.000 A 
ATOM     21  C   UNL     1      -9.149   0.149  17.714  0.00  0.00    +0.000 C 
ATOM     22  O   UNL     1      -8.359   0.313  16.786  0.00  0.00    +0.000 OA
ATOM     23  N   UNL     1      -8.790   0.376  19.026  0.00  0.00    +0.000 N 
ATOM     24  C   UNL     1      -9.460  -0.383  19.937  0.00  0.00    +0.000 C 
ATOM     25  O   UNL     1      -9.363  -0.282  21.146  0.00  0.00    +0.000 OA
ATOM     26  H   UNL     1     -14.650  -0.305  14.846  0.00  0.00    +0.000 HD
ATOM     27  H   UNL     1     -12.186   0.346  13.078  0.00  0.00    +0.000 HD
ATOM     28  H   UNL     1     -12.070  -3.196  13.470  0.00  0.00    +0.000 HD
ATOM     29  H   UNL     1     -11.174  -4.391  15.423  0.00  0.00    +0.000 HD
ATOM     30  H   UNL     1      -9.920  -5.204  17.126  0.00  0.00    +0.000 HD
ATOM     31  H   UNL     1      -6.365  -6.004  20.501  0.00  0.00    +0.000 HD
ATOM     32  H   UNL     1      -6.609  -4.006  21.871  0.00  0.00    +0.000 HD
ATOM     33  H   UNL     1      -8.340  -2.347  21.413  0.00  0.00    +0.000 HD
ATOM     34  H   UNL     1      -7.845   0.651  19.262  0.00  0.00    +0.000 HD
ENDROOT
BRANCH   1  35
ATOM     35  C   UNL     1     -13.361   1.283  16.685  0.00  0.00    +0.000 C 
ATOM     36  H   UNL     1     -13.732   0.653  17.492  0.00  0.00    +0.000 HD
ATOM     37  H   UNL     1     -14.121   1.950  16.276  0.00  0.00    +0.000 HD
ATOM     38  H   UNL     1     -12.528   1.890  17.071  0.00  0.00    +0.000 HD
ENDBRANCH   1  35
BRANCH  11  39
ATOM     39  C   UNL     1      -7.923  -6.810  18.314  0.00  0.00    +0.000 C 
ATOM     40  H   UNL     1      -6.884  -6.903  17.976  0.00  0.00    +0.000 HD
ATOM     41  H   UNL     1      -8.534  -6.620  17.424  0.00  0.00    +0.000 HD
BRANCH  39  42
ATOM     42  C   UNL     1      -8.399  -8.121  18.951  0.00  0.00    +0.000 C 
ATOM     43  H   UNL     1      -8.806  -7.902  19.947  0.00  0.00    +0.000 HD
ATOM     44  H   UNL     1      -7.518  -8.760  19.098  0.00  0.00    +0.000 HD
BRANCH  42  45
ATOM     45  N   UNL     1      -9.382  -8.917  18.167  0.00  0.00    +0.000 NA
ATOM     46  C   UNL     1      -9.769  -8.137  16.997  0.00  0.00    +0.000 C 
ATOM     47  C   UNL     1     -10.767  -8.873  16.112  0.00  0.00    +0.000 C 
ATOM     48  C   UNL     1     -10.219 -10.230  15.659  0.00  0.00    +0.000 C 
ATOM     49  C   UNL     1      -9.802 -11.026  16.893  0.00  0.00    +0.000 C 
ATOM     50  C   UNL     1      -8.839 -10.244  17.793  0.00  0.00    +0.000 C 
ATOM     51  H   UNL     1      -8.889  -7.855  16.400  0.00  0.00    +0.000 HD
ATOM     52  H   UNL     1     -10.245  -7.200  17.322  0.00  0.00    +0.000 HD
ATOM     53  H   UNL     1     -11.025  -8.246  15.254  0.00  0.00    +0.000 HD
ATOM     54  H   UNL     1     -11.703  -9.028  16.659  0.00  0.00    +0.000 HD
ATOM     55  H   UNL     1     -11.012 -10.784  15.139  0.00  0.00    +0.000 HD
ATOM     56  H   UNL     1      -9.331 -11.973  16.606  0.00  0.00    +0.000 HD
ATOM     57  H   UNL     1     -10.698 -11.286  17.473  0.00  0.00    +0.000 HD
ATOM     58  H   UNL     1      -7.864 -10.135  17.311  0.00  0.00    +0.000 HD
ATOM     59  H   UNL     1      -8.693 -10.851  18.690  0.00  0.00    +0.000 HD
BRANCH  48  60
ATOM     60  C   UNL     1      -9.068 -10.098  14.663  0.00  0.00    +0.000 C 
ATOM     61  N   UNL     1      -9.197  -9.097  13.747  0.00  0.00    +0.000 N 
ATOM     62  O   UNL     1      -8.089 -10.835  14.628  0.00  0.00    +0.000 OA
ATOM     63  H   UNL     1     -10.069  -8.615  13.585  0.00  0.00    +0.000 HD
ATOM     64  H   UNL     1      -8.481  -9.040  13.032  0.00  0.00    +0.000 HD
ENDBRANCH  48  60
ENDBRANCH  42  45
ENDBRANCH  39  42
ENDBRANCH  11  39
TORSDOF 5
ENDMDL
MODEL 3
REMARK VINA RESULT:   -10.728      4.259      7.280
REMARK INTER + INTRA:         -13.850
REMARK INTER:                 -13.576
REMARK INTRA:                  -0.274
REMARK UNBOUND:                -0.300
REMARK  Name = 
REMARK  5 active torsions:
REMARK  status: ('A' for Active; 'I' for Inactive)
REMARK    1  A    between atoms: C_1  and  N_2
REMARK    2  A    between atoms: C_12  and  C_13
REMARK    3  A    between atoms: C_13  and  C_14
REMARK    4  A    between atoms: C_14  and  N_15
REMARK    5  A    between atoms: C_18  and  C_19
REMARK                            x       y       z     vdW  Elec       q    Type
REMARK                         _______ _______ _______ _____ _____    ______ ____
ROOT
ATOM      1  N   UNL     1     -12.807  -0.059  13.086  0.00  0.00    +0.000 N 
ATOM      2  C   UNL     1     -13.607  -0.097  11.920  0.00  0.00    +0.000 A 
ATOM      3  C   UNL     1     -12.790  -0.801  11.052  0.00  0.00    +0.000 A 
ATOM      4  C   UNL     1     -12.491  -1.888  11.923  0.00  0.00    +0.000 A 
ATOM      5  C   UNL     1     -12.539  -3.276  11.750  0.00  0.00    +0.000 A 
ATOM      6  C   UNL     1     -12.334  -4.082  12.864  0.00  0.00    +0.000 A 
ATOM      7  C   UNL     1     -11.914  -3.516  14.077  0.00  0.00    +0.000 A 
ATOM      8  C   UNL     1     -11.656  -4.334  15.189  0.00  0.00    +0.000 A 
ATOM      9  N   UNL     1     -11.532  -5.695  15.294  0.00  0.00    +0.000 N 
ATOM     10  C   UNL     1     -10.785  -6.022  16.413  0.00  0.00    +0.000 A 
ATOM     11  C   UNL     1     -10.174  -7.252  16.710  0.00  0.00    +0.000 A 
ATOM     12  C   UNL     1      -9.368  -7.267  17.856  0.00  0.00    +0.000 A 
ATOM     13  C   UNL     1      -9.253  -6.155  18.686  0.00  0.00    +0.000 A 
ATOM     14  C   UNL     1      -9.920  -4.963  18.387  0.00  0.00    +0.000 A 
ATOM     15  C   UNL     1     -10.679  -4.871  17.209  0.00  0.00    +0.000 A 
ATOM     16  C   UNL     1     -11.330  -3.884  16.443  0.00  0.00    +0.000 A 
ATOM     17  C   UNL     1     -11.058  -2.492  16.632  0.00  0.00    +0.000 A 
ATOM     18  C   UNL     1     -10.959  -1.800  15.389  0.00  0.00    +0.000 A 
ATOM     19  C   UNL     1     -11.674  -2.128  14.229  0.00  0.00    +0.000 A 
ATOM     20  C   UNL     1     -12.202  -1.321  13.189  0.00  0.00    +0.000 A 
ATOM     21  C   UNL     1      -9.542  -1.403  15.438  0.00  0.00    +0.000 C 
ATOM     22  O   UNL     1      -8.654  -1.438  14.588  0.00  0.00    +0.000 OA
ATOM     23  N   UNL     1      -9.257  -1.318  16.786  0.00  0.00    +0.000 N 
ATOM     24  C   UNL     1     -10.189  -1.889  17.599  0.00  0.00    +0.000 C 
ATOM     25  O   UNL     1     -10.181  -1.850  18.815  0.00  0.00    +0.000 OA
ATOM     26  H   UNL     1     -14.669  -0.249  12.112  0.00  0.00    +0.000 HD
ATOM     27  H   UNL     1     -11.969  -0.254  10.587  0.00  0.00    +0.000 HD
ATOM     28  H   UNL     1     -12.856  -3.700  10.805  0.00  0.00    +0.000 HD
ATOM     29  H   UNL     1     -12.503  -5.148  12.760  0.00  0.00    +0.000 HD
ATOM     30  H   UNL     1     -11.679  -6.319  14.516  0.00  0.00    +0.000 HD
ATOM     31  H   UNL     1      -8.803  -8.157  18.125  0.00  0.00    +0.000 HD
ATOM     32  H   UNL     1      -8.621  -6.206  19.571  0.00  0.00    +0.000 HD
ATOM     33  H   UNL     1      -9.786  -4.123  19.059  0.00  0.00    +0.000 HD
ATOM     34  H   UNL     1      -8.300  -1.321  17.111  0.00  0.00    +0.000 HD
ENDROOT
BRANCH   1  35
ATOM     35  C   UNL     1     -13.174   0.873  14.129  0.00  0.00    +0.000 C 
ATOM     36  H   UNL     1     -13.199   0.341  15.079  0.00  0.00    +0.000 HD
ATOM     37  H   UNL     1     -14.120   1.354  13.879  0.00  0.00    +0.000 HD
ATOM     38  H   UNL     1     -12.389   1.643  14.181  0.00  0.00    +0.000 HD
ENDBRANCH   1  35
BRANCH  11  39
ATOM     39  C   UNL     1     -10.313  -8.444  15.779  0.00  0.00    +0.000 C 
ATOM     40  H   UNL     1      -9.470  -8.443  15.077  0.00  0.00    +0.000 HD
ATOM     41  H   UNL     1     -11.221  -8.278  15.190  0.00  0.00    +0.000 HD
BRANCH  39  42
ATOM     42  C   UNL     1     -10.432  -9.807  16.473  0.00  0.00    +0.000 C 
ATOM     43  H   UNL     1     -11.267 -10.360  16.021  0.00  0.00    +0.000 HD
ATOM     44  H   UNL     1     -10.698  -9.626  17.523  0.00  0.00    +0.000 HD
BRANCH  42  45
ATOM     45  N   UNL     1      -9.208 -10.654  16.478  0.00  0.00    +0.000 NA
ATOM     46  C   UNL     1      -9.378 -11.693  17.486  0.00  0.00    +0.000 C 
ATOM     47  C   UNL     1      -8.180 -12.630  17.562  0.00  0.00    +0.000 C 
ATOM     48  C   UNL     1      -7.892 -13.282  16.205  0.00  0.00    +0.000 C 
ATOM     49  C   UNL     1      -7.736 -12.182  15.158  0.00  0.00    +0.000 C 
ATOM     50  C   UNL     1      -8.930 -11.222  15.138  0.00  0.00    +0.000 C 
ATOM     51  H   UNL     1     -10.291 -12.279  17.301  0.00  0.00    +0.000 HD
ATOM     52  H   UNL     1      -9.496 -11.227  18.477  0.00  0.00    +0.000 HD
ATOM     53  H   UNL     1      -8.356 -13.387  18.332  0.00  0.00    +0.000 HD
ATOM     54  H   UNL     1      -7.294 -12.075  17.889  0.00  0.00    +0.000 HD
ATOM     55  H   UNL     1      -6.950 -13.841  16.266  0.00  0.00    +0.000 HD
ATOM     56  H   UNL     1      -7.607 -12.611  14.158  0.00  0.00    +0.000 HD
ATOM     57  H   UNL     1      -6.824 -11.609  15.372  0.00  0.00    +0.000 HD
ATOM     58  H   UNL     1      -9.819 -11.721  14.744  0.00  0.00    +0.000 HD
ATOM     59  H   UNL     1      -8.671 -10.421  14.442  0.00  0.00    +0.000 HD
BRANCH  48  60
ATOM     60  C   UNL     1      -8.963 -14.293  15.799  0.00  0.00    +0.000 C 
ATOM     61  N   UNL     1      -9.238 -15.259  16.720  0.00  0.00    +0.000 N 
ATOM     62  O   UNL     1      -9.541 -14.298  14.719  0.00  0.00    +0.000 OA
ATOM     63  H   UNL     1      -8.642 -15.438  17.516  0.00  0.00    +0.000 HD
ATOM     64  H   UNL     1      -9.890 -15.983  16.440  0.00  0.00    +0.000 HD
ENDBRANCH  48  60
ENDBRANCH  42  45
ENDBRANCH  39  42
ENDBRANCH  11  39
TORSDOF 5
ENDMDL
MODEL 4
REMARK VINA RESULT:   -10.561      1.071      1.243
REMARK INTER + INTRA:         -13.638
REMARK INTER:                 -13.363
REMARK INTRA:                  -0.275
REMARK UNBOUND:                -0.300
REMARK  Name = 
REMARK  5 active torsions:
REMARK  status: ('A' for Active; 'I' for Inactive)
REMARK    1  A    between atoms: C_1  and  N_2
REMARK    2  A    between atoms: C_12  and  C_13
REMARK    3  A    between atoms: C_13  and  C_14
REMARK    4  A    between atoms: C_14  and  N_15
REMARK    5  A    between atoms: C_18  and  C_19
REMARK                            x       y       z     vdW  Elec       q    Type
REMARK                         _______ _______ _______ _____ _____    ______ ____
ROOT
ATOM      1  N   UNL     1      -9.274   1.536  24.076  0.00  0.00    +0.000 N 
ATOM      2  C   UNL     1      -8.368   1.286  25.132  0.00  0.00    +0.000 A 
ATOM      3  C   UNL     1      -8.901   0.132  25.680  0.00  0.00    +0.000 A 
ATOM      4  C   UNL     1      -9.029  -0.604  24.467  0.00  0.00    +0.000 A 
ATOM      5  C   UNL     1      -8.640  -1.899  24.104  0.00  0.00    +0.000 A 
ATOM      6  C   UNL     1      -8.769  -2.272  22.771  0.00  0.00    +0.000 A 
ATOM      7  C   UNL     1      -9.436  -1.433  21.866  0.00  0.00    +0.000 A 
ATOM      8  C   UNL     1      -9.613  -1.831  20.530  0.00  0.00    +0.000 A 
ATOM      9  N   UNL     1      -9.426  -3.044  19.921  0.00  0.00    +0.000 N 
ATOM     10  C   UNL     1     -10.192  -3.124  18.770  0.00  0.00    +0.000 A 
ATOM     11  C   UNL     1     -10.527  -4.277  18.039  0.00  0.00    +0.000 A 
ATOM     12  C   UNL     1     -11.424  -4.082  16.980  0.00  0.00    +0.000 A 
ATOM     13  C   UNL     1     -11.883  -2.814  16.632  0.00  0.00    +0.000 A 
ATOM     14  C   UNL     1     -11.485  -1.683  17.350  0.00  0.00    +0.000 A 
ATOM     15  C   UNL     1     -10.647  -1.832  18.468  0.00  0.00    +0.000 A 
ATOM     16  C   UNL     1     -10.167  -1.057  19.541  0.00  0.00    +0.000 A 
ATOM     17  C   UNL     1     -10.774   0.189  19.894  0.00  0.00    +0.000 A 
ATOM     18  C   UNL     1     -10.899   0.335  21.307  0.00  0.00    +0.000 A 
ATOM     19  C   UNL     1     -10.007  -0.195  22.250  0.00  0.00    +0.000 A 
ATOM     20  C   UNL     1      -9.575   0.288  23.512  0.00  0.00    +0.000 A 
ATOM     21  C   UNL     1     -12.367   0.346  21.427  0.00  0.00    +0.000 C 
ATOM     22  O   UNL     1     -13.126  -0.221  22.211  0.00  0.00    +0.000 OA
ATOM     23  N   UNL     1     -12.805   0.836  20.214  0.00  0.00    +0.000 N 
ATOM     24  C   UNL     1     -11.858   0.857  19.235  0.00  0.00    +0.000 C 
ATOM     25  O   UNL     1     -12.004   1.329  18.124  0.00  0.00    +0.000 OA
ATOM     26  H   UNL     1      -7.326   1.491  24.885  0.00  0.00    +0.000 HD
ATOM     27  H   UNL     1      -9.772   0.244  26.326  0.00  0.00    +0.000 HD
ATOM     28  H   UNL     1      -8.134  -2.540  24.817  0.00  0.00    +0.000 HD
ATOM     29  H   UNL     1      -8.346  -3.221  22.464  0.00  0.00    +0.000 HD
ATOM     30  H   UNL     1      -9.056  -3.848  20.405  0.00  0.00    +0.000 HD
ATOM     31  H   UNL     1     -11.791  -4.927  16.402  0.00  0.00    +0.000 HD
ATOM     32  H   UNL     1     -12.576  -2.702  15.800  0.00  0.00    +0.000 HD
ATOM     33  H   UNL     1     -11.881  -0.722  17.046  0.00  0.00    +0.000 HD
ATOM     34  H   UNL     1     -13.765   0.706  19.922  0.00  0.00    +0.000 HD
ENDROOT
BRANCH   1  35
ATOM     35  C   UNL     1      -9.248   2.844  23.457  0.00  0.00    +0.000 C 
ATOM     36  H   UNL     1      -8.218   3.087  23.201  0.00  0.00    +0.000 HD
ATOM     37  H   UNL     1      -9.712   3.576  24.118  0.00  0.00    +0.000 HD
ATOM     38  H   UNL     1      -9.834   2.786  22.526  0.00  0.00    +0.000 HD
ENDBRANCH   1  35
BRANCH  11  39
ATOM     39  C   UNL     1     -10.015  -5.645  18.450  0.00  0.00    +0.000 C 
ATOM     40  H   UNL     1     -10.874  -6.304  18.629  0.00  0.00    +0.000 HD
ATOM     41  H   UNL     1      -9.506  -5.515  19.411  0.00  0.00    +0.000 HD
BRANCH  39  42
ATOM     42  C   UNL     1      -9.032  -6.300  17.471  0.00  0.00    +0.000 C 
ATOM     43  H   UNL     1      -8.238  -6.793  18.046  0.00  0.00    +0.000 HD
ATOM     44  H   UNL     1      -8.557  -5.499  16.889  0.00  0.00    +0.000 HD
BRANCH  42  45
ATOM     45  N   UNL     1      -9.615  -7.256  16.491  0.00  0.00    +0.000 NA
ATOM     46  C   UNL     1      -8.522  -7.986  15.861  0.00  0.00    +0.000 C 
ATOM     47  C   UNL     1      -9.015  -9.009  14.846  0.00  0.00    +0.000 C 
ATOM     48  C   UNL     1      -9.989 -10.006  15.484  0.00  0.00    +0.000 C 
ATOM     49  C   UNL     1     -11.118  -9.225  16.155  0.00  0.00    +0.000 C 
ATOM     50  C   UNL     1     -10.594  -8.167  17.131  0.00  0.00    +0.000 C 
ATOM     51  H   UNL     1      -7.896  -8.489  16.614  0.00  0.00    +0.000 HD
ATOM     52  H   UNL     1      -7.869  -7.279  15.327  0.00  0.00    +0.000 HD
ATOM     53  H   UNL     1      -8.159  -9.526  14.403  0.00  0.00    +0.000 HD
ATOM     54  H   UNL     1      -9.516  -8.498  14.017  0.00  0.00    +0.000 HD
ATOM     55  H   UNL     1     -10.423 -10.639  14.699  0.00  0.00    +0.000 HD
ATOM     56  H   UNL     1     -11.794  -9.901  16.690  0.00  0.00    +0.000 HD
ATOM     57  H   UNL     1     -11.719  -8.728  15.382  0.00  0.00    +0.000 HD
ATOM     58  H   UNL     1     -10.153  -8.641  18.012  0.00  0.00    +0.000 HD
ATOM     59  H   UNL     1     -11.464  -7.599  17.468  0.00  0.00    +0.000 HD
BRANCH  48  60
ATOM     60  C   UNL     1      -9.304 -10.954  16.466  0.00  0.00    +0.000 C 
ATOM     61  N   UNL     1      -8.453 -11.861  15.909  0.00  0.00    +0.000 N 
ATOM     62  O   UNL     1      -9.495 -10.959  17.676  0.00  0.00    +0.000 OA
ATOM     63  H   UNL     1      -8.431 -12.051  14.918  0.00  0.00    +0.000 HD
ATOM     64  H   UNL     1      -8.046 -12.547  16.535  0.00  0.00    +0.000 HD
ENDBRANCH  48  60
ENDBRANCH  42  45
ENDBRANCH  39  42
ENDBRANCH  11  39
TORSDOF 5
ENDMDL
MODEL 5
REMARK VINA RESULT:    -9.729      2.420      5.515
REMARK INTER + INTRA:         -12.588
REMARK INTER:                 -11.792
REMARK INTRA:                  -0.796
REMARK UNBOUND:                -0.300
REMARK  Name = 
REMARK  5 active torsions:
REMARK  status: ('A' for Active; 'I' for Inactive)
REMARK    1  A    between atoms: C_1  and  N_2
REMARK    2  A    between atoms: C_12  and  C_13
REMARK    3  A    between atoms: C_13  and  C_14
REMARK    4  A    between atoms: C_14  and  N_15
REMARK    5  A    between atoms: C_18  and  C_19
REMARK                            x       y       z     vdW  Elec       q    Type
REMARK                         _______ _______ _______ _____ _____    ______ ____
ROOT
ATOM      1  N   UNL     1     -12.733  -0.040  15.643  0.00  0.00    +0.000 N 
ATOM      2  C   UNL     1     -13.350  -0.591  14.495  0.00  0.00    +0.000 A 
ATOM      3  C   UNL     1     -12.248  -0.955  13.742  0.00  0.00    +0.000 A 
ATOM      4  C   UNL     1     -11.552  -1.663  14.765  0.00  0.00    +0.000 A 
ATOM      5  C   UNL     1     -10.961  -2.931  14.800  0.00  0.00    +0.000 A 
ATOM      6  C   UNL     1     -10.492  -3.401  16.021  0.00  0.00    +0.000 A 
ATOM      7  C   UNL     1     -10.454  -2.551  17.136  0.00  0.00    +0.000 A 
ATOM      8  C   UNL     1      -9.932  -3.008  18.358  0.00  0.00    +0.000 A 
ATOM      9  N   UNL     1      -9.218  -4.137  18.664  0.00  0.00    +0.000 N 
ATOM     10  C   UNL     1      -8.481  -3.938  19.819  0.00  0.00    +0.000 A 
ATOM     11  C   UNL     1      -7.405  -4.707  20.295  0.00  0.00    +0.000 A 
ATOM     12  C   UNL     1      -6.758  -4.203  21.432  0.00  0.00    +0.000 A 
ATOM     13  C   UNL     1      -7.210  -3.060  22.087  0.00  0.00    +0.000 A 
ATOM     14  C   UNL     1      -8.319  -2.352  21.614  0.00  0.00    +0.000 A 
ATOM     15  C   UNL     1      -8.957  -2.771  20.435  0.00  0.00    +0.000 A 
ATOM     16  C   UNL     1      -9.928  -2.297  19.531  0.00  0.00    +0.000 A 
ATOM     17  C   UNL     1     -10.322  -0.923  19.511  0.00  0.00    +0.000 A 
ATOM     18  C   UNL     1     -10.461  -0.432  18.179  0.00  0.00    +0.000 A 
ATOM     19  C   UNL     1     -10.873  -1.199  17.080  0.00  0.00    +0.000 A 
ATOM     20  C   UNL     1     -11.635  -0.865  15.932  0.00  0.00    +0.000 A 
ATOM     21  C   UNL     1      -9.379   0.567  18.169  0.00  0.00    +0.000 C 
ATOM     22  O   UNL     1      -8.515   0.826  17.334  0.00  0.00    +0.000 OA
ATOM     23  N   UNL     1      -9.254   0.949  19.489  0.00  0.00    +0.000 N 
ATOM     24  C   UNL     1      -9.884   0.131  20.378  0.00  0.00    +0.000 C 
ATOM     25  O   UNL     1      -9.976   0.329  21.575  0.00  0.00    +0.000 OA
ATOM     26  H   UNL     1     -14.242  -1.181  14.708  0.00  0.00    +0.000 HD
ATOM     27  H   UNL     1     -11.730  -0.163  13.200  0.00  0.00    +0.000 HD
ATOM     28  H   UNL     1     -10.990  -3.573  13.927  0.00  0.00    +0.000 HD
ATOM     29  H   UNL     1     -10.158  -4.430  16.076  0.00  0.00    +0.000 HD
ATOM     30  H   UNL     1      -9.017  -4.858  17.987  0.00  0.00    +0.000 HD
ATOM     31  H   UNL     1      -5.874  -4.696  21.829  0.00  0.00    +0.000 HD
ATOM     32  H   UNL     1      -6.684  -2.702  22.970  0.00  0.00    +0.000 HD
ATOM     33  H   UNL     1      -8.622  -1.463  22.154  0.00  0.00    +0.000 HD
ATOM     34  H   UNL     1      -8.422   1.424  19.812  0.00  0.00    +0.000 HD
ENDROOT
BRANCH   1  35
ATOM     35  C   UNL     1     -13.549   0.753  16.536  0.00  0.00    +0.000 C 
ATOM     36  H   UNL     1     -12.896   1.386  17.134  0.00  0.00    +0.000 HD
ATOM     37  H   UNL     1     -14.183   0.100  17.136  0.00  0.00    +0.000 HD
ATOM     38  H   UNL     1     -14.191   1.399  15.918  0.00  0.00    +0.000 HD
ENDBRANCH   1  35
BRANCH  11  39
ATOM     39  C   UNL     1      -6.932  -5.943  19.552  0.00  0.00    +0.000 C 
ATOM     40  H   UNL     1      -6.005  -6.302  20.018  0.00  0.00    +0.000 HD
ATOM     41  H   UNL     1      -6.676  -5.621  18.537  0.00  0.00    +0.000 HD
BRANCH  39  42
ATOM     42  C   UNL     1      -7.956  -7.080  19.451  0.00  0.00    +0.000 C 
ATOM     43  H   UNL     1      -8.512  -7.139  20.396  0.00  0.00    +0.000 HD
ATOM     44  H   UNL     1      -7.401  -8.022  19.347  0.00  0.00    +0.000 HD
BRANCH  42  45
ATOM     45  N   UNL     1      -8.907  -7.012  18.308  0.00  0.00    +0.000 NA
ATOM     46  C   UNL     1      -8.132  -6.984  17.073  0.00  0.00    +0.000 C 
ATOM     47  C   UNL     1      -9.016  -6.931  15.834  0.00  0.00    +0.000 C 
ATOM     48  C   UNL     1      -9.995  -8.109  15.793  0.00  0.00    +0.000 C 
ATOM     49  C   UNL     1     -10.784  -8.135  17.100  0.00  0.00    +0.000 C 
ATOM     50  C   UNL     1      -9.873  -8.135  18.331  0.00  0.00    +0.000 C 
ATOM     51  H   UNL     1      -7.461  -7.854  17.007  0.00  0.00    +0.000 HD
ATOM     52  H   UNL     1      -7.493  -6.088  17.061  0.00  0.00    +0.000 HD
ATOM     53  H   UNL     1      -8.389  -6.910  14.938  0.00  0.00    +0.000 HD
ATOM     54  H   UNL     1      -9.583  -5.993  15.822  0.00  0.00    +0.000 HD
ATOM     55  H   UNL     1     -10.700  -7.965  14.963  0.00  0.00    +0.000 HD
ATOM     56  H   UNL     1     -11.441  -9.012  17.142  0.00  0.00    +0.000 HD
ATOM     57  H   UNL     1     -11.437  -7.253  17.142  0.00  0.00    +0.000 HD
ATOM     58  H   UNL     1      -9.346  -9.089  18.420  0.00  0.00    +0.000 HD
ATOM     59  H   UNL     1     -10.528  -8.043  19.201  0.00  0.00    +0.000 HD
BRANCH  48  60
ATOM     60  C   UNL     1      -9.299  -9.444  15.533  0.00  0.00    +0.000 C 
ATOM     61  N   UNL     1      -8.727  -9.578  14.304  0.00  0.00    +0.000 N 
ATOM     62  O   UNL     1      -9.257 -10.374  16.331  0.00  0.00    +0.000 OA
ATOM     63  H   UNL     1      -8.924  -8.948  13.539  0.00  0.00    +0.000 HD
ATOM     64  H   UNL     1      -8.326 -10.483  14.085  0.00  0.00    +0.000 HD
ENDBRANCH  48  60
ENDBRANCH  42  45
ENDBRANCH  39  42
ENDBRANCH  11  39
TORSDOF 5
ENDMDL
MODEL 6
REMARK VINA RESULT:    -9.517      2.462      3.224
REMARK INTER + INTRA:         -12.320
REMARK INTER:                 -11.661
REMARK INTRA:                  -0.659
REMARK UNBOUND:                -0.300
REMARK  Name = 
REMARK  5 active torsions:
REMARK  status: ('A' for Active; 'I' for Inactive)
REMARK    1  A    between atoms: C_1  and  N_2
REMARK    2  A    between atoms: C_12  and  C_13
REMARK    3  A    between atoms: C_13  and  C_14
REMARK    4  A    between atoms: C_14  and  N_15
REMARK    5  A    between atoms: C_18  and  C_19
REMARK                            x       y       z     vdW  Elec       q    Type
REMARK                         _______ _______ _______ _____ _____    ______ ____
ROOT
ATOM      1  N   UNL     1      -9.615   1.225  24.027  0.00  0.00    +0.000 N 
ATOM      2  C   UNL     1      -8.529   0.726  24.785  0.00  0.00    +0.000 A 
ATOM      3  C   UNL     1      -8.890  -0.602  24.936  0.00  0.00    +0.000 A 
ATOM      4  C   UNL     1      -9.176  -0.871  23.566  0.00  0.00    +0.000 A 
ATOM      5  C   UNL     1      -8.775  -1.897  22.704  0.00  0.00    +0.000 A 
ATOM      6  C   UNL     1      -9.103  -1.786  21.357  0.00  0.00    +0.000 A 
ATOM      7  C   UNL     1      -9.964  -0.767  20.923  0.00  0.00    +0.000 A 
ATOM      8  C   UNL     1     -10.339  -0.685  19.571  0.00  0.00    +0.000 A 
ATOM      9  N   UNL     1     -10.184  -1.573  18.540  0.00  0.00    +0.000 N 
ATOM     10  C   UNL     1     -11.125  -1.331  17.555  0.00  0.00    +0.000 A 
ATOM     11  C   UNL     1     -11.508  -2.181  16.503  0.00  0.00    +0.000 A 
ATOM     12  C   UNL     1     -12.581  -1.733  15.721  0.00  0.00    +0.000 A 
ATOM     13  C   UNL     1     -13.169  -0.488  15.929  0.00  0.00    +0.000 A 
ATOM     14  C   UNL     1     -12.726   0.355  16.953  0.00  0.00    +0.000 A 
ATOM     15  C   UNL     1     -11.704  -0.079  17.813  0.00  0.00    +0.000 A 
ATOM     16  C   UNL     1     -11.098   0.317  19.021  0.00  0.00    +0.000 A 
ATOM     17  C   UNL     1     -11.713   1.276  19.886  0.00  0.00    +0.000 A 
ATOM     18  C   UNL     1     -11.606   0.896  21.257  0.00  0.00    +0.000 A 
ATOM     19  C   UNL     1     -10.537   0.177  21.809  0.00  0.00    +0.000 A 
ATOM     20  C   UNL     1      -9.929   0.230  23.089  0.00  0.00    +0.000 A 
ATOM     21  C   UNL     1     -13.031   0.690  21.569  0.00  0.00    +0.000 C 
ATOM     22  O   UNL     1     -13.610  -0.203  22.184  0.00  0.00    +0.000 OA
ATOM     23  N   UNL     1     -13.697   1.522  20.692  0.00  0.00    +0.000 N 
ATOM     24  C   UNL     1     -12.931   2.000  19.672  0.00  0.00    +0.000 C 
ATOM     25  O   UNL     1     -13.292   2.814  18.843  0.00  0.00    +0.000 OA
ATOM     26  H   UNL     1      -7.559   1.128  24.493  0.00  0.00    +0.000 HD
ATOM     27  H   UNL     1      -9.645  -0.830  25.689  0.00  0.00    +0.000 HD
ATOM     28  H   UNL     1      -8.117  -2.684  23.055  0.00  0.00    +0.000 HD
ATOM     29  H   UNL     1      -8.681  -2.508  20.668  0.00  0.00    +0.000 HD
ATOM     30  H   UNL     1      -9.687  -2.446  18.639  0.00  0.00    +0.000 HD
ATOM     31  H   UNL     1     -12.987  -2.356  14.928  0.00  0.00    +0.000 HD
ATOM     32  H   UNL     1     -13.998  -0.171  15.298  0.00  0.00    +0.000 HD
ATOM     33  H   UNL     1     -13.226   1.308  17.080  0.00  0.00    +0.000 HD
ATOM     34  H   UNL     1     -14.682   1.390  20.505  0.00  0.00    +0.000 HD
ENDROOT
BRANCH   1  35
ATOM     35  C   UNL     1      -9.774   2.660  23.935  0.00  0.00    +0.000 C 
ATOM     36  H   UNL     1     -10.776   2.876  23.569  0.00  0.00    +0.000 HD
ATOM     37  H   UNL     1      -8.986   3.080  23.310  0.00  0.00    +0.000 HD
ATOM     38  H   UNL     1      -9.678   3.073  24.951  0.00  0.00    +0.000 HD
ENDBRANCH   1  35
BRANCH  11  39
ATOM     39  C   UNL     1     -10.851  -3.536  16.308  0.00  0.00    +0.000 C 
ATOM     40  H   UNL     1      -9.874  -3.530  16.808  0.00  0.00    +0.000 HD
ATOM     41  H   UNL     1     -10.661  -3.642  15.234  0.00  0.00    +0.000 HD
BRANCH  39  42
ATOM     42  C   UNL     1     -11.682  -4.740  16.770  0.00  0.00    +0.000 C 
ATOM     43  H   UNL     1     -12.485  -4.914  16.041  0.00  0.00    +0.000 HD
ATOM     44  H   UNL     1     -12.162  -4.470  17.719  0.00  0.00    +0.000 HD
BRANCH  42  45
ATOM     45  N   UNL     1     -10.934  -6.004  17.009  0.00  0.00    +0.000 NA
ATOM     46  C   UNL     1      -9.594  -5.852  16.454  0.00  0.00    +0.000 C 
ATOM     47  C   UNL     1      -8.735  -7.093  16.662  0.00  0.00    +0.000 C 
ATOM     48  C   UNL     1      -8.631  -7.460  18.147  0.00  0.00    +0.000 C 
ATOM     49  C   UNL     1     -10.042  -7.597  18.716  0.00  0.00    +0.000 C 
ATOM     50  C   UNL     1     -10.901  -6.357  18.448  0.00  0.00    +0.000 C 
ATOM     51  H   UNL     1      -9.084  -4.977  16.885  0.00  0.00    +0.000 HD
ATOM     52  H   UNL     1      -9.663  -5.677  15.370  0.00  0.00    +0.000 HD
ATOM     53  H   UNL     1      -7.745  -6.929  16.228  0.00  0.00    +0.000 HD
ATOM     54  H   UNL     1      -9.164  -7.938  16.113  0.00  0.00    +0.000 HD
ATOM     55  H   UNL     1      -8.121  -8.427  18.245  0.00  0.00    +0.000 HD
ATOM     56  H   UNL     1     -10.010  -7.782  19.796  0.00  0.00    +0.000 HD
ATOM     57  H   UNL     1     -10.528  -8.471  18.263  0.00  0.00    +0.000 HD
ATOM     58  H   UNL     1     -10.549  -5.509  19.040  0.00  0.00    +0.000 HD
ATOM     59  H   UNL     1     -11.909  -6.600  18.793  0.00  0.00    +0.000 HD
BRANCH  48  60
ATOM     60  C   UNL     1      -7.801  -6.457  18.944  0.00  0.00    +0.000 C 
ATOM     61  N   UNL     1      -6.731  -5.926  18.288  0.00  0.00    +0.000 N 
ATOM     62  O   UNL     1      -8.020  -6.141  20.108  0.00  0.00    +0.000 OA
ATOM     63  H   UNL     1      -6.374  -6.313  17.426  0.00  0.00    +0.000 HD
ATOM     64  H   UNL     1      -6.125  -5.316  18.824  0.00  0.00    +0.000 HD
ENDBRANCH  48  60
ENDBRANCH  42  45
ENDBRANCH  39  42
ENDBRANCH  11  39
TORSDOF 5
ENDMDL
MODEL 7
REMARK VINA RESULT:    -9.336      2.484      8.968
REMARK INTER + INTRA:         -12.092
REMARK INTER:                 -11.629
REMARK INTRA:                  -0.464
REMARK UNBOUND:                -0.300
REMARK  Name = 
REMARK  5 active torsions:
REMARK  status: ('A' for Active; 'I' for Inactive)
REMARK    1  A    between atoms: C_1  and  N_2
REMARK    2  A    between atoms: C_12  and  C_13
REMARK    3  A    between atoms: C_13  and  C_14
REMARK    4  A    between atoms: C_14  and  N_15
REMARK    5  A    between atoms: C_18  and  C_19
REMARK                            x       y       z     vdW  Elec       q    Type
REMARK                         _______ _______ _______ _____ _____    ______ ____
ROOT
ATOM      1  N   UNL     1     -10.041  -9.484  16.443  0.00  0.00    +0.000 N 
ATOM      2  C   UNL     1      -9.727 -10.502  17.373  0.00  0.00    +0.000 A 
ATOM      3  C   UNL     1      -8.549 -10.019  17.918  0.00  0.00    +0.000 A 
ATOM      4  C   UNL     1      -9.010  -8.703  18.211  0.00  0.00    +0.000 A 
ATOM      5  C   UNL     1      -8.945  -7.916  19.366  0.00  0.00    +0.000 A 
ATOM      6  C   UNL     1      -9.642  -6.713  19.380  0.00  0.00    +0.000 A 
ATOM      7  C   UNL     1     -10.237  -6.231  18.205  0.00  0.00    +0.000 A 
ATOM      8  C   UNL     1     -10.897  -4.990  18.204  0.00  0.00    +0.000 A 
ATOM      9  N   UNL     1     -10.919  -3.983  19.132  0.00  0.00    +0.000 N 
ATOM     10  C   UNL     1     -11.242  -2.781  18.526  0.00  0.00    +0.000 A 
ATOM     11  C   UNL     1     -11.072  -1.484  19.041  0.00  0.00    +0.000 A 
ATOM     12  C   UNL     1     -11.370  -0.437  18.158  0.00  0.00    +0.000 A 
ATOM     13  C   UNL     1     -11.879  -0.676  16.884  0.00  0.00    +0.000 A 
ATOM     14  C   UNL     1     -12.086  -1.980  16.425  0.00  0.00    +0.000 A 
ATOM     15  C   UNL     1     -11.732  -3.066  17.242  0.00  0.00    +0.000 A 
ATOM     16  C   UNL     1     -11.589  -4.464  17.142  0.00  0.00    +0.000 A 
ATOM     17  C   UNL     1     -11.514  -5.118  15.873  0.00  0.00    +0.000 A 
ATOM     18  C   UNL     1     -10.519  -6.140  15.862  0.00  0.00    +0.000 A 
ATOM     19  C   UNL     1     -10.157  -6.919  16.970  0.00  0.00    +0.000 A 
ATOM     20  C   UNL     1      -9.734  -8.269  17.073  0.00  0.00    +0.000 A 
ATOM     21  C   UNL     1      -9.587  -5.567  14.876  0.00  0.00    +0.000 C 
ATOM     22  O   UNL     1      -8.361  -5.470  14.872  0.00  0.00    +0.000 OA
ATOM     23  N   UNL     1     -10.383  -4.780  14.069  0.00  0.00    +0.000 N 
ATOM     24  C   UNL     1     -11.625  -4.529  14.571  0.00  0.00    +0.000 C 
ATOM     25  O   UNL     1     -12.512  -3.935  13.988  0.00  0.00    +0.000 OA
ATOM     26  H   UNL     1     -10.591 -10.910  17.898  0.00  0.00    +0.000 HD
ATOM     27  H   UNL     1      -7.640 -10.143  17.330  0.00  0.00    +0.000 HD
ATOM     28  H   UNL     1      -8.473  -8.298  20.265  0.00  0.00    +0.000 HD
ATOM     29  H   UNL     1      -9.702  -6.169  20.315  0.00  0.00    +0.000 HD
ATOM     30  H   UNL     1     -10.460  -4.053  20.027  0.00  0.00    +0.000 HD
ATOM     31  H   UNL     1     -11.203   0.597  18.449  0.00  0.00    +0.000 HD
ATOM     32  H   UNL     1     -12.103   0.163  16.227  0.00  0.00    +0.000 HD
ATOM     33  H   UNL     1     -12.472  -2.111  15.421  0.00  0.00    +0.000 HD
ATOM     34  H   UNL     1      -9.974  -4.070  13.477  0.00  0.00    +0.000 HD
ENDROOT
BRANCH   1  35
ATOM     35  C   UNL     1     -11.037  -9.771  15.435  0.00  0.00    +0.000 C 
ATOM     36  H   UNL     1     -11.163  -8.890  14.809  0.00  0.00    +0.000 HD
ATOM     37  H   UNL     1     -11.962 -10.098  15.911  0.00  0.00    +0.000 HD
ATOM     38  H   UNL     1     -10.653 -10.591  14.809  0.00  0.00    +0.000 HD
ENDBRANCH   1  35
BRANCH  11  39
ATOM     39  C   UNL     1     -10.507  -1.259  20.432  0.00  0.00    +0.000 C 
ATOM     40  H   UNL     1      -9.659  -0.567  20.361  0.00  0.00    +0.000 HD
ATOM     41  H   UNL     1     -10.109  -2.222  20.769  0.00  0.00    +0.000 HD
BRANCH  39  42
ATOM     42  C   UNL     1     -11.515  -0.764  21.477  0.00  0.00    +0.000 C 
ATOM     43  H   UNL     1     -12.471  -1.280  21.317  0.00  0.00    +0.000 HD
ATOM     44  H   UNL     1     -11.692   0.304  21.292  0.00  0.00    +0.000 HD
BRANCH  42  45
ATOM     45  N   UNL     1     -11.104  -0.891  22.902  0.00  0.00    +0.000 NA
ATOM     46  C   UNL     1     -11.263  -2.285  23.299  0.00  0.00    +0.000 C 
ATOM     47  C   UNL     1     -10.850  -2.528  24.745  0.00  0.00    +0.000 C 
ATOM     48  C   UNL     1      -9.403  -2.091  24.995  0.00  0.00    +0.000 C 
ATOM     49  C   UNL     1      -9.249  -0.636  24.557  0.00  0.00    +0.000 C 
ATOM     50  C   UNL     1      -9.720  -0.408  23.117  0.00  0.00    +0.000 C 
ATOM     51  H   UNL     1     -10.690  -2.953  22.637  0.00  0.00    +0.000 HD
ATOM     52  H   UNL     1     -12.320  -2.575  23.204  0.00  0.00    +0.000 HD
ATOM     53  H   UNL     1     -10.990  -3.584  24.992  0.00  0.00    +0.000 HD
ATOM     54  H   UNL     1     -11.514  -1.975  25.418  0.00  0.00    +0.000 HD
ATOM     55  H   UNL     1      -9.187  -2.156  26.070  0.00  0.00    +0.000 HD
ATOM     56  H   UNL     1      -8.206  -0.310  24.648  0.00  0.00    +0.000 HD
ATOM     57  H   UNL     1      -9.836   0.005  25.228  0.00  0.00    +0.000 HD
ATOM     58  H   UNL     1      -9.036  -0.883  22.409  0.00  0.00    +0.000 HD
ATOM     59  H   UNL     1      -9.671   0.670  22.943  0.00  0.00    +0.000 HD
BRANCH  48  60
ATOM     60  C   UNL     1      -8.386  -2.995  24.301  0.00  0.00    +0.000 C 
ATOM     61  N   UNL     1      -8.351  -4.285  24.739  0.00  0.00    +0.000 N 
ATOM     62  O   UNL     1      -7.611  -2.627  23.426  0.00  0.00    +0.000 OA
ATOM     63  H   UNL     1      -8.796  -4.581  25.597  0.00  0.00    +0.000 HD
ATOM     64  H   UNL     1      -7.633  -4.880  24.344  0.00  0.00    +0.000 HD
ENDBRANCH  48  60
ENDBRANCH  42  45
ENDBRANCH  39  42
ENDBRANCH  11  39
TORSDOF 5
ENDMDL
MODEL 8
REMARK VINA RESULT:    -9.257      2.941      5.288
REMARK INTER + INTRA:         -11.992
REMARK INTER:                 -11.670
REMARK INTRA:                  -0.322
REMARK UNBOUND:                -0.300
REMARK  Name = 
REMARK  5 active torsions:
REMARK  status: ('A' for Active; 'I' for Inactive)
REMARK    1  A    between atoms: C_1  and  N_2
REMARK    2  A    between atoms: C_12  and  C_13
REMARK    3  A    between atoms: C_13  and  C_14
REMARK    4  A    between atoms: C_14  and  N_15
REMARK    5  A    between atoms: C_18  and  C_19
REMARK                            x       y       z     vdW  Elec       q    Type
REMARK                         _______ _______ _______ _____ _____    ______ ____
ROOT
ATOM      1  N   UNL     1     -13.313   5.050  23.513  0.00  0.00    +0.000 N 
ATOM      2  C   UNL     1     -14.614   5.352  23.046  0.00  0.00    +0.000 A 
ATOM      3  C   UNL     1     -14.413   5.370  21.676  0.00  0.00    +0.000 A 
ATOM      4  C   UNL     1     -13.733   4.122  21.575  0.00  0.00    +0.000 A 
ATOM      5  C   UNL     1     -13.914   3.014  20.739  0.00  0.00    +0.000 A 
ATOM      6  C   UNL     1     -13.173   1.867  21.002  0.00  0.00    +0.000 A 
ATOM      7  C   UNL     1     -12.151   1.893  21.962  0.00  0.00    +0.000 A 
ATOM      8  C   UNL     1     -11.366   0.751  22.191  0.00  0.00    +0.000 A 
ATOM      9  N   UNL     1     -11.253  -0.419  21.487  0.00  0.00    +0.000 N 
ATOM     10  C   UNL     1     -10.035  -1.021  21.752  0.00  0.00    +0.000 A 
ATOM     11  C   UNL     1      -9.403  -2.043  21.023  0.00  0.00    +0.000 A 
ATOM     12  C   UNL     1      -8.110  -2.379  21.446  0.00  0.00    +0.000 A 
ATOM     13  C   UNL     1      -7.530  -1.791  22.567  0.00  0.00    +0.000 A 
ATOM     14  C   UNL     1      -8.211  -0.816  23.301  0.00  0.00    +0.000 A 
ATOM     15  C   UNL     1      -9.479  -0.388  22.875  0.00  0.00    +0.000 A 
ATOM     16  C   UNL     1     -10.404   0.635  23.163  0.00  0.00    +0.000 A 
ATOM     17  C   UNL     1     -10.025   1.797  23.906  0.00  0.00    +0.000 A 
ATOM     18  C   UNL     1     -10.582   2.986  23.349  0.00  0.00    +0.000 A 
ATOM     19  C   UNL     1     -11.818   3.061  22.692  0.00  0.00    +0.000 A 
ATOM     20  C   UNL     1     -12.792   4.090  22.633  0.00  0.00    +0.000 A 
ATOM     21  C   UNL     1      -9.345   3.666  22.928  0.00  0.00    +0.000 C 
ATOM     22  O   UNL     1      -9.053   4.261  21.893  0.00  0.00    +0.000 OA
ATOM     23  N   UNL     1      -8.381   3.187  23.791  0.00  0.00    +0.000 N 
ATOM     24  C   UNL     1      -8.753   2.085  24.501  0.00  0.00    +0.000 C 
ATOM     25  O   UNL     1      -8.094   1.556  25.375  0.00  0.00    +0.000 OA
ATOM     26  H   UNL     1     -15.413   4.858  23.600  0.00  0.00    +0.000 HD
ATOM     27  H   UNL     1     -13.951   6.261  21.252  0.00  0.00    +0.000 HD
ATOM     28  H   UNL     1     -14.703   3.011  19.996  0.00  0.00    +0.000 HD
ATOM     29  H   UNL     1     -13.409   0.969  20.443  0.00  0.00    +0.000 HD
ATOM     30  H   UNL     1     -11.815  -0.625  20.675  0.00  0.00    +0.000 HD
ATOM     31  H   UNL     1      -7.521  -3.111  20.899  0.00  0.00    +0.000 HD
ATOM     32  H   UNL     1      -6.525  -2.081  22.869  0.00  0.00    +0.000 HD
ATOM     33  H   UNL     1      -7.710  -0.381  24.158  0.00  0.00    +0.000 HD
ATOM     34  H   UNL     1      -7.399   3.282  23.570  0.00  0.00    +0.000 HD
ENDROOT
BRANCH   1  35
ATOM     35  C   UNL     1     -13.032   5.262  24.916  0.00  0.00    +0.000 C 
ATOM     36  H   UNL     1     -13.028   4.296  25.420  0.00  0.00    +0.000 HD
ATOM     37  H   UNL     1     -13.753   5.963  25.336  0.00  0.00    +0.000 HD
ATOM     38  H   UNL     1     -12.025   5.700  24.994  0.00  0.00    +0.000 HD
ENDBRANCH   1  35
BRANCH  11  39
ATOM     39  C   UNL     1     -10.060  -2.657  19.800  0.00  0.00    +0.000 C 
ATOM     40  H   UNL     1     -10.473  -1.852  19.179  0.00  0.00    +0.000 HD
ATOM     41  H   UNL     1     -10.908  -3.249  20.162  0.00  0.00    +0.000 HD
BRANCH  39  42
ATOM     42  C   UNL     1      -9.159  -3.572  18.961  0.00  0.00    +0.000 C 
ATOM     43  H   UNL     1      -8.111  -3.313  19.159  0.00  0.00    +0.000 HD
ATOM     44  H   UNL     1      -9.350  -3.350  17.902  0.00  0.00    +0.000 HD
BRANCH  42  45
ATOM     45  N   UNL     1      -9.360  -5.036  19.137  0.00  0.00    +0.000 NA
ATOM     46  C   UNL     1     -10.569  -5.419  18.419  0.00  0.00    +0.000 C 
ATOM     47  C   UNL     1     -10.858  -6.911  18.522  0.00  0.00    +0.000 C 
ATOM     48  C   UNL     1      -9.680  -7.747  18.011  0.00  0.00    +0.000 C 
ATOM     49  C   UNL     1      -8.418  -7.321  18.760  0.00  0.00    +0.000 C 
ATOM     50  C   UNL     1      -8.179  -5.809  18.685  0.00  0.00    +0.000 C 
ATOM     51  H   UNL     1     -10.509  -5.130  17.359  0.00  0.00    +0.000 HD
ATOM     52  H   UNL     1     -11.433  -4.886  18.845  0.00  0.00    +0.000 HD
ATOM     53  H   UNL     1     -11.774  -7.145  17.971  0.00  0.00    +0.000 HD
ATOM     54  H   UNL     1     -11.063  -7.178  19.564  0.00  0.00    +0.000 HD
ATOM     55  H   UNL     1      -9.869  -8.807  18.225  0.00  0.00    +0.000 HD
ATOM     56  H   UNL     1      -7.537  -7.841  18.367  0.00  0.00    +0.000 HD
ATOM     57  H   UNL     1      -8.510  -7.614  19.814  0.00  0.00    +0.000 HD
ATOM     58  H   UNL     1      -7.896  -5.514  17.671  0.00  0.00    +0.000 HD
ATOM     59  H   UNL     1      -7.326  -5.599  19.335  0.00  0.00    +0.000 HD
BRANCH  48  60
ATOM     60  C   UNL     1      -9.495  -7.642  16.499  0.00  0.00    +0.000 C 
ATOM     61  N   UNL     1     -10.629  -7.789  15.758  0.00  0.00    +0.000 N 
ATOM     62  O   UNL     1      -8.418  -7.471  15.939  0.00  0.00    +0.000 OA
ATOM     63  H   UNL     1     -11.488  -8.154  16.143  0.00  0.00    +0.000 HD
ATOM     64  H   UNL     1     -10.516  -7.799  14.750  0.00  0.00    +0.000 HD
ENDBRANCH  48  60
ENDBRANCH  42  45
ENDBRANCH  39  42
ENDBRANCH  11  39
TORSDOF 5
ENDMDL
MODEL 9
REMARK VINA RESULT:    -8.927      2.915      6.291
REMARK INTER + INTRA:         -11.575
REMARK INTER:                 -10.489
REMARK INTRA:                  -1.086
REMARK UNBOUND:                -0.300
REMARK  Name = 
REMARK  5 active torsions:
REMARK  status: ('A' for Active; 'I' for Inactive)
REMARK    1  A    between atoms: C_1  and  N_2
REMARK    2  A    between atoms: C_12  and  C_13
REMARK    3  A    between atoms: C_13  and  C_14
REMARK    4  A    between atoms: C_14  and  N_15
REMARK    5  A    between atoms: C_18  and  C_19
REMARK                            x       y       z     vdW  Elec       q    Type
REMARK                         _______ _______ _______ _____ _____    ______ ____
ROOT
ATOM      1  N   UNL     1     -12.159  -1.284  14.054  0.00  0.00    +0.000 N 
ATOM      2  C   UNL     1     -12.652  -2.258  13.155  0.00  0.00    +0.000 A 
ATOM      3  C   UNL     1     -11.496  -2.955  12.848  0.00  0.00    +0.000 A 
ATOM      4  C   UNL     1     -11.051  -3.168  14.185  0.00  0.00    +0.000 A 
ATOM      5  C   UNL     1     -10.620  -4.313  14.864  0.00  0.00    +0.000 A 
ATOM      6  C   UNL     1     -10.400  -4.218  16.234  0.00  0.00    +0.000 A 
ATOM      7  C   UNL     1     -10.437  -2.968  16.869  0.00  0.00    +0.000 A 
ATOM      8  C   UNL     1     -10.162  -2.863  18.243  0.00  0.00    +0.000 A 
ATOM      9  N   UNL     1      -9.638  -3.769  19.127  0.00  0.00    +0.000 N 
ATOM     10  C   UNL     1      -9.068  -3.111  20.203  0.00  0.00    +0.000 A 
ATOM     11  C   UNL     1      -8.172  -3.632  21.153  0.00  0.00    +0.000 A 
ATOM     12  C   UNL     1      -7.653  -2.705  22.068  0.00  0.00    +0.000 A 
ATOM     13  C   UNL     1      -8.067  -1.376  22.079  0.00  0.00    +0.000 A 
ATOM     14  C   UNL     1      -9.003  -0.906  21.152  0.00  0.00    +0.000 A 
ATOM     15  C   UNL     1      -9.497  -1.776  20.165  0.00  0.00    +0.000 A 
ATOM     16  C   UNL     1     -10.258  -1.711  18.982  0.00  0.00    +0.000 A 
ATOM     17  C   UNL     1     -10.485  -0.471  18.307  0.00  0.00    +0.000 A 
ATOM     18  C   UNL     1     -10.362  -0.608  16.893  0.00  0.00    +0.000 A 
ATOM     19  C   UNL     1     -10.685  -1.763  16.167  0.00  0.00    +0.000 A 
ATOM     20  C   UNL     1     -11.220  -1.937  14.865  0.00  0.00    +0.000 A 
ATOM     21  C   UNL     1      -9.184   0.247  16.663  0.00  0.00    +0.000 C 
ATOM     22  O   UNL     1      -8.179   0.083  15.974  0.00  0.00    +0.000 OA
ATOM     23  N   UNL     1      -9.220   1.163  17.694  0.00  0.00    +0.000 N 
ATOM     24  C   UNL     1     -10.068   0.840  18.710  0.00  0.00    +0.000 C 
ATOM     25  O   UNL     1     -10.319   1.545  19.669  0.00  0.00    +0.000 OA
ATOM     26  H   UNL     1     -13.627  -2.664  13.427  0.00  0.00    +0.000 HD
ATOM     27  H   UNL     1     -10.815  -2.499  12.130  0.00  0.00    +0.000 HD
ATOM     28  H   UNL     1     -10.588  -5.272  14.359  0.00  0.00    +0.000 HD
ATOM     29  H   UNL     1     -10.197  -5.131  16.782  0.00  0.00    +0.000 HD
ATOM     30  H   UNL     1      -9.418  -4.719  18.870  0.00  0.00    +0.000 HD
ATOM     31  H   UNL     1      -6.902  -3.005  22.794  0.00  0.00    +0.000 HD
ATOM     32  H   UNL     1      -7.646  -0.686  22.808  0.00  0.00    +0.000 HD
ATOM     33  H   UNL     1      -9.282   0.140  21.196  0.00  0.00    +0.000 HD
ATOM     34  H   UNL     1      -8.399   1.701  17.934  0.00  0.00    +0.000 HD
ENDROOT
BRANCH   1  35
ATOM     35  C   UNL     1     -13.006  -0.151  14.356  0.00  0.00    +0.000 C 
ATOM     36  H   UNL     1     -13.843  -0.494  14.963  0.00  0.00    +0.000 HD
ATOM     37  H   UNL     1     -13.316   0.336  13.431  0.00  0.00    +0.000 HD
ATOM     38  H   UNL     1     -12.414   0.562  14.950  0.00  0.00    +0.000 HD
ENDBRANCH   1  35
BRANCH  11  39
ATOM     39  C   UNL     1      -7.735  -5.084  21.108  0.00  0.00    +0.000 C 
ATOM     40  H   UNL     1      -8.624  -5.723  21.175  0.00  0.00    +0.000 HD
ATOM     41  H   UNL     1      -7.142  -5.263  22.012  0.00  0.00    +0.000 HD
BRANCH  39  42
ATOM     42  C   UNL     1      -6.884  -5.476  19.892  0.00  0.00    +0.000 C 
ATOM     43  H   UNL     1      -5.844  -5.608  20.217  0.00  0.00    +0.000 HD
ATOM     44  H   UNL     1      -6.897  -4.632  19.190  0.00  0.00    +0.000 HD
BRANCH  42  45
ATOM     45  N   UNL     1      -7.333  -6.675  19.133  0.00  0.00    +0.000 NA
ATOM     46  C   UNL     1      -8.352  -7.358  19.920  0.00  0.00    +0.000 C 
ATOM     47  C   UNL     1      -8.893  -8.598  19.221  0.00  0.00    +0.000 C 
ATOM     48  C   UNL     1      -9.462  -8.258  17.839  0.00  0.00    +0.000 C 
ATOM     49  C   UNL     1      -8.389  -7.528  17.035  0.00  0.00    +0.000 C 
ATOM     50  C   UNL     1      -7.824  -6.316  17.782  0.00  0.00    +0.000 C 
ATOM     51  H   UNL     1      -9.185  -6.681  20.162  0.00  0.00    +0.000 HD
ATOM     52  H   UNL     1      -7.919  -7.682  20.879  0.00  0.00    +0.000 HD
ATOM     53  H   UNL     1      -9.650  -9.072  19.852  0.00  0.00    +0.000 HD
ATOM     54  H   UNL     1      -8.094  -9.339  19.108  0.00  0.00    +0.000 HD
ATOM     55  H   UNL     1      -9.717  -9.189  17.315  0.00  0.00    +0.000 HD
ATOM     56  H   UNL     1      -8.784  -7.198  16.067  0.00  0.00    +0.000 HD
ATOM     57  H   UNL     1      -7.568  -8.224  16.816  0.00  0.00    +0.000 HD
ATOM     58  H   UNL     1      -8.572  -5.521  17.848  0.00  0.00    +0.000 HD
ATOM     59  H   UNL     1      -6.999  -5.936  17.175  0.00  0.00    +0.000 HD
BRANCH  48  60
ATOM     60  C   UNL     1     -10.753  -7.446  17.918  0.00  0.00    +0.000 C 
ATOM     61  N   UNL     1     -11.737  -7.821  17.053  0.00  0.00    +0.000 N 
ATOM     62  O   UNL     1     -10.930  -6.492  18.667  0.00  0.00    +0.000 OA
ATOM     63  H   UNL     1     -11.569  -8.437  16.271  0.00  0.00    +0.000 HD
ATOM     64  H   UNL     1     -12.572  -7.247  17.037  0.00  0.00    +0.000 HD
ENDBRANCH  48  60
ENDBRANCH  42  45
ENDBRANCH  39  42
ENDBRANCH  11  39
TORSDOF 5
ENDMDL
