REMARK  Name = 
REMARK  17 active torsions:
REMARK  status: ('A' for Active; 'I' for Inactive)
REMARK    1  A    between atoms: N_4  and  C_5
REMARK    2  A    between atoms: C_5  and  C_6
REMARK    3  A    between atoms: C_6  and  C_7
REMARK    4  A    between atoms: C_7  and  C_8
REMARK    5  A    between atoms: C_8  and  N_9
REMARK    6  A    between atoms: C_8  and  C_10
REMARK    7  A    between atoms: N_12  and  C_13
REMARK    8  A    between atoms: C_13  and  C_14
REMARK    9  A    between atoms: C_14  and  N_15
REMARK   10  A    between atoms: N_15  and  C_16
REMARK   11  A    between atoms: C_16  and  C_17
REMARK   12  A    between atoms: C_17  and  C_18
REMARK   13  A    between atoms: C_18  and  C_19
REMARK   14  A    between atoms: C_19  and  C_20
REMARK   15  A    between atoms: C_20  and  N_21
REMARK   16  A    between atoms: N_21  and  C_22
REMARK   17  A    between atoms: C_23  and  C_24
REMARK                            x       y       z     vdW  Elec       q    Type
REMARK                         _______ _______ _______ _____ _____    ______ ____
ROOT
ATOM      1  C   UNL     1      -0.605  -1.535  -3.239  0.00  0.00    +0.000 C 
ATOM      2  H   UNL     1      -0.943  -1.329  -4.261  0.00  0.00    +0.000 HD
ATOM      3  H   UNL     1      -0.925  -2.546  -2.972  0.00  0.00    +0.000 HD
ENDROOT
BRANCH   1   4
ATOM      4  C   UNL     1       0.916  -1.522  -3.213  0.00  0.00    +0.000 C 
ATOM      5  H   UNL     1       1.252  -0.534  -3.542  0.00  0.00    +0.000 HD
ATOM      6  H   UNL     1       1.291  -2.247  -3.946  0.00  0.00    +0.000 HD
BRANCH   4   7
ATOM      7  C   UNL     1       1.480  -1.879  -1.834  0.00  0.00    +0.000 C 
ATOM      8  H   UNL     1       1.154  -2.886  -1.549  0.00  0.00    +0.000 HD
ATOM      9  H   UNL     1       1.074  -1.213  -1.066  0.00  0.00    +0.000 HD
BRANCH   7  10
ATOM     10  C   UNL     1       3.005  -1.807  -1.792  0.00  0.00    +0.000 C 
ATOM     11  H   UNL     1       3.421  -2.570  -2.461  0.00  0.00    +0.000 HD
ATOM     12  H   UNL     1       3.337  -2.058  -0.776  0.00  0.00    +0.000 HD
BRANCH  10  13
ATOM     13  C   UNL     1       3.558  -0.436  -2.182  0.00  0.00    +0.000 C 
ATOM     14  H   UNL     1       3.304  -0.192  -3.218  0.00  0.00    +0.000 HD
ATOM     15  H   UNL     1       4.654  -0.467  -2.142  0.00  0.00    +0.000 HD
BRANCH  13  16
ATOM     16  N   UNL     1       3.022   0.619  -1.302  0.00  0.00    +0.000 N 
ATOM     17  H   UNL     1       2.420   0.186  -0.595  0.00  0.00    +0.000 HD
BRANCH  16  18
ATOM     18  C   UNL     1       3.929   1.407  -0.609  0.00  0.00    +0.000 C 
ATOM     19  C   UNL     1       4.468   2.590  -0.907  0.00  0.00    +0.000 C 
ATOM     20  C   UNL     1       5.413   2.933   0.182  0.00  0.00    +0.000 C 
ATOM     21  O   UNL     1       6.132   3.915   0.249  0.00  0.00    +0.000 OA
ATOM     22  N   UNL     1       5.340   1.945   1.101  0.00  0.00    +0.000 N 
ATOM     23  C   UNL     1       4.455   1.003   0.725  0.00  0.00    +0.000 C 
ATOM     24  O   UNL     1       4.119   0.001   1.331  0.00  0.00    +0.000 OA
ATOM     25  H   UNL     1       5.858   1.934   1.963  0.00  0.00    +0.000 HD
BRANCH  19  26
ATOM     26  C   UNL     1       4.168   3.378  -2.036  0.00  0.00    +0.000 A 
ATOM     27  C   UNL     1       4.702   4.542  -2.553  0.00  0.00    +0.000 A 
ATOM     28  C   UNL     1       3.949   4.895  -3.707  0.00  0.00    +0.000 A 
ATOM     29  C   UNL     1       4.027   5.959  -4.622  0.00  0.00    +0.000 A 
ATOM     30  C   UNL     1       3.116   6.016  -5.683  0.00  0.00    +0.000 A 
ATOM     31  C   UNL     1       2.130   5.041  -5.825  0.00  0.00    +0.000 A 
ATOM     32  C   UNL     1       2.025   3.979  -4.921  0.00  0.00    +0.000 A 
ATOM     33  C   UNL     1       2.955   3.932  -3.871  0.00  0.00    +0.000 A 
ATOM     34  N   UNL     1       3.110   3.032  -2.848  0.00  0.00    +0.000 N 
ATOM     35  H   UNL     1       5.536   5.085  -2.142  0.00  0.00    +0.000 HD
ATOM     36  H   UNL     1       4.786   6.723  -4.505  0.00  0.00    +0.000 HD
ATOM     37  H   UNL     1       3.181   6.832  -6.394  0.00  0.00    +0.000 HD
ATOM     38  H   UNL     1       1.429   5.110  -6.654  0.00  0.00    +0.000 HD
ATOM     39  H   UNL     1       1.246   3.230  -5.029  0.00  0.00    +0.000 HD
ATOM     40  H   UNL     1       2.526   2.218  -2.702  0.00  0.00    +0.000 HD
ENDBRANCH  19  26
ENDBRANCH  16  18
ENDBRANCH  13  16
ENDBRANCH  10  13
ENDBRANCH   7  10
ENDBRANCH   4   7
ENDBRANCH   1   4
BRANCH   1  41
ATOM     41  N   UNL     1      -1.152  -0.530  -2.327  0.00  0.00    +0.000 NA
ATOM     42  H   UNL     1      -0.845  -0.716  -1.373  0.00  0.00    +0.000 HD
BRANCH  41  43
ATOM     43  C   UNL     1      -2.622  -0.551  -2.305  0.00  0.00    +0.000 C 
ATOM     44  H   UNL     1      -2.944   0.243  -1.620  0.00  0.00    +0.000 HD
ATOM     45  H   UNL     1      -3.008  -0.286  -3.295  0.00  0.00    +0.000 HD
BRANCH  43  46
ATOM     46  C   UNL     1      -3.217  -1.893  -1.840  0.00  0.00    +0.000 C 
ATOM     47  H   UNL     1      -4.307  -1.824  -1.851  0.00  0.00    +0.000 HD
ATOM     48  H   UNL     1      -2.946  -2.711  -2.514  0.00  0.00    +0.000 HD
BRANCH  46  51
ATOM     49  C   UNL     1      -3.475  -1.851   0.608  0.00  0.00    +0.000 C 
ATOM     50  O   UNL     1      -4.458  -1.130   0.529  0.00  0.00    +0.000 OA
ATOM     51  N   UNL     1      -2.770  -2.265  -0.509  0.00  0.00    +0.000 N 
ATOM     52  H   UNL     1      -2.088  -3.001  -0.370  0.00  0.00    +0.000 HD
BRANCH  49  53
ATOM     53  C   UNL     1      -2.887  -2.356   1.943  0.00  0.00    +0.000 C 
ATOM     54  H   UNL     1      -1.901  -1.896   2.055  0.00  0.00    +0.000 HD
BRANCH  53  55
ATOM     55  N   UNL     1      -2.729  -3.820   1.883  0.00  0.00    +0.000 NA
ATOM     56  H   UNL     1      -3.660  -4.243   1.856  0.00  0.00    +0.000 HD
ATOM     57  H   UNL     1      -2.328  -4.139   2.768  0.00  0.00    +0.000 HD
ENDBRANCH  53  55
BRANCH  53  58
ATOM     58  C   UNL     1      -3.802  -1.896   3.090  0.00  0.00    +0.000 C 
ATOM     59  H   UNL     1      -3.910  -0.803   3.038  0.00  0.00    +0.000 HD
ATOM     60  H   UNL     1      -4.812  -2.305   2.948  0.00  0.00    +0.000 HD
BRANCH  58  61
ATOM     61  C   UNL     1      -3.298  -2.263   4.485  0.00  0.00    +0.000 C 
ATOM     62  H   UNL     1      -3.207  -3.350   4.587  0.00  0.00    +0.000 HD
ATOM     63  H   UNL     1      -2.298  -1.841   4.645  0.00  0.00    +0.000 HD
BRANCH  61  64
ATOM     64  C   UNL     1      -4.260  -1.743   5.551  0.00  0.00    +0.000 C 
ATOM     65  H   UNL     1      -4.329  -0.650   5.485  0.00  0.00    +0.000 HD
ATOM     66  H   UNL     1      -5.254  -2.170   5.369  0.00  0.00    +0.000 HD
BRANCH  64  70
ATOM     67  N   UNL     1      -4.088  -2.223   9.115  0.00  0.00    +0.000 N 
ATOM     68  C   UNL     1      -4.450  -1.792   7.889  0.00  0.00    +0.000 C 
ATOM     69  N   UNL     1      -5.535  -0.988   7.947  0.00  0.00    +0.000 N 
ATOM     70  N   UNL     1      -3.783  -2.171   6.862  0.00  0.00    +0.000 NA
ATOM     71  H   UNL     1      -4.348  -1.667   9.915  0.00  0.00    +0.000 HD
ATOM     72  H   UNL     1      -3.134  -2.568   9.140  0.00  0.00    +0.000 HD
ATOM     73  H   UNL     1      -6.123  -1.047   8.765  0.00  0.00    +0.000 HD
ATOM     74  H   UNL     1      -6.044  -0.844   7.086  0.00  0.00    +0.000 HD
ENDBRANCH  64  70
ENDBRANCH  61  64
ENDBRANCH  58  61
ENDBRANCH  53  58
ENDBRANCH  49  53
ENDBRANCH  46  51
ENDBRANCH  43  46
ENDBRANCH  41  43
ENDBRANCH   1  41
TORSDOF 17
