
 OpenBabel01112422473D

 61 64  0  0  1  0  0  0  0  0999 V2000
    0.8076    1.1884    4.1261 O   0  0  0  0  0  0  0  0  0  0  0  0
    1.3228    0.8096    3.0831 C   0  0  0  0  0  0  0  0  0  0  0  0
    1.8680    1.6630    2.1438 N   0  0  0  0  0  0  0  0  0  0  0  0
    1.9137    3.0959    2.3515 C   0  0  2  0  0  0  0  0  0  0  0  0
    0.5431    3.7697    2.3204 C   0  0  0  0  0  0  0  0  0  0  0  0
    0.8461    5.2462    2.0774 C   0  0  0  0  0  0  0  0  0  0  0  0
    2.2447    5.3131    1.4597 C   0  0  0  0  0  0  0  0  0  0  0  0
    2.6962    3.8632    1.2784 C   0  0  3  0  0  0  0  0  0  0  0  0
    2.2989    3.4829   -0.0575 O   0  0  0  0  0  0  0  0  0  0  0  0
    3.2927    2.9888   -0.8289 C   0  0  0  0  0  0  0  0  0  0  0  0
    4.3624    2.5479   -0.4449 O   0  0  0  0  0  0  0  0  0  0  0  0
    2.9707    3.2125   -2.2567 C   0  0  0  0  0  0  0  0  0  0  0  0
    1.6679    3.1647   -2.7499 C   0  0  0  0  0  0  0  0  0  0  0  0
    1.4462    3.3862   -4.1134 C   0  0  0  0  0  0  0  0  0  0  0  0
    0.1641    3.2611   -4.5775 O   0  0  0  0  0  0  0  0  0  0  0  0
    2.5060    3.6849   -5.0014 C   0  0  0  0  0  0  0  0  0  0  0  0
    2.1875    3.9259   -6.4432 C   0  0  0  0  0  0  0  0  0  0  0  0
    1.1664    4.5442   -6.7293 O   0  0  0  0  0  0  0  0  0  0  0  0
    3.0978    3.5524   -7.5608 C   0  0  0  0  0  0  0  0  0  0  0  0
    3.9185    2.4078   -7.4858 C   0  0  0  0  0  0  0  0  0  0  0  0
    3.8702    1.4682   -6.4928 O   0  0  0  0  0  0  0  0  0  0  0  0
    4.9144    2.1704   -8.4357 C   0  0  0  0  0  0  0  0  0  0  0  0
    5.0664    3.0221   -9.5206 C   0  0  0  0  0  0  0  0  0  0  0  0
    4.2017    4.1015   -9.6661 C   0  0  0  0  0  0  0  0  0  0  0  0
    3.2149    4.3859   -8.6989 C   0  0  0  0  0  0  0  0  0  0  0  0
    2.4147    5.6093   -9.0119 C   0  0  0  0  0  0  0  0  0  0  0  0
    2.1998    5.9667  -10.1597 O   0  0  0  0  0  0  0  0  0  0  0  0
    2.1722    6.3993   -7.9518 O   0  0  0  0  0  0  0  0  0  0  0  0
    3.8005    3.7795   -4.4664 C   0  0  0  0  0  0  0  0  0  0  0  0
    4.9383    4.1472   -5.1270 O   0  0  0  0  0  0  0  0  0  0  0  0
    4.0292    3.5107   -3.1159 C   0  0  0  0  0  0  0  0  0  0  0  0
    1.3363   -0.6345    2.7360 C   0  0  0  0  0  0  0  0  0  0  0  0
    0.2501   -1.4288    3.1326 C   0  0  0  0  0  0  0  0  0  0  0  0
    0.2197   -2.7889    2.8161 C   0  0  0  0  0  0  0  0  0  0  0  0
    1.2854   -3.3507    2.1193 C   0  0  0  0  0  0  0  0  0  0  0  0
    1.2955   -4.6713    1.7817 O   0  0  0  0  0  0  0  0  0  0  0  0
    2.3826   -2.5804    1.7467 C   0  0  0  0  0  0  0  0  0  0  0  0
    2.4128   -1.2174    2.0543 C   0  0  0  0  0  0  0  0  0  0  0  0
    2.1716    1.2947    1.2522 H   0  0  0  0  0  0  0  0  0  0  0  0
    2.3732    3.2774    3.3342 H   0  0  0  0  0  0  0  0  0  0  0  0
   -0.0134    3.6264    3.2525 H   0  0  0  0  0  0  0  0  0  0  0  0
   -0.0731    3.3710    1.5055 H   0  0  0  0  0  0  0  0  0  0  0  0
    0.8357    5.8033    3.0214 H   0  0  0  0  0  0  0  0  0  0  0  0
    0.0926    5.6989    1.4243 H   0  0  0  0  0  0  0  0  0  0  0  0
    2.9202    5.8386    2.1432 H   0  0  0  0  0  0  0  0  0  0  0  0
    2.2259    5.8646    0.5127 H   0  0  0  0  0  0  0  0  0  0  0  0
    3.7778    3.7737    1.4270 H   0  0  0  0  0  0  0  0  0  0  0  0
    0.8414    2.9342   -2.0820 H   0  0  0  0  0  0  0  0  0  0  0  0
   -0.4698    3.4314   -3.8589 H   0  0  0  0  0  0  0  0  0  0  0  0
    3.0047    1.4550   -6.0515 H   0  0  0  0  0  0  0  0  0  0  0  0
    5.5790    1.3154   -8.3246 H   0  0  0  0  0  0  0  0  0  0  0  0
    5.8471    2.8437  -10.2564 H   0  0  0  0  0  0  0  0  0  0  0  0
    4.3162    4.7507  -10.5354 H   0  0  0  0  0  0  0  0  0  0  0  0
    1.5469    5.9298   -7.3446 H   0  0  0  0  0  0  0  0  0  0  0  0
    4.8173    4.2793   -6.0769 H   0  0  0  0  0  0  0  0  0  0  0  0
    5.0474    3.5621   -2.7304 H   0  0  0  0  0  0  0  0  0  0  0  0
   -0.5749   -0.9826    3.6845 H   0  0  0  0  0  0  0  0  0  0  0  0
   -0.6329   -3.3868    3.1235 H   0  0  0  0  0  0  0  0  0  0  0  0
    0.4716   -5.0813    2.0931 H   0  0  0  0  0  0  0  0  0  0  0  0
    3.2168   -3.0430    1.2262 H   0  0  0  0  0  0  0  0  0  0  0  0
    3.2881   -0.6339    1.7852 H   0  0  0  0  0  0  0  0  0  0  0  0
  1  2  2  0  0  0  0
  2  3  1  0  0  0  0
  2 32  1  0  0  0  0
  3  4  1  0  0  0  0
  3 39  1  0  0  0  0
  4  5  1  0  0  0  0
  4  8  1  0  0  0  0
  4 40  1  1  0  0  0
  5  6  1  0  0  0  0
  5 41  1  0  0  0  0
  5 42  1  0  0  0  0
  6  7  1  0  0  0  0
  6 43  1  0  0  0  0
  6 44  1  0  0  0  0
  7  8  1  0  0  0  0
  7 45  1  0  0  0  0
  7 46  1  0  0  0  0
  8  9  1  0  0  0  0
  8 47  1  0  0  0  0
  9 10  1  0  0  0  0
 10 11  2  0  0  0  0
 10 12  1  0  0  0  0
 12 13  1  0  0  0  0
 12 31  2  0  0  0  0
 13 14  2  0  0  0  0
 13 48  1  0  0  0  0
 14 15  1  0  0  0  0
 14 16  1  0  0  0  0
 15 49  1  0  0  0  0
 16 17  1  0  0  0  0
 16 29  2  0  0  0  0
 17 18  2  0  0  0  0
 17 19  1  0  0  0  0
 19 20  1  0  0  0  0
 19 25  2  0  0  0  0
 20 21  1  0  0  0  0
 20 22  2  0  0  0  0
 21 50  1  0  0  0  0
 22 23  1  0  0  0  0
 22 51  1  0  0  0  0
 23 24  2  0  0  0  0
 23 52  1  0  0  0  0
 24 25  1  0  0  0  0
 24 53  1  0  0  0  0
 25 26  1  0  0  0  0
 26 27  2  0  0  0  0
 26 28  1  0  0  0  0
 28 54  1  0  0  0  0
 29 30  1  0  0  0  0
 29 31  1  0  0  0  0
 30 55  1  0  0  0  0
 31 56  1  0  0  0  0
 32 33  1  0  0  0  0
 32 38  2  0  0  0  0
 33 34  2  0  0  0  0
 33 57  1  0  0  0  0
 34 35  1  0  0  0  0
 34 58  1  0  0  0  0
 35 36  1  0  0  0  0
 35 37  2  0  0  0  0
 36 59  1  0  0  0  0
 37 38  1  0  0  0  0
 37 60  1  0  0  0  0
 38 61  1  0  0  0  0
M  END
$$$$
