REMARK  Name = 
REMARK  11 active torsions:
REMARK  status: ('A' for Active; 'I' for Inactive)
REMARK    1  A    between atoms: C_1  and  O_2
REMARK    2  A    between atoms: O_2  and  C_3
REMARK    3  A    between atoms: C_3  and  C_5
REMARK    4  A    between atoms: C_8  and  N_9
REMARK    5  A    between atoms: C_10  and  C_12
REMARK    6  A    between atoms: C_12  and  C_13
REMARK    7  A    between atoms: C_13  and  N_14
REMARK    8  A    between atoms: N_14  and  C_15
REMARK    9  A    between atoms: N_14  and  C_16
REMARK   10  A    between atoms: N_19  and  C_20
REMARK   11  A    between atoms: C_27  and  C_28
REMARK                            x       y       z     vdW  Elec       q    Type
REMARK                         _______ _______ _______ _____ _____    ______ ____
ROOT
ATOM      1  C   UNL     1       0.807   0.512   0.759  0.00  0.00    +0.000 C 
ATOM      2  C   UNL     1       1.343   1.998   0.725  0.00  0.00    +0.000 C 
ATOM      3  C   UNL     1       1.303   2.671  -0.657  0.00  0.00    +0.000 C 
ATOM      4  N   UNL     1       1.974   1.743  -1.557  0.00  0.00    +0.000 N 
ATOM      5  C   UNL     1       1.170   0.563  -1.807  0.00  0.00    +0.000 C 
ATOM      6  C   UNL     1       1.219  -0.261  -0.518  0.00  0.00    +0.000 C 
ATOM      7  H   UNL     1       2.390   2.010   1.054  0.00  0.00    +0.000 HD
ATOM      8  H   UNL     1       0.788   2.619   1.441  0.00  0.00    +0.000 HD
ATOM      9  H   UNL     1       1.808   3.641  -0.582  0.00  0.00    +0.000 HD
ATOM     10  H   UNL     1       0.281   2.882  -0.998  0.00  0.00    +0.000 HD
ATOM     11  H   UNL     1       1.525  -0.027  -2.656  0.00  0.00    +0.000 HD
ATOM     12  H   UNL     1       0.133   0.826  -2.053  0.00  0.00    +0.000 HD
ATOM     13  H   UNL     1       2.245  -0.608  -0.369  0.00  0.00    +0.000 HD
ATOM     14  H   UNL     1       0.585  -1.136  -0.681  0.00  0.00    +0.000 HD
ENDROOT
BRANCH   4  15
ATOM     15  C   UNL     1       2.733   2.261  -2.593  0.00  0.00    +0.000 A 
ATOM     16  N   UNL     1       2.518   3.546  -2.986  0.00  0.00    +0.000 NA
ATOM     17  C   UNL     1       3.315   4.100  -3.920  0.00  0.00    +0.000 A 
ATOM     18  N   UNL     1       4.364   3.545  -4.537  0.00  0.00    +0.000 NA
ATOM     19  C   UNL     1       4.566   2.290  -4.117  0.00  0.00    +0.000 A 
ATOM     20  N   UNL     1       5.599   1.516  -4.553  0.00  0.00    +0.000 N 
ATOM     21  C   UNL     1       5.566   0.303  -3.936  0.00  0.00    +0.000 A 
ATOM     22  C   UNL     1       4.488   0.286  -3.066  0.00  0.00    +0.000 A 
ATOM     23  C   UNL     1       3.826   1.568  -3.185  0.00  0.00    +0.000 A 
ATOM     24  H   UNL     1       3.085   5.124  -4.194  0.00  0.00    +0.000 HD
ATOM     25  H   UNL     1       6.294   1.829  -5.214  0.00  0.00    +0.000 HD
ATOM     26  H   UNL     1       6.318  -0.449  -4.136  0.00  0.00    +0.000 HD
BRANCH  22  27
ATOM     27  C   UNL     1       4.170  -0.869  -2.189  0.00  0.00    +0.000 C 
ATOM     28  H   UNL     1       4.853  -1.704  -2.376  0.00  0.00    +0.000 HD
ATOM     29  H   UNL     1       3.170  -1.260  -2.383  0.00  0.00    +0.000 HD
ATOM     30  H   UNL     1       4.272  -0.592  -1.137  0.00  0.00    +0.000 HD
ENDBRANCH  22  27
ENDBRANCH   4  15
BRANCH   1  32
ATOM     31  N   UNL     1      -1.430  -0.410   1.359  0.00  0.00    +0.000 N 
ATOM     32  C   UNL     1      -0.724   0.623   0.775  0.00  0.00    +0.000 C 
ATOM     33  O   UNL     1      -1.258   1.563   0.186  0.00  0.00    +0.000 OA
ATOM     34  H   UNL     1      -0.885  -1.085   1.899  0.00  0.00    +0.000 HD
BRANCH  31  38
ATOM     35  C   UNL     1      -5.651  -0.888   1.410  0.00  0.00    +0.000 A 
ATOM     36  C   UNL     1      -5.080   0.140   0.668  0.00  0.00    +0.000 A 
ATOM     37  C   UNL     1      -3.695   0.313   0.656  0.00  0.00    +0.000 A 
ATOM     38  C   UNL     1      -2.840  -0.528   1.371  0.00  0.00    +0.000 A 
ATOM     39  C   UNL     1      -3.412  -1.562   2.121  0.00  0.00    +0.000 A 
ATOM     40  C   UNL     1      -4.809  -1.740   2.146  0.00  0.00    +0.000 A 
ATOM     41  H   UNL     1      -5.699   0.822   0.086  0.00  0.00    +0.000 HD
ATOM     42  H   UNL     1      -3.325   1.128   0.044  0.00  0.00    +0.000 HD
ATOM     43  H   UNL     1      -2.793  -2.236   2.710  0.00  0.00    +0.000 HD
ATOM     44  H   UNL     1      -5.229  -2.547   2.743  0.00  0.00    +0.000 HD
BRANCH  35  45
ATOM     45  C   UNL     1      -7.134  -1.025   1.362  0.00  0.00    +0.000 C 
ATOM     46  O   UNL     1      -7.869  -0.306   0.702  0.00  0.00    +0.000 OA
BRANCH  45  47
ATOM     47  O   UNL     1      -7.535  -2.058   2.142  0.00  0.00    +0.000 OA
BRANCH  47  48
ATOM     48  C   UNL     1      -8.948  -2.260   2.134  0.00  0.00    +0.000 C 
ATOM     49  H   UNL     1      -9.180  -3.007   2.895  0.00  0.00    +0.000 HD
ATOM     50  H   UNL     1      -9.264  -2.639   1.158  0.00  0.00    +0.000 HD
ATOM     51  H   UNL     1      -9.479  -1.335   2.382  0.00  0.00    +0.000 HD
ENDBRANCH  47  48
ENDBRANCH  45  47
ENDBRANCH  35  45
ENDBRANCH  31  38
ENDBRANCH   1  32
BRANCH   1  52
ATOM     52  C   UNL     1       1.406  -0.141   2.057  0.00  0.00    +0.000 C 
ATOM     53  H   UNL     1       1.099   0.519   2.882  0.00  0.00    +0.000 HD
ATOM     54  H   UNL     1       2.503  -0.073   2.010  0.00  0.00    +0.000 HD
BRANCH  52  55
ATOM     55  N   UNL     1       1.035  -1.522   2.476  0.00  0.00    +0.000 NA
BRANCH  55  56
ATOM     56  C   UNL     1       1.538  -2.594   1.605  0.00  0.00    +0.000 C 
ATOM     57  H   UNL     1       1.193  -2.515   0.579  0.00  0.00    +0.000 HD
ATOM     58  H   UNL     1       1.141  -3.557   1.950  0.00  0.00    +0.000 HD
ATOM     59  H   UNL     1       2.633  -2.659   1.598  0.00  0.00    +0.000 HD
ENDBRANCH  55  56
BRANCH  55  60
ATOM     60  C   UNL     1       1.631  -1.780   3.810  0.00  0.00    +0.000 C 
ATOM     61  H   UNL     1       1.325  -1.026   4.542  0.00  0.00    +0.000 HD
ATOM     62  H   UNL     1       2.729  -1.791   3.772  0.00  0.00    +0.000 HD
ATOM     63  H   UNL     1       1.299  -2.751   4.195  0.00  0.00    +0.000 HD
ENDBRANCH  55  60
ENDBRANCH  52  55
ENDBRANCH   1  52
TORSDOF 11
