REMARK  Name = 
REMARK  2 active torsions:
REMARK  status: ('A' for Active; 'I' for Inactive)
REMARK    1  A    between atoms: C_6  and  C_7
REMARK    2  A    between atoms: C_14  and  O_15
REMARK                            x       y       z     vdW  Elec       q    Type
REMARK                         _______ _______ _______ _____ _____    ______ ____
ROOT
ATOM      1  C   UNL     1      -0.095   0.397   0.636  0.00  0.00    +0.000 A 
ATOM      2  C   UNL     1      -0.219   1.409   1.570  0.00  0.00    +0.000 A 
ATOM      3  N   UNL     1       0.611   2.437   1.198  0.00  0.00    +0.000 N 
ATOM      4  C   UNL     1       1.270   2.124   0.031  0.00  0.00    +0.000 A 
ATOM      5  C   UNL     1       2.206   2.869  -0.699  0.00  0.00    +0.000 A 
ATOM      6  C   UNL     1       2.711   2.312  -1.877  0.00  0.00    +0.000 A 
ATOM      7  C   UNL     1       2.290   1.063  -2.318  0.00  0.00    +0.000 A 
ATOM      8  C   UNL     1       1.347   0.340  -1.583  0.00  0.00    +0.000 A 
ATOM      9  C   UNL     1       0.831   0.856  -0.368  0.00  0.00    +0.000 A 
ATOM     10  H   UNL     1      -0.817   1.481   2.466  0.00  0.00    +0.000 HD
ATOM     11  H   UNL     1       0.724   3.304   1.704  0.00  0.00    +0.000 HD
ATOM     12  H   UNL     1       2.534   3.850  -0.369  0.00  0.00    +0.000 HD
ATOM     13  H   UNL     1       3.436   2.867  -2.465  0.00  0.00    +0.000 HD
ATOM     14  H   UNL     1       2.700   0.660  -3.239  0.00  0.00    +0.000 HD
ENDROOT
BRANCH   1  20
ATOM     15  N   UNL     1      -3.921  -2.006   2.018  0.00  0.00    +0.000 N 
ATOM     16  C   UNL     1      -2.684  -1.996   1.403  0.00  0.00    +0.000 A 
ATOM     17  N   UNL     1      -2.269  -3.154   0.880  0.00  0.00    +0.000 NA
ATOM     18  C   UNL     1      -1.054  -3.148   0.318  0.00  0.00    +0.000 A 
ATOM     19  C   UNL     1      -0.262  -2.034   0.262  0.00  0.00    +0.000 A 
ATOM     20  C   UNL     1      -0.813  -0.869   0.746  0.00  0.00    +0.000 A 
ATOM     21  N   UNL     1      -2.025  -0.837   1.341  0.00  0.00    +0.000 NA
ATOM     22  H   UNL     1      -4.466  -2.768   1.640  0.00  0.00    +0.000 HD
ATOM     23  H   UNL     1      -4.319  -1.079   1.977  0.00  0.00    +0.000 HD
ATOM     24  H   UNL     1      -0.716  -4.091  -0.101  0.00  0.00    +0.000 HD
ATOM     25  H   UNL     1       0.730  -2.084  -0.158  0.00  0.00    +0.000 HD
ENDBRANCH   1  20
BRANCH   8  26
ATOM     26  O   UNL     1       0.926  -0.872  -2.076  0.00  0.00    +0.000 OA
ATOM     27  H   UNL     1       1.346  -1.033  -2.935  0.00  0.00    +0.000 HD
ENDBRANCH   8  26
TORSDOF 2
