REMARK  Name = 
REMARK  10 active torsions:
REMARK  status: ('A' for Active; 'I' for Inactive)
REMARK    1  A    between atoms: C_1  and  O_2
REMARK    2  A    between atoms: O_2  and  C_3
REMARK    3  A    between atoms: C_3  and  C_5
REMARK    4  A    between atoms: C_9  and  N_10
REMARK    5  A    between atoms: C_11  and  C_13
REMARK    6  A    between atoms: C_13  and  C_14
REMARK    7  A    between atoms: C_14  and  N_15
REMARK    8  A    between atoms: N_15  and  C_16
REMARK    9  A    between atoms: N_15  and  C_17
REMARK   10  A    between atoms: N_20  and  C_21
REMARK                            x       y       z     vdW  Elec       q    Type
REMARK                         _______ _______ _______ _____ _____    ______ ____
ROOT
ATOM      1  C   UNL     1       0.413   0.425   0.888  0.00  0.00    +0.000 C 
ATOM      2  C   UNL     1       1.452   1.611   0.954  0.00  0.00    +0.000 C 
ATOM      3  C   UNL     1       2.710   1.426   0.088  0.00  0.00    +0.000 C 
ATOM      4  N   UNL     1       3.262   0.115   0.399  0.00  0.00    +0.000 N 
ATOM      5  C   UNL     1       2.394  -0.992   0.025  0.00  0.00    +0.000 C 
ATOM      6  C   UNL     1       1.157  -0.931   0.913  0.00  0.00    +0.000 C 
ATOM      7  H   UNL     1       1.786   1.745   1.991  0.00  0.00    +0.000 HD
ATOM      8  H   UNL     1       0.968   2.554   0.664  0.00  0.00    +0.000 HD
ATOM      9  H   UNL     1       3.403   2.240   0.327  0.00  0.00    +0.000 HD
ATOM     10  H   UNL     1       2.510   1.502  -0.987  0.00  0.00    +0.000 HD
ATOM     11  H   UNL     1       2.870  -1.972   0.142  0.00  0.00    +0.000 HD
ATOM     12  H   UNL     1       2.112  -0.922  -1.033  0.00  0.00    +0.000 HD
ATOM     13  H   UNL     1       1.476  -1.138   1.943  0.00  0.00    +0.000 HD
ATOM     14  H   UNL     1       0.511  -1.746   0.586  0.00  0.00    +0.000 HD
ENDROOT
BRANCH   4  15
ATOM     15  C   UNL     1       4.614  -0.101   0.583  0.00  0.00    +0.000 A 
ATOM     16  C   UNL     1       5.600   0.713   0.001  0.00  0.00    +0.000 A 
ATOM     17  C   UNL     1       6.952   0.486   0.246  0.00  0.00    +0.000 A 
ATOM     18  N   UNL     1       7.460  -0.490   1.029  0.00  0.00    +0.000 NA
ATOM     19  C   UNL     1       6.494  -1.245   1.582  0.00  0.00    +0.000 A 
ATOM     20  N   UNL     1       6.688  -2.293   2.432  0.00  0.00    +0.000 N 
ATOM     21  N   UNL     1       5.547  -2.859   2.876  0.00  0.00    +0.000 NA
ATOM     22  C   UNL     1       4.601  -2.130   2.271  0.00  0.00    +0.000 A 
ATOM     23  C   UNL     1       5.122  -1.120   1.423  0.00  0.00    +0.000 A 
ATOM     24  H   UNL     1       5.327   1.522  -0.668  0.00  0.00    +0.000 HD
ATOM     25  H   UNL     1       7.700   1.128  -0.215  0.00  0.00    +0.000 HD
ATOM     26  H   UNL     1       7.577  -2.657   2.751  0.00  0.00    +0.000 HD
ATOM     27  H   UNL     1       3.565  -2.362   2.471  0.00  0.00    +0.000 HD
ENDBRANCH   4  15
BRANCH   1  29
ATOM     28  N   UNL     1      -1.621   0.129  -0.561  0.00  0.00    +0.000 N 
ATOM     29  C   UNL     1      -0.326   0.609  -0.455  0.00  0.00    +0.000 C 
ATOM     30  O   UNL     1       0.267   1.141  -1.391  0.00  0.00    +0.000 OA
ATOM     31  H   UNL     1      -2.118  -0.042   0.316  0.00  0.00    +0.000 HD
BRANCH  28  36
ATOM     32  C   UNL     1      -4.522   0.519  -2.877  0.00  0.00    +0.000 A 
ATOM     33  C   UNL     1      -3.871   0.626  -4.114  0.00  0.00    +0.000 A 
ATOM     34  C   UNL     1      -2.493   0.494  -4.183  0.00  0.00    +0.000 A 
ATOM     35  C   UNL     1      -1.761   0.285  -3.019  0.00  0.00    +0.000 A 
ATOM     36  C   UNL     1      -2.379   0.230  -1.759  0.00  0.00    +0.000 A 
ATOM     37  C   UNL     1      -3.774   0.305  -1.699  0.00  0.00    +0.000 A 
ATOM     38  H   UNL     1      -4.421   0.812  -5.032  0.00  0.00    +0.000 HD
ATOM     39  H   UNL     1      -1.977   0.574  -5.139  0.00  0.00    +0.000 HD
ATOM     40  H   UNL     1      -0.686   0.171  -3.127  0.00  0.00    +0.000 HD
ATOM     41  H   UNL     1      -4.289   0.252  -0.742  0.00  0.00    +0.000 HD
BRANCH  32  42
ATOM     42  C   UNL     1      -6.001   0.663  -2.784  0.00  0.00    +0.000 C 
ATOM     43  O   UNL     1      -6.627   0.594  -1.740  0.00  0.00    +0.000 OA
BRANCH  42  44
ATOM     44  O   UNL     1      -6.524   0.888  -4.014  0.00  0.00    +0.000 OA
BRANCH  44  45
ATOM     45  C   UNL     1      -7.942   1.065  -4.055  0.00  0.00    +0.000 C 
ATOM     46  H   UNL     1      -8.245   1.091  -5.107  0.00  0.00    +0.000 HD
ATOM     47  H   UNL     1      -8.214   2.017  -3.593  0.00  0.00    +0.000 HD
ATOM     48  H   UNL     1      -8.455   0.230  -3.570  0.00  0.00    +0.000 HD
ENDBRANCH  44  45
ENDBRANCH  42  44
ENDBRANCH  32  42
ENDBRANCH  28  36
ENDBRANCH   1  29
BRANCH   1  49
ATOM     49  C   UNL     1      -0.530   0.580   2.130  0.00  0.00    +0.000 C 
ATOM     50  H   UNL     1      -0.956   1.593   2.071  0.00  0.00    +0.000 HD
ATOM     51  H   UNL     1       0.093   0.569   3.037  0.00  0.00    +0.000 HD
BRANCH  49  52
ATOM     52  N   UNL     1      -1.678  -0.349   2.333  0.00  0.00    +0.000 NA
BRANCH  52  53
ATOM     53  C   UNL     1      -1.284  -1.749   2.541  0.00  0.00    +0.000 C 
ATOM     54  H   UNL     1      -1.109  -2.241   1.583  0.00  0.00    +0.000 HD
ATOM     55  H   UNL     1      -2.093  -2.335   2.994  0.00  0.00    +0.000 HD
ATOM     56  H   UNL     1      -0.405  -1.852   3.187  0.00  0.00    +0.000 HD
ENDBRANCH  52  53
BRANCH  52  57
ATOM     57  C   UNL     1      -2.424   0.074   3.536  0.00  0.00    +0.000 C 
ATOM     58  H   UNL     1      -2.812   1.090   3.420  0.00  0.00    +0.000 HD
ATOM     59  H   UNL     1      -1.803   0.035   4.440  0.00  0.00    +0.000 HD
ATOM     60  H   UNL     1      -3.293  -0.575   3.695  0.00  0.00    +0.000 HD
ENDBRANCH  52  57
ENDBRANCH  49  52
ENDBRANCH   1  49
TORSDOF 10
