REMARK  Name = 
REMARK  5 active torsions:
REMARK  status: ('A' for Active; 'I' for Inactive)
REMARK    1  A    between atoms: C_1  and  C_2
REMARK    2  A    between atoms: C_2  and  N_3
REMARK    3  A    between atoms: N_8  and  C_9
REMARK    4  A    between atoms: N_18  and  C_19
REMARK    5  A    between atoms: C_23  and  N_24
REMARK                            x       y       z     vdW  Elec       q    Type
REMARK                         _______ _______ _______ _____ _____    ______ ____
ROOT
ATOM      1  N   UNL     1       1.303  -3.290   1.148  0.00  0.00    +0.000 N 
ATOM      2  C   UNL     1       1.838  -3.857   0.025  0.00  0.00    +0.000 A 
ATOM      3  N   UNL     1       2.045  -2.963  -0.912  0.00  0.00    +0.000 NA
ATOM      4  C   UNL     1       1.621  -1.765  -0.364  0.00  0.00    +0.000 A 
ATOM      5  C   UNL     1       1.564  -0.458  -0.871  0.00  0.00    +0.000 A 
ATOM      6  N   UNL     1       1.944  -0.147  -2.182  0.00  0.00    +0.000 N 
ATOM      7  N   UNL     1       1.152   0.534  -0.030  0.00  0.00    +0.000 NA
ATOM      8  C   UNL     1       0.740   0.225   1.220  0.00  0.00    +0.000 A 
ATOM      9  N   UNL     1       0.250   1.210   2.066  0.00  0.00    +0.000 N 
ATOM     10  N   UNL     1       0.719  -1.007   1.764  0.00  0.00    +0.000 NA
ATOM     11  C   UNL     1       1.184  -1.945   0.926  0.00  0.00    +0.000 A 
ATOM     12  H   UNL     1       2.043  -4.914  -0.065  0.00  0.00    +0.000 HD
ATOM     13  H   UNL     1       2.235   0.812  -2.302  0.00  0.00    +0.000 HD
ATOM     14  H   UNL     1      -0.242   0.732   2.813  0.00  0.00    +0.000 HD
ENDROOT
BRANCH   9  15
ATOM     15  C   UNL     1      -0.440   2.362   1.492  0.00  0.00    +0.000 C 
ATOM     16  C   UNL     1      -1.717   1.929   0.752  0.00  0.00    +0.000 C 
ATOM     17  C   UNL     1      -2.534   3.123   0.270  0.00  0.00    +0.000 C 
ATOM     18  C   UNL     1      -2.889   4.060   1.419  0.00  0.00    +0.000 C 
ATOM     19  C   UNL     1      -1.631   4.522   2.161  0.00  0.00    +0.000 C 
ATOM     20  C   UNL     1      -0.799   3.326   2.644  0.00  0.00    +0.000 C 
ATOM     21  H   UNL     1       0.229   2.891   0.801  0.00  0.00    +0.000 HD
ATOM     22  H   UNL     1      -2.335   1.307   1.412  0.00  0.00    +0.000 HD
ATOM     23  H   UNL     1      -1.467   1.306  -0.115  0.00  0.00    +0.000 HD
ATOM     24  H   UNL     1      -3.452   2.768  -0.210  0.00  0.00    +0.000 HD
ATOM     25  H   UNL     1      -1.967   3.673  -0.490  0.00  0.00    +0.000 HD
ATOM     26  H   UNL     1      -3.569   3.542   2.108  0.00  0.00    +0.000 HD
ATOM     27  H   UNL     1      -3.435   4.925   1.024  0.00  0.00    +0.000 HD
ATOM     28  H   UNL     1      -1.017   5.125   1.482  0.00  0.00    +0.000 HD
ATOM     29  H   UNL     1      -1.355   2.779   3.419  0.00  0.00    +0.000 HD
ATOM     30  H   UNL     1       0.122   3.683   3.124  0.00  0.00    +0.000 HD
BRANCH  19  31
ATOM     31  N   UNL     1      -2.005   5.370   3.296  0.00  0.00    +0.000 NA
ATOM     32  H   UNL     1      -2.613   4.855   3.932  0.00  0.00    +0.000 HD
ATOM     33  H   UNL     1      -2.555   6.162   2.965  0.00  0.00    +0.000 HD
ENDBRANCH  19  31
ENDBRANCH   9  15
BRANCH   6  34
ATOM     34  C   UNL     1       1.748  -0.913  -3.345  0.00  0.00    +0.000 A 
ATOM     35  C   UNL     1       2.662  -0.814  -4.400  0.00  0.00    +0.000 A 
ATOM     36  C   UNL     1       2.521  -1.601  -5.548  0.00  0.00    +0.000 A 
ATOM     37  C   UNL     1       1.458  -2.497  -5.658  0.00  0.00    +0.000 A 
ATOM     38  C   UNL     1       0.553  -2.617  -4.609  0.00  0.00    +0.000 A 
ATOM     39 CL   UNL     1      -0.776  -3.704  -4.742  0.00  0.00    +0.000 Cl
ATOM     40  C   UNL     1       0.703  -1.844  -3.459  0.00  0.00    +0.000 A 
ATOM     41  H   UNL     1       3.509  -0.138  -4.322  0.00  0.00    +0.000 HD
ATOM     42  H   UNL     1       3.243  -1.516  -6.355  0.00  0.00    +0.000 HD
ATOM     43  H   UNL     1       1.341  -3.095  -6.557  0.00  0.00    +0.000 HD
ATOM     44  H   UNL     1      -0.015  -1.964  -2.652  0.00  0.00    +0.000 HD
ENDBRANCH   6  34
BRANCH   1  45
ATOM     45  C   UNL     1       0.892  -4.005   2.331  0.00  0.00    +0.000 C 
ATOM     46  H   UNL     1       1.528  -4.888   2.424  0.00  0.00    +0.000 HD
ATOM     47  H   UNL     1       1.077  -3.364   3.202  0.00  0.00    +0.000 HD
BRANCH  45  48
ATOM     48  C   UNL     1      -0.572  -4.403   2.257  0.00  0.00    +0.000 C 
ATOM     49  H   UNL     1      -0.863  -4.952   3.157  0.00  0.00    +0.000 HD
ATOM     50  H   UNL     1      -0.762  -5.042   1.387  0.00  0.00    +0.000 HD
ATOM     51  H   UNL     1      -1.217  -3.522   2.166  0.00  0.00    +0.000 HD
ENDBRANCH  45  48
ENDBRANCH   1  45
TORSDOF 5
