
 OpenBabel01112422253D

 62 69  0  0  1  0  0  0  0  0999 V2000
    5.4639   -0.9578   -1.4681 C   0  0  0  0  0  0  0  0  0  0  0  0
    4.0959   -1.0632   -0.9754 N   0  0  0  0  0  0  0  0  0  0  0  0
    3.1186   -0.1685   -1.6239 C   0  0  1  0  0  0  0  0  0  0  0  0
    1.9360   -0.8933   -2.4056 C   0  0  0  0  0  0  0  0  0  0  0  0
    0.4674   -0.2127   -2.1281 C   0  0  2  0  0  0  0  0  0  0  0  0
    0.3652    0.3720   -0.7687 O   0  0  0  0  0  0  0  0  0  0  0  0
    1.2909   -0.3236    0.1318 C   0  0  2  0  0  0  0  0  0  0  0  0
    1.0828    0.1081    1.5907 C   0  0  0  0  0  0  0  0  0  0  0  0
    2.4338    0.5952   -0.5161 C   0  0  1  0  0  0  0  0  0  0  0  0
    3.2117    1.4527    0.3382 O   0  0  0  0  0  0  0  0  0  0  0  0
    3.4935    2.7343   -0.2755 C   0  0  0  0  0  0  0  0  0  0  0  0
    0.9038   -1.7866   -0.0706 N   0  0  0  0  0  0  0  0  0  0  0  0
    1.1056   -3.0212    0.6212 C   0  0  0  0  0  0  0  0  0  0  0  0
    1.8542   -4.1300    0.1688 C   0  0  0  0  0  0  0  0  0  0  0  0
    1.5669   -5.4047    0.6823 C   0  0  0  0  0  0  0  0  0  0  0  0
    0.6670   -5.5858    1.7335 C   0  0  0  0  0  0  0  0  0  0  0  0
   -0.0980   -4.5230    2.2266 C   0  0  0  0  0  0  0  0  0  0  0  0
   -0.0389   -3.3099    1.5116 C   0  0  0  0  0  0  0  0  0  0  0  0
   -1.0465   -2.4172    1.1229 C   0  0  0  0  0  0  0  0  0  0  0  0
   -2.2155   -1.9287    1.7460 C   0  0  0  0  0  0  0  0  0  0  0  0
   -2.7212   -0.8036    1.0575 C   0  0  0  0  0  0  0  0  0  0  0  0
   -2.2814   -0.6958   -0.2697 C   0  0  0  0  0  0  0  0  0  0  0  0
   -2.4275    0.4070   -1.1095 C   0  0  0  0  0  0  0  0  0  0  0  0
   -2.7943    1.7406   -1.0221 C   0  0  0  0  0  0  0  0  0  0  0  0
   -3.3912    2.2483   -2.1542 C   0  0  0  0  0  0  0  0  0  0  0  0
   -3.5797    1.4312   -3.2791 C   0  0  0  0  0  0  0  0  0  0  0  0
   -2.8324    0.2524   -3.4637 C   0  0  0  0  0  0  0  0  0  0  0  0
   -2.0157   -0.0959   -2.3952 C   0  0  0  0  0  0  0  0  0  0  0  0
   -0.8365   -0.9226   -2.1925 N   0  0  0  0  0  0  0  0  0  0  0  0
   -1.2872   -1.3943   -0.9720 C   0  0  0  0  0  0  0  0  0  0  0  0
   -0.4528   -1.9873   -0.0624 C   0  0  0  0  0  0  0  0  0  0  0  0
   -3.6791   -0.0398    1.8304 C   0  0  2  0  0  0  0  0  0  0  0  0
   -3.1048    1.1242    2.3731 O   0  0  0  0  0  0  0  0  0  0  0  0
   -3.8376   -0.9549    2.9306 N   0  0  0  0  0  0  0  0  0  0  0  0
   -2.9822   -2.0615    2.9386 C   0  0  0  0  0  0  0  0  0  0  0  0
   -3.0017   -2.9153    3.8308 O   0  0  0  0  0  0  0  0  0  0  0  0
    5.6386   -1.8035   -2.1338 H   0  0  0  0  0  0  0  0  0  0  0  0
    6.1730   -1.0538   -0.6338 H   0  0  0  0  0  0  0  0  0  0  0  0
    5.7190   -0.0268   -1.9879 H   0  0  0  0  0  0  0  0  0  0  0  0
    4.1202   -0.8837    0.0367 H   0  0  0  0  0  0  0  0  0  0  0  0
    3.6076    0.5636   -2.2844 H   0  0  0  0  0  0  0  0  0  0  0  0
    2.1631   -0.9068   -3.4769 H   0  0  0  0  0  0  0  0  0  0  0  0
    1.9503   -1.9547   -2.1343 H   0  0  0  0  0  0  0  0  0  0  0  0
    0.3884    0.6195   -2.8404 H   0  0  0  0  0  0  0  0  0  0  0  0
    0.6248    1.0979    1.6596 H   0  0  0  0  0  0  0  0  0  0  0  0
    0.4553   -0.5675    2.1744 H   0  0  0  0  0  0  0  0  0  0  0  0
    2.0449    0.1097    2.1141 H   0  0  0  0  0  0  0  0  0  0  0  0
    1.9281    1.3805   -1.1049 H   0  0  0  0  0  0  0  0  0  0  0  0
    4.4876    2.6869   -0.7214 H   0  0  0  0  0  0  0  0  0  0  0  0
    2.7805    3.0470   -1.0554 H   0  0  0  0  0  0  0  0  0  0  0  0
    3.4722    3.5243    0.4830 H   0  0  0  0  0  0  0  0  0  0  0  0
    2.4854   -4.0436   -0.7136 H   0  0  0  0  0  0  0  0  0  0  0  0
    2.0073   -6.2819    0.2090 H   0  0  0  0  0  0  0  0  0  0  0  0
    0.4628   -6.5928    2.0943 H   0  0  0  0  0  0  0  0  0  0  0  0
   -0.9256   -4.7318    2.9029 H   0  0  0  0  0  0  0  0  0  0  0  0
   -2.6797    2.2929   -0.1002 H   0  0  0  0  0  0  0  0  0  0  0  0
   -3.7890    3.2571   -2.1223 H   0  0  0  0  0  0  0  0  0  0  0  0
   -4.2932    1.7493   -4.0355 H   0  0  0  0  0  0  0  0  0  0  0  0
   -2.9218   -0.3513   -4.3562 H   0  0  0  0  0  0  0  0  0  0  0  0
   -4.6190    0.1784    1.3223 H   0  0  0  0  0  0  0  0  0  0  0  0
   -3.1803    1.0079    3.3341 H   0  0  0  0  0  0  0  0  0  0  0  0
   -4.6060   -0.9171    3.5812 H   0  0  0  0  0  0  0  0  0  0  0  0
  1  2  1  0  0  0  0
  1 37  1  0  0  0  0
  1 38  1  0  0  0  0
  1 39  1  0  0  0  0
  2 40  1  0  0  0  0
  3  4  1  0  0  0  0
  3  9  1  0  0  0  0
  3  2  1  0  0  0  0
  3 41  1  6  0  0  0
  4  5  1  0  0  0  0
  4 42  1  0  0  0  0
  4 43  1  0  0  0  0
  5  6  1  0  0  0  0
  5 29  1  0  0  0  0
  5 44  1  6  0  0  0
  6  7  1  0  0  0  0
  7  8  1  1  0  0  0
  7  9  1  0  0  0  0
  7 12  1  0  0  0  0
  8 45  1  0  0  0  0
  8 46  1  0  0  0  0
  8 47  1  0  0  0  0
  9 10  1  0  0  0  0
  9 48  1  6  0  0  0
 10 11  1  0  0  0  0
 11 49  1  0  0  0  0
 11 50  1  0  0  0  0
 11 51  1  0  0  0  0
 12 13  1  0  0  0  0
 12 31  1  0  0  0  0
 13 14  1  0  0  0  0
 13 18  2  0  0  0  0
 14 15  2  0  0  0  0
 14 52  1  0  0  0  0
 15 16  1  0  0  0  0
 15 53  1  0  0  0  0
 16 17  2  0  0  0  0
 16 54  1  0  0  0  0
 17 18  1  0  0  0  0
 17 55  1  0  0  0  0
 18 19  1  0  0  0  0
 19 20  1  0  0  0  0
 19 31  2  0  0  0  0
 20 21  2  0  0  0  0
 20 35  1  0  0  0  0
 21 22  1  0  0  0  0
 21 32  1  0  0  0  0
 22 23  1  0  0  0  0
 22 30  2  0  0  0  0
 23 24  1  0  0  0  0
 23 28  2  0  0  0  0
 24 25  2  0  0  0  0
 24 56  1  0  0  0  0
 25 26  1  0  0  0  0
 25 57  1  0  0  0  0
 26 27  2  0  0  0  0
 26 58  1  0  0  0  0
 27 28  1  0  0  0  0
 27 59  1  0  0  0  0
 28 29  1  0  0  0  0
 29 30  1  0  0  0  0
 30 31  1  0  0  0  0
 32 34  1  0  0  0  0
 32 33  1  0  0  0  0
 32 60  1  6  0  0  0
 33 61  1  0  0  0  0
 34 35  1  0  0  0  0
 34 62  1  0  0  0  0
 35 36  2  0  0  0  0
M  END
$$$$
