REMARK  Name = 
REMARK  14 active torsions:
REMARK  status: ('A' for Active; 'I' for Inactive)
REMARK    1  A    between atoms: C_1  and  C_2
REMARK    2  A    between atoms: C_2  and  C_3
REMARK    3  A    between atoms: C_3  and  C_4
REMARK    4  A    between atoms: C_3  and  O_5
REMARK    5  A    between atoms: O_5  and  C_6
REMARK    6  A    between atoms: C_6  and  C_8
REMARK    7  A    between atoms: C_12  and  N_13
REMARK    8  A    between atoms: C_14  and  C_16
REMARK    9  A    between atoms: C_16  and  C_17
REMARK   10  A    between atoms: C_17  and  N_18
REMARK   11  A    between atoms: N_18  and  C_19
REMARK   12  A    between atoms: N_18  and  C_20
REMARK   13  A    between atoms: N_23  and  C_24
REMARK   14  A    between atoms: C_31  and  C_32
REMARK                            x       y       z     vdW  Elec       q    Type
REMARK                         _______ _______ _______ _____ _____    ______ ____
ROOT
ATOM      1  C   UNL     1       0.472   1.492  -0.227  0.00  0.00    +0.000 C 
ATOM      2  C   UNL     1       0.962   2.545   0.840  0.00  0.00    +0.000 C 
ATOM      3  C   UNL     1       0.117   3.828   0.976  0.00  0.00    +0.000 C 
ATOM      4  N   UNL     1      -0.261   4.252  -0.370  0.00  0.00    +0.000 N 
ATOM      5  C   UNL     1      -1.225   3.316  -0.935  0.00  0.00    +0.000 C 
ATOM      6  C   UNL     1      -0.424   2.081  -1.350  0.00  0.00    +0.000 C 
ATOM      7  H   UNL     1       1.983   2.862   0.647  0.00  0.00    +0.000 HD
ATOM      8  H   UNL     1       1.034   2.076   1.832  0.00  0.00    +0.000 HD
ATOM      9  H   UNL     1       0.715   4.583   1.501  0.00  0.00    +0.000 HD
ATOM     10  H   UNL     1      -0.772   3.641   1.595  0.00  0.00    +0.000 HD
ATOM     11  H   UNL     1      -1.778   3.725  -1.786  0.00  0.00    +0.000 HD
ATOM     12  H   UNL     1      -1.996   3.051  -0.199  0.00  0.00    +0.000 HD
ATOM     13  H   UNL     1       0.223   2.359  -2.183  0.00  0.00    +0.000 HD
ATOM     14  H   UNL     1      -1.116   1.328  -1.744  0.00  0.00    +0.000 HD
ENDROOT
BRANCH   4  15
ATOM     15  C   UNL     1      -0.518   5.603  -0.601  0.00  0.00    +0.000 A 
ATOM     16  N   UNL     1      -0.731   6.442   0.452  0.00  0.00    +0.000 NA
ATOM     17  C   UNL     1      -0.965   7.751   0.223  0.00  0.00    +0.000 A 
ATOM     18  N   UNL     1      -1.013   8.394  -0.952  0.00  0.00    +0.000 NA
ATOM     19  C   UNL     1      -0.770   7.557  -1.968  0.00  0.00    +0.000 A 
ATOM     20  N   UNL     1      -0.744   7.951  -3.276  0.00  0.00    +0.000 N 
ATOM     21  C   UNL     1      -0.447   6.885  -4.075  0.00  0.00    +0.000 A 
ATOM     22  C   UNL     1      -0.268   5.777  -3.267  0.00  0.00    +0.000 A 
ATOM     23  C   UNL     1      -0.510   6.192  -1.902  0.00  0.00    +0.000 A 
ATOM     24  H   UNL     1      -1.141   8.365   1.101  0.00  0.00    +0.000 HD
ATOM     25  H   UNL     1      -0.914   8.897  -3.582  0.00  0.00    +0.000 HD
ATOM     26  H   UNL     1      -0.374   6.995  -5.149  0.00  0.00    +0.000 HD
BRANCH  22  27
ATOM     27  C   UNL     1       0.108   4.437  -3.778  0.00  0.00    +0.000 C 
ATOM     28  H   UNL     1       0.206   4.436  -4.868  0.00  0.00    +0.000 HD
ATOM     29  H   UNL     1      -0.672   3.710  -3.558  0.00  0.00    +0.000 HD
ATOM     30  H   UNL     1       1.063   4.113  -3.353  0.00  0.00    +0.000 HD
ENDBRANCH  22  27
ENDBRANCH   4  15
BRANCH   1  32
ATOM     31  N   UNL     1      -0.435  -0.830   0.205  0.00  0.00    +0.000 N 
ATOM     32  C   UNL     1      -0.444   0.512   0.569  0.00  0.00    +0.000 C 
ATOM     33  O   UNL     1      -1.177   0.968   1.449  0.00  0.00    +0.000 OA
ATOM     34  H   UNL     1       0.282  -1.168  -0.420  0.00  0.00    +0.000 HD
BRANCH  31  39
ATOM     35  C   UNL     1      -1.357  -4.239   1.339  0.00  0.00    +0.000 A 
ATOM     36  C   UNL     1      -2.453  -3.974   2.166  0.00  0.00    +0.000 A 
ATOM     37  C   UNL     1      -2.918  -2.669   2.304  0.00  0.00    +0.000 A 
ATOM     38  C   UNL     1      -2.281  -1.625   1.638  0.00  0.00    +0.000 A 
ATOM     39  C   UNL     1      -1.169  -1.863   0.831  0.00  0.00    +0.000 A 
ATOM     40  C   UNL     1      -0.732  -3.186   0.649  0.00  0.00    +0.000 A 
ATOM     41  H   UNL     1      -2.953  -4.770   2.716  0.00  0.00    +0.000 HD
ATOM     42  H   UNL     1      -3.770  -2.455   2.944  0.00  0.00    +0.000 HD
ATOM     43  H   UNL     1      -2.687  -0.625   1.769  0.00  0.00    +0.000 HD
ATOM     44  H   UNL     1       0.123  -3.403   0.017  0.00  0.00    +0.000 HD
BRANCH  35  45
ATOM     45  C   UNL     1      -0.801  -5.610   1.205  0.00  0.00    +0.000 C 
ATOM     46  O   UNL     1       0.083  -5.894   0.406  0.00  0.00    +0.000 OA
BRANCH  45  47
ATOM     47  O   UNL     1      -1.365  -6.450   2.103  0.00  0.00    +0.000 OA
BRANCH  47  48
ATOM     48  C   UNL     1      -0.819  -7.786   2.173  0.00  0.00    +0.000 C 
ATOM     49  H   UNL     1      -0.591  -8.151   1.164  0.00  0.00    +0.000 HD
BRANCH  48  50
ATOM     50  C   UNL     1      -1.906  -8.673   2.774  0.00  0.00    +0.000 C 
ATOM     51  H   UNL     1      -2.168  -8.342   3.785  0.00  0.00    +0.000 HD
ATOM     52  H   UNL     1      -1.599  -9.722   2.817  0.00  0.00    +0.000 HD
ATOM     53  H   UNL     1      -2.822  -8.612   2.177  0.00  0.00    +0.000 HD
ENDBRANCH  48  50
BRANCH  48  54
ATOM     54  C   UNL     1       0.449  -7.752   3.040  0.00  0.00    +0.000 C 
ATOM     55  H   UNL     1       1.162  -7.036   2.615  0.00  0.00    +0.000 HD
ATOM     56  H   UNL     1       0.206  -7.363   4.037  0.00  0.00    +0.000 HD
BRANCH  54  57
ATOM     57  C   UNL     1       1.136  -9.101   3.169  0.00  0.00    +0.000 C 
ATOM     58  H   UNL     1       2.070  -8.994   3.730  0.00  0.00    +0.000 HD
ATOM     59  H   UNL     1       1.378  -9.513   2.184  0.00  0.00    +0.000 HD
ATOM     60  H   UNL     1       0.512  -9.822   3.704  0.00  0.00    +0.000 HD
ENDBRANCH  54  57
ENDBRANCH  48  54
ENDBRANCH  47  48
ENDBRANCH  45  47
ENDBRANCH  35  45
ENDBRANCH  31  39
ENDBRANCH   1  32
BRANCH   1  61
ATOM     61  C   UNL     1       1.675   0.717  -0.893  0.00  0.00    +0.000 C 
ATOM     62  H   UNL     1       1.212  -0.055  -1.519  0.00  0.00    +0.000 HD
ATOM     63  H   UNL     1       2.238   0.196  -0.108  0.00  0.00    +0.000 HD
BRANCH  61  64
ATOM     64  N   UNL     1       2.607   1.348  -1.856  0.00  0.00    +0.000 NA
BRANCH  64  65
ATOM     65  C   UNL     1       3.384   2.459  -1.323  0.00  0.00    +0.000 C 
ATOM     66  H   UNL     1       2.744   3.319  -1.117  0.00  0.00    +0.000 HD
ATOM     67  H   UNL     1       4.105   2.823  -2.065  0.00  0.00    +0.000 HD
ATOM     68  H   UNL     1       3.942   2.174  -0.424  0.00  0.00    +0.000 HD
ENDBRANCH  64  65
BRANCH  64  69
ATOM     69  C   UNL     1       3.538   0.335  -2.385  0.00  0.00    +0.000 C 
ATOM     70  H   UNL     1       2.995  -0.482  -2.874  0.00  0.00    +0.000 HD
ATOM     71  H   UNL     1       4.167  -0.094  -1.595  0.00  0.00    +0.000 HD
ATOM     72  H   UNL     1       4.194   0.769  -3.147  0.00  0.00    +0.000 HD
ENDBRANCH  64  69
ENDBRANCH  61  64
ENDBRANCH   1  61
TORSDOF 14
