REMARK  Name = 
REMARK  4 active torsions:
REMARK  status: ('A' for Active; 'I' for Inactive)
REMARK    1  A    between atoms: C_1  and  O_2
REMARK    2  A    between atoms: O_2  and  C_3
REMARK    3  A    between atoms: C_12  and  C_13
REMARK    4  A    between atoms: C_17  and  O_18
REMARK                            x       y       z     vdW  Elec       q    Type
REMARK                         _______ _______ _______ _____ _____    ______ ____
ROOT
ATOM      1  C   UNL     1      -2.141   3.082   1.710  0.00  0.00    +0.000 A 
ATOM      2  C   UNL     1      -2.472   2.866   0.357  0.00  0.00    +0.000 A 
ATOM      3  C   UNL     1      -1.822   1.884  -0.394  0.00  0.00    +0.000 A 
ATOM      4  C   UNL     1      -0.840   1.143   0.234  0.00  0.00    +0.000 A 
ATOM      5  C   UNL     1      -0.493   1.361   1.566  0.00  0.00    +0.000 A 
ATOM      6  C   UNL     1      -1.123   2.336   2.322  0.00  0.00    +0.000 A 
ATOM      7  C   UNL     1       0.568   0.423   1.964  0.00  0.00    +0.000 C 
ATOM      8  O   UNL     1       1.097   0.347   3.053  0.00  0.00    +0.000 OA
ATOM      9  C   UNL     1       0.841  -0.401   0.757  0.00  0.00    +0.000 C 
ATOM     10  C   UNL     1       1.743  -1.393   0.725  0.00  0.00    +0.000 C 
ATOM     11  C   UNL     1      -0.043   0.061  -0.345  0.00  0.00    +0.000 C 
ATOM     12  O   UNL     1      -0.121  -0.337  -1.488  0.00  0.00    +0.000 OA
ATOM     13  H   UNL     1      -3.229   3.463  -0.143  0.00  0.00    +0.000 HD
ATOM     14  H   UNL     1      -2.076   1.711  -1.436  0.00  0.00    +0.000 HD
ATOM     15  H   UNL     1      -0.849   2.506   3.358  0.00  0.00    +0.000 HD
ATOM     16  H   UNL     1       2.323  -1.634   1.614  0.00  0.00    +0.000 HD
ENDROOT
BRANCH  10  17
ATOM     17  C   UNL     1       2.013  -2.224  -0.452  0.00  0.00    +0.000 A 
ATOM     18  C   UNL     1       2.990  -1.840  -1.377  0.00  0.00    +0.000 A 
ATOM     19  C   UNL     1       3.224  -2.623  -2.511  0.00  0.00    +0.000 A 
ATOM     20 BR   UNL     1       4.549  -2.066  -3.749  0.00  0.00    +0.000 Br
ATOM     21  C   UNL     1       2.493  -3.795  -2.728  0.00  0.00    +0.000 A 
ATOM     22  C   UNL     1       1.517  -4.177  -1.805  0.00  0.00    +0.000 A 
ATOM     23 BR   UNL     1       0.485  -5.751  -2.048  0.00  0.00    +0.000 Br
ATOM     24  C   UNL     1       1.277  -3.395  -0.670  0.00  0.00    +0.000 A 
ATOM     25  H   UNL     1       3.560  -0.927  -1.221  0.00  0.00    +0.000 HD
ATOM     26  H   UNL     1       0.508  -3.694   0.038  0.00  0.00    +0.000 HD
BRANCH  21  27
ATOM     27  O   UNL     1       2.723  -4.575  -3.832  0.00  0.00    +0.000 OA
ATOM     28  H   UNL     1       3.420  -4.147  -4.361  0.00  0.00    +0.000 HD
ENDBRANCH  21  27
ENDBRANCH  10  17
BRANCH   1  29
ATOM     29  O   UNL     1      -2.739   4.026   2.503  0.00  0.00    +0.000 OA
BRANCH  29  30
ATOM     30  C   UNL     1      -4.078   4.364   2.144  0.00  0.00    +0.000 C 
ATOM     31  H   UNL     1      -4.473   5.045   2.903  0.00  0.00    +0.000 HD
ATOM     32  H   UNL     1      -4.712   3.470   2.127  0.00  0.00    +0.000 HD
ATOM     33  H   UNL     1      -4.119   4.891   1.185  0.00  0.00    +0.000 HD
ENDBRANCH  29  30
ENDBRANCH   1  29
TORSDOF 4
