REMARK  Name = 
REMARK  7 active torsions:
REMARK  status: ('A' for Active; 'I' for Inactive)
REMARK    1  A    between atoms: C_4  and  O_5
REMARK    2  A    between atoms: C_6  and  O_7
REMARK    3  A    between atoms: C_13  and  O_14
REMARK    4  A    between atoms: C_15  and  O_16
REMARK    5  A    between atoms: N_19  and  C_20
REMARK    6  A    between atoms: C_20  and  C_21
REMARK    7  A    between atoms: C_24  and  N_25
REMARK                            x       y       z     vdW  Elec       q    Type
REMARK                         _______ _______ _______ _____ _____    ______ ____
ROOT
ATOM      1  O   UNL     1      -2.553   1.247  -0.649  0.00  0.00    +0.000 OA
ATOM      2  C   UNL     1      -1.332   1.164  -0.791  0.00  0.00    +0.000 A 
ATOM      3  C   UNL     1      -0.559   2.419  -0.841  0.00  0.00    +0.000 A 
ATOM      4  C   UNL     1      -1.245   3.646  -0.849  0.00  0.00    +0.000 A 
ATOM      5  C   UNL     1      -0.539   4.838  -0.926  0.00  0.00    +0.000 A 
ATOM      6  C   UNL     1       0.841   4.836  -0.979  0.00  0.00    +0.000 A 
ATOM      7  C   UNL     1       1.526   3.615  -0.966  0.00  0.00    +0.000 A 
ATOM      8  C   UNL     1       0.847   2.375  -0.903  0.00  0.00    +0.000 A 
ATOM      9  C   UNL     1       1.537   1.067  -0.916  0.00  0.00    +0.000 A 
ATOM     10  C   UNL     1       2.950   0.961  -0.909  0.00  0.00    +0.000 A 
ATOM     11  C   UNL     1       3.573  -0.281  -0.937  0.00  0.00    +0.000 A 
ATOM     12  C   UNL     1       2.814  -1.436  -0.969  0.00  0.00    +0.000 A 
ATOM     13  C   UNL     1       1.430  -1.374  -0.973  0.00  0.00    +0.000 A 
ATOM     14  C   UNL     1       0.772  -0.130  -0.943  0.00  0.00    +0.000 A 
ATOM     15  N   UNL     1      -0.659  -0.049  -0.909  0.00  0.00    +0.000 N 
ATOM     16  H   UNL     1       1.383   5.775  -1.039  0.00  0.00    +0.000 HD
ATOM     17  H   UNL     1       2.608   3.672  -1.021  0.00  0.00    +0.000 HD
ATOM     18  H   UNL     1       3.576   1.845  -0.876  0.00  0.00    +0.000 HD
ATOM     19  H   UNL     1       0.896  -2.318  -0.979  0.00  0.00    +0.000 HD
ENDROOT
BRANCH  15  20
ATOM     20  C   UNL     1      -1.491  -1.256  -0.940  0.00  0.00    +0.000 C 
ATOM     21  H   UNL     1      -1.095  -1.932  -1.710  0.00  0.00    +0.000 HD
ATOM     22  H   UNL     1      -2.502  -0.996  -1.283  0.00  0.00    +0.000 HD
BRANCH  20  23
ATOM     23  C   UNL     1      -1.624  -1.988   0.381  0.00  0.00    +0.000 A 
ATOM     24  C   UNL     1      -1.189  -1.442   1.600  0.00  0.00    +0.000 A 
ATOM     25  C   UNL     1      -1.219  -2.198   2.773  0.00  0.00    +0.000 A 
ATOM     26  C   UNL     1      -1.715  -3.505   2.738  0.00  0.00    +0.000 A 
ATOM     27  C   UNL     1      -2.240  -4.034   1.553  0.00  0.00    +0.000 A 
ATOM     28  C   UNL     1      -2.196  -3.273   0.383  0.00  0.00    +0.000 A 
ATOM     29  H   UNL     1      -0.788  -0.432   1.648  0.00  0.00    +0.000 HD
ATOM     30  H   UNL     1      -0.833  -1.761   3.692  0.00  0.00    +0.000 HD
ATOM     31  H   UNL     1      -2.660  -5.037   1.519  0.00  0.00    +0.000 HD
ATOM     32  H   UNL     1      -2.587  -3.700  -0.540  0.00  0.00    +0.000 HD
BRANCH  26  33
ATOM     33  N   UNL     1      -1.642  -4.341   3.941  0.00  0.00    +0.000 N 
ATOM     34  O   UNL     1      -1.104  -3.857   4.947  0.00  0.00    +0.000 OA
ATOM     35  O   UNL     1      -2.104  -5.489   3.875  0.00  0.00    +0.000 OA
ENDBRANCH  26  33
ENDBRANCH  20  23
ENDBRANCH  15  20
BRANCH   4  36
ATOM     36  O   UNL     1      -2.614   3.766  -0.794  0.00  0.00    +0.000 OA
ATOM     37  H   UNL     1      -2.985   2.857  -0.701  0.00  0.00    +0.000 HD
ENDBRANCH   4  36
BRANCH   5  38
ATOM     38  O   UNL     1      -1.207   6.027  -0.962  0.00  0.00    +0.000 OA
ATOM     39  H   UNL     1      -2.154   5.777  -0.937  0.00  0.00    +0.000 HD
ENDBRANCH   5  38
BRANCH  11  40
ATOM     40  O   UNL     1       4.934  -0.414  -0.932  0.00  0.00    +0.000 OA
ATOM     41  H   UNL     1       5.337   0.471  -0.904  0.00  0.00    +0.000 HD
ENDBRANCH  11  40
BRANCH  12  42
ATOM     42  O   UNL     1       3.426  -2.657  -0.993  0.00  0.00    +0.000 OA
ATOM     43  H   UNL     1       4.385  -2.458  -0.976  0.00  0.00    +0.000 HD
ENDBRANCH  12  42
TORSDOF 7
