REMARK  Name = 
REMARK  7 active torsions:
REMARK  status: ('A' for Active; 'I' for Inactive)
REMARK    1  A    between atoms: N_1  and  C_2
REMARK    2  A    between atoms: C_2  and  C_3
REMARK    3  A    between atoms: C_2  and  C_21
REMARK    4  A    between atoms: C_3  and  O_4
REMARK    5  A    between atoms: O_4  and  C_5
REMARK    6  A    between atoms: C_9  and  C_10
REMARK    7  A    between atoms: C_21  and  C_22
REMARK                            x       y       z     vdW  Elec       q    Type
REMARK                         _______ _______ _______ _____ _____    ______ ____
ROOT
ATOM      1  C   UNL     1       0.691   0.420  -0.121  0.00  0.00    +0.000 C 
ATOM      2  H   UNL     1       0.343   1.378  -0.529  0.00  0.00    +0.000 HD
ATOM      3  H   UNL     1       0.357  -0.396  -0.773  0.00  0.00    +0.000 HD
ENDROOT
BRANCH   1   4
ATOM      4  C   UNL     1       2.231   0.411  -0.084  0.00  0.00    +0.000 C 
ATOM      5  H   UNL     1       2.589   0.510  -1.118  0.00  0.00    +0.000 HD
BRANCH   4   6
ATOM      6  N   UNL     1       2.726   1.589   0.654  0.00  0.00    +0.000 NA
ATOM      7  H   UNL     1       3.743   1.511   0.753  0.00  0.00    +0.000 HD
ATOM      8  H   UNL     1       2.363   1.549   1.606  0.00  0.00    +0.000 HD
ENDBRANCH   4   6
BRANCH   4   9
ATOM      9  C   UNL     1       2.743  -0.928   0.496  0.00  0.00    +0.000 C 
ATOM     10  H   UNL     1       2.375  -1.756  -0.124  0.00  0.00    +0.000 HD
ATOM     11  H   UNL     1       2.323  -1.086   1.496  0.00  0.00    +0.000 HD
BRANCH   9  12
ATOM     12  C   UNL     1       4.238  -1.015   0.564  0.00  0.00    +0.000 A 
ATOM     13  C   UNL     1       5.117  -0.958  -0.500  0.00  0.00    +0.000 A 
ATOM     14  N   UNL     1       6.392  -1.016  -0.007  0.00  0.00    +0.000 N 
ATOM     15  C   UNL     1       6.367  -1.129   1.363  0.00  0.00    +0.000 A 
ATOM     16  C   UNL     1       7.421  -1.214   2.280  0.00  0.00    +0.000 A 
ATOM     17  C   UNL     1       7.094  -1.327   3.635  0.00  0.00    +0.000 A 
ATOM     18  C   UNL     1       5.766  -1.353   4.053  0.00  0.00    +0.000 A 
ATOM     19  C   UNL     1       4.726  -1.260   3.123  0.00  0.00    +0.000 A 
ATOM     20  C   UNL     1       5.028  -1.145   1.750  0.00  0.00    +0.000 A 
ATOM     21  H   UNL     1       4.943  -0.858  -1.564  0.00  0.00    +0.000 HD
ATOM     22  H   UNL     1       7.234  -0.974  -0.563  0.00  0.00    +0.000 HD
ATOM     23  H   UNL     1       8.457  -1.193   1.959  0.00  0.00    +0.000 HD
ATOM     24  H   UNL     1       7.890  -1.397   4.372  0.00  0.00    +0.000 HD
ATOM     25  H   UNL     1       5.533  -1.445   5.111  0.00  0.00    +0.000 HD
ATOM     26  H   UNL     1       3.694  -1.280   3.463  0.00  0.00    +0.000 HD
ENDBRANCH   9  12
ENDBRANCH   4   9
ENDBRANCH   1   4
BRANCH   1  27
ATOM     27  O   UNL     1       0.164   0.230   1.200  0.00  0.00    +0.000 OA
BRANCH  27  28
ATOM     28  C   UNL     1      -1.196   0.200   1.313  0.00  0.00    +0.000 A 
ATOM     29  C   UNL     1      -1.718   0.063   2.590  0.00  0.00    +0.000 A 
ATOM     30  N   UNL     1      -3.041   0.017   2.870  0.00  0.00    +0.000 NA
ATOM     31  C   UNL     1      -3.887   0.126   1.815  0.00  0.00    +0.000 A 
ATOM     32  C   UNL     1      -3.493   0.267   0.483  0.00  0.00    +0.000 A 
ATOM     33  C   UNL     1      -2.105   0.289   0.260  0.00  0.00    +0.000 A 
ATOM     34  H   UNL     1      -1.062  -0.018   3.453  0.00  0.00    +0.000 HD
ATOM     35  H   UNL     1      -4.936   0.101   2.097  0.00  0.00    +0.000 HD
ATOM     36  H   UNL     1      -1.745   0.362  -0.760  0.00  0.00    +0.000 HD
BRANCH  32  37
ATOM     37  C   UNL     1      -4.450   0.372  -0.641  0.00  0.00    +0.000 A 
ATOM     38  C   UNL     1      -5.685  -0.296  -0.628  0.00  0.00    +0.000 A 
ATOM     39  C   UNL     1      -6.552  -0.245  -1.727  0.00  0.00    +0.000 A 
ATOM     40  C   UNL     1      -6.197   0.465  -2.884  0.00  0.00    +0.000 A 
ATOM     41  C   UNL     1      -6.996   0.515  -4.029  0.00  0.00    +0.000 A 
ATOM     42  N   UNL     1      -6.671   1.177  -5.164  0.00  0.00    +0.000 NA
ATOM     43  C   UNL     1      -5.494   1.834  -5.162  0.00  0.00    +0.000 A 
ATOM     44  C   UNL     1      -4.628   1.860  -4.081  0.00  0.00    +0.000 A 
ATOM     45  C   UNL     1      -4.977   1.160  -2.920  0.00  0.00    +0.000 A 
ATOM     46  C   UNL     1      -4.135   1.120  -1.795  0.00  0.00    +0.000 A 
ATOM     47  H   UNL     1      -5.986  -0.895   0.230  0.00  0.00    +0.000 HD
ATOM     48  H   UNL     1      -7.497  -0.782  -1.680  0.00  0.00    +0.000 HD
ATOM     49  H   UNL     1      -7.950  -0.004  -4.070  0.00  0.00    +0.000 HD
ATOM     50  H   UNL     1      -5.251   2.354  -6.085  0.00  0.00    +0.000 HD
ATOM     51  H   UNL     1      -3.694   2.408  -4.154  0.00  0.00    +0.000 HD
ATOM     52  H   UNL     1      -3.204   1.685  -1.832  0.00  0.00    +0.000 HD
ENDBRANCH  32  37
ENDBRANCH  27  28
ENDBRANCH   1  27
TORSDOF 7
