REMARK  Name = 
REMARK  5 active torsions:
REMARK  status: ('A' for Active; 'I' for Inactive)
REMARK    1  A    between atoms: C_1  and  N_2
REMARK    2  A    between atoms: C_4  and  C_5
REMARK    3  A    between atoms: C_6  and  C_7
REMARK    4  A    between atoms: C_18  and  C_19
REMARK    5  A    between atoms: C_19  and  N_20
REMARK                            x       y       z     vdW  Elec       q    Type
REMARK                         _______ _______ _______ _____ _____    ______ ____
ROOT
ATOM      1  C   UNL     1       0.031   1.371  -0.533  0.00  0.00    +0.000 A 
ATOM      2  C   UNL     1       1.337   1.234  -0.043  0.00  0.00    +0.000 A 
ATOM      3  N   UNL     1       1.289   1.745   1.231  0.00  0.00    +0.000 N 
ATOM      4  C   UNL     1       0.059   2.272   1.550  0.00  0.00    +0.000 A 
ATOM      5  C   UNL     1      -0.369   2.923   2.724  0.00  0.00    +0.000 A 
ATOM      6  C   UNL     1      -1.688   3.358   2.800  0.00  0.00    +0.000 A 
ATOM      7  C   UNL     1      -2.556   3.132   1.743  0.00  0.00    +0.000 A 
ATOM      8  C   UNL     1      -2.120   2.472   0.576  0.00  0.00    +0.000 A 
ATOM      9  C   UNL     1      -0.773   2.041   0.464  0.00  0.00    +0.000 A 
ATOM     10  C   UNL     1       2.357   1.724   2.191  0.00  0.00    +0.000 C 
ATOM     11  C   UNL     1       3.659   1.126   1.729  0.00  0.00    +0.000 C 
ATOM     12  C   UNL     1       3.920   1.031   0.221  0.00  0.00    +0.000 C 
ATOM     13  C   UNL     1       2.637   0.633  -0.588  0.00  0.00    +0.000 C 
ATOM     14  H   UNL     1       0.309   3.094   3.553  0.00  0.00    +0.000 HD
ATOM     15  H   UNL     1      -2.031   3.875   3.692  0.00  0.00    +0.000 HD
ATOM     16  H   UNL     1      -3.586   3.475   1.817  0.00  0.00    +0.000 HD
ATOM     17  H   UNL     1      -2.829   2.308  -0.232  0.00  0.00    +0.000 HD
ATOM     18  H   UNL     1       1.995   1.146   3.052  0.00  0.00    +0.000 HD
ATOM     19  H   UNL     1       2.510   2.757   2.524  0.00  0.00    +0.000 HD
ATOM     20  H   UNL     1       4.454   1.727   2.186  0.00  0.00    +0.000 HD
ATOM     21  H   UNL     1       3.730   0.123   2.165  0.00  0.00    +0.000 HD
ATOM     22  H   UNL     1       4.218   2.024  -0.144  0.00  0.00    +0.000 HD
ATOM     23  H   UNL     1       2.534  -0.457  -0.639  0.00  0.00    +0.000 HD
ATOM     24  H   UNL     1       2.768   0.984  -1.623  0.00  0.00    +0.000 HD
ENDROOT
BRANCH   1  26
ATOM     25  C   UNL     1      -1.234  -0.166  -2.081  0.00  0.00    +0.000 C 
ATOM     26  C   UNL     1      -0.467   0.907  -1.788  0.00  0.00    +0.000 C 
ATOM     27  C   UNL     1      -0.253   1.661  -3.043  0.00  0.00    +0.000 C 
ATOM     28  O   UNL     1       0.439   2.648  -3.201  0.00  0.00    +0.000 OA
ATOM     29  N   UNL     1      -0.944   1.025  -4.011  0.00  0.00    +0.000 N 
ATOM     30  C   UNL     1      -1.452  -0.141  -3.559  0.00  0.00    +0.000 C 
ATOM     31  O   UNL     1      -1.936  -1.004  -4.245  0.00  0.00    +0.000 OA
ATOM     32  H   UNL     1      -0.898   1.265  -4.984  0.00  0.00    +0.000 HD
BRANCH  25  35
ATOM     33  N   UNL     1      -1.701  -2.592   0.547  0.00  0.00    +0.000 N 
ATOM     34  C   UNL     1      -1.048  -1.550  -0.042  0.00  0.00    +0.000 A 
ATOM     35  C   UNL     1      -1.700  -1.213  -1.210  0.00  0.00    +0.000 A 
ATOM     36  C   UNL     1      -2.819  -2.116  -1.329  0.00  0.00    +0.000 A 
ATOM     37  C   UNL     1      -3.872  -2.310  -2.254  0.00  0.00    +0.000 A 
ATOM     38  C   UNL     1      -4.794  -3.355  -2.072  0.00  0.00    +0.000 A 
ATOM     39  C   UNL     1      -4.698  -4.203  -0.977  0.00  0.00    +0.000 A 
ATOM     40  C   UNL     1      -3.691  -4.024  -0.030  0.00  0.00    +0.000 A 
ATOM     41  C   UNL     1      -2.770  -2.981  -0.223  0.00  0.00    +0.000 A 
ATOM     42  H   UNL     1      -0.164  -1.139   0.424  0.00  0.00    +0.000 HD
ATOM     43  H   UNL     1      -3.979  -1.672  -3.125  0.00  0.00    +0.000 HD
ATOM     44  H   UNL     1      -5.585  -3.507  -2.803  0.00  0.00    +0.000 HD
ATOM     45  H   UNL     1      -5.414  -5.013  -0.853  0.00  0.00    +0.000 HD
ATOM     46  H   UNL     1      -3.622  -4.686   0.828  0.00  0.00    +0.000 HD
BRANCH  33  47
ATOM     47  C   UNL     1      -1.298  -3.191   1.797  0.00  0.00    +0.000 C 
ATOM     48  H   UNL     1      -0.414  -2.674   2.181  0.00  0.00    +0.000 HD
ATOM     49  H   UNL     1      -1.062  -4.242   1.618  0.00  0.00    +0.000 HD
ATOM     50  H   UNL     1      -2.121  -3.087   2.509  0.00  0.00    +0.000 HD
ENDBRANCH  33  47
ENDBRANCH  25  35
ENDBRANCH   1  26
BRANCH  12  51
ATOM     51  C   UNL     1       5.168   0.094   0.051  0.00  0.00    +0.000 C 
ATOM     52  H   UNL     1       5.469  -0.008  -0.994  0.00  0.00    +0.000 HD
ATOM     53  H   UNL     1       4.942  -0.912   0.431  0.00  0.00    +0.000 HD
BRANCH  51  54
ATOM     54  N   UNL     1       6.326   0.583   0.824  0.00  0.00    +0.000 NA
ATOM     55  H   UNL     1       6.606   1.509   0.504  0.00  0.00    +0.000 HD
ATOM     56  H   UNL     1       7.136  -0.024   0.694  0.00  0.00    +0.000 HD
ENDBRANCH  51  54
ENDBRANCH  12  51
TORSDOF 5
