
 OpenBabel01112423003D

 60 63  0  0  0  0  0  0  0  0999 V2000
   12.0083   -3.5091    4.0095 C   0  0  0  0  0  0  0  0  0  0  0  0
   10.9981   -2.9575    3.1643 O   0  0  0  0  0  0  0  0  0  0  0  0
   11.2817   -2.9912    1.8382 C   0  0  0  0  0  0  0  0  0  0  0  0
   12.2933   -3.4503    1.3322 O   0  0  0  0  0  0  0  0  0  0  0  0
   10.1749   -2.3648    1.0613 C   0  0  0  0  0  0  0  0  0  0  0  0
    9.0282   -1.8602    1.6850 C   0  0  0  0  0  0  0  0  0  0  0  0
    8.0249   -1.2632    0.9250 C   0  0  0  0  0  0  0  0  0  0  0  0
    8.1586   -1.1601   -0.4609 C   0  0  0  0  0  0  0  0  0  0  0  0
    9.2958   -1.6535   -1.0999 C   0  0  0  0  0  0  0  0  0  0  0  0
    9.5214   -1.5481   -2.4863 N   0  0  0  0  0  0  0  0  0  0  0  0
    8.7860   -0.8489   -3.4263 C   0  0  0  0  0  0  0  0  0  0  0  0
    7.7020   -0.3101   -3.2145 O   0  0  0  0  0  0  0  0  0  0  0  0
    9.4088   -0.8357   -4.8479 C   0  0  0  0  0  0  0  0  0  0  0  0
   10.9809   -0.7709   -4.7734 C   0  0  0  0  0  0  0  0  0  0  0  0
   11.7341   -1.8574   -4.0788 N   0  0  0  0  0  0  0  0  0  0  0  0
   11.6461   -3.1671   -4.7368 C   0  0  0  0  0  0  0  0  0  0  0  0
   13.1574   -1.4822   -4.0068 C   0  0  0  0  0  0  0  0  0  0  0  0
    8.9525    0.4831   -5.5571 C   0  0  0  0  0  0  0  0  0  0  0  0
    7.5564    0.4631   -6.1888 C   0  0  0  0  0  0  0  0  0  0  0  0
    7.3828   -0.7650   -6.9378 N   0  0  0  0  0  0  0  0  0  0  0  0
    6.9875   -0.8220   -8.2562 C   0  0  0  0  0  0  0  0  0  0  0  0
    7.3747   -1.9069   -8.9946 N   0  0  0  0  0  0  0  0  0  0  0  0
    7.0634   -1.9710  -10.3035 C   0  0  0  0  0  0  0  0  0  0  0  0
    6.3845   -1.0774  -11.0361 N   0  0  0  0  0  0  0  0  0  0  0  0
    5.9835   -0.0440  -10.2808 C   0  0  0  0  0  0  0  0  0  0  0  0
    5.2573    1.0118  -10.7571 N   0  0  0  0  0  0  0  0  0  0  0  0
    4.9745    1.8783   -9.7349 C   0  0  0  0  0  0  0  0  0  0  0  0
    5.5321    1.3598   -8.5854 C   0  0  0  0  0  0  0  0  0  0  0  0
    6.2209    0.1563   -8.9293 C   0  0  0  0  0  0  0  0  0  0  0  0
    7.5210   -1.9903   -6.1796 C   0  0  0  0  0  0  0  0  0  0  0  0
    8.9402   -2.0759   -5.6386 C   0  0  0  0  0  0  0  0  0  0  0  0
   10.2993   -2.2657   -0.3336 C   0  0  0  0  0  0  0  0  0  0  0  0
   11.6208   -3.5113    5.0321 H   0  0  0  0  0  0  0  0  0  0  0  0
   12.9071   -2.8856    3.9805 H   0  0  0  0  0  0  0  0  0  0  0  0
   12.2372   -4.5403    3.7245 H   0  0  0  0  0  0  0  0  0  0  0  0
    8.9025   -1.9182    2.7638 H   0  0  0  0  0  0  0  0  0  0  0  0
    7.1357   -0.8672    1.4100 H   0  0  0  0  0  0  0  0  0  0  0  0
    7.3561   -0.6830   -1.0135 H   0  0  0  0  0  0  0  0  0  0  0  0
   10.4209   -1.9068   -2.8130 H   0  0  0  0  0  0  0  0  0  0  0  0
   11.2205    0.1634   -4.2417 H   0  0  0  0  0  0  0  0  0  0  0  0
   11.3833   -0.6531   -5.7890 H   0  0  0  0  0  0  0  0  0  0  0  0
   10.7237   -3.6751   -4.4509 H   0  0  0  0  0  0  0  0  0  0  0  0
   12.4363   -3.8438   -4.3905 H   0  0  0  0  0  0  0  0  0  0  0  0
   11.7154   -3.0992   -5.8271 H   0  0  0  0  0  0  0  0  0  0  0  0
   13.2875   -0.5479   -3.4513 H   0  0  0  0  0  0  0  0  0  0  0  0
   13.6003   -1.3663   -5.0030 H   0  0  0  0  0  0  0  0  0  0  0  0
   13.7267   -2.2461   -3.4642 H   0  0  0  0  0  0  0  0  0  0  0  0
    9.6638    0.7236   -6.3588 H   0  0  0  0  0  0  0  0  0  0  0  0
    8.9981    1.3279   -4.8553 H   0  0  0  0  0  0  0  0  0  0  0  0
    7.4985    1.3511   -6.8245 H   0  0  0  0  0  0  0  0  0  0  0  0
    6.7674    0.5542   -5.4358 H   0  0  0  0  0  0  0  0  0  0  0  0
    7.4098   -2.8546  -10.8302 H   0  0  0  0  0  0  0  0  0  0  0  0
    4.9722    1.1064  -11.7204 H   0  0  0  0  0  0  0  0  0  0  0  0
    4.3955    2.7760   -9.9062 H   0  0  0  0  0  0  0  0  0  0  0  0
    5.4483    1.8000   -7.6021 H   0  0  0  0  0  0  0  0  0  0  0  0
    7.3140   -2.8926   -6.7679 H   0  0  0  0  0  0  0  0  0  0  0  0
    6.7984   -1.9966   -5.3552 H   0  0  0  0  0  0  0  0  0  0  0  0
    9.6131   -2.2326   -6.4912 H   0  0  0  0  0  0  0  0  0  0  0  0
    8.9661   -2.9697   -5.0117 H   0  0  0  0  0  0  0  0  0  0  0  0
   11.1969   -2.6511   -0.8153 H   0  0  0  0  0  0  0  0  0  0  0  0
  1  2  1  0  0  0  0
  1 33  1  0  0  0  0
  1 34  1  0  0  0  0
  1 35  1  0  0  0  0
  2  3  1  0  0  0  0
  3  4  2  0  0  0  0
  3  5  1  0  0  0  0
  5  6  1  0  0  0  0
  5 32  2  0  0  0  0
  6  7  2  0  0  0  0
  6 36  1  0  0  0  0
  7  8  1  0  0  0  0
  7 37  1  0  0  0  0
  8  9  2  0  0  0  0
  8 38  1  0  0  0  0
  9 10  1  0  0  0  0
  9 32  1  0  0  0  0
 10 11  1  0  0  0  0
 10 39  1  0  0  0  0
 11 12  2  0  0  0  0
 11 13  1  0  0  0  0
 13 14  1  0  0  0  0
 13 18  1  0  0  0  0
 13 31  1  0  0  0  0
 14 15  1  0  0  0  0
 14 40  1  0  0  0  0
 14 41  1  0  0  0  0
 15 16  1  0  0  0  0
 15 17  1  0  0  0  0
 16 42  1  0  0  0  0
 16 43  1  0  0  0  0
 16 44  1  0  0  0  0
 17 45  1  0  0  0  0
 17 46  1  0  0  0  0
 17 47  1  0  0  0  0
 18 19  1  0  0  0  0
 18 48  1  0  0  0  0
 18 49  1  0  0  0  0
 19 20  1  0  0  0  0
 19 50  1  0  0  0  0
 19 51  1  0  0  0  0
 20 21  1  0  0  0  0
 20 30  1  0  0  0  0
 21 22  1  0  0  0  0
 21 29  2  0  0  0  0
 22 23  2  0  0  0  0
 23 24  1  0  0  0  0
 23 52  1  0  0  0  0
 24 25  2  0  0  0  0
 25 26  1  0  0  0  0
 25 29  1  0  0  0  0
 26 27  1  0  0  0  0
 26 53  1  0  0  0  0
 27 28  2  0  0  0  0
 27 54  1  0  0  0  0
 28 29  1  0  0  0  0
 28 55  1  0  0  0  0
 30 31  1  0  0  0  0
 30 56  1  0  0  0  0
 30 57  1  0  0  0  0
 31 58  1  0  0  0  0
 31 59  1  0  0  0  0
 32 60  1  0  0  0  0
M  END
$$$$
