
 OpenBabel01112422513D

 47 49  0  0  1  0  0  0  0  0999 V2000
    9.6532  -12.8929    3.5154 C   0  0  0  0  0  0  0  0  0  0  0  0
    9.6011  -13.5523    4.8021 N   0  0  0  0  0  0  0  0  0  0  0  0
    8.7632  -12.9411    5.7238 C   0  0  0  0  0  0  0  0  0  0  0  0
    9.0809  -13.0999    7.0128 N   0  0  0  0  0  0  0  0  0  0  0  0
    8.2754  -12.5084    7.9138 C   0  0  0  0  0  0  0  0  0  0  0  0
    7.1818  -11.7451    7.5767 C   0  0  0  0  0  0  0  0  0  0  0  0
    6.9450  -11.6216    6.2257 C   0  0  0  0  0  0  0  0  0  0  0  0
    5.8849  -10.7897    5.6338 C   0  0  0  0  0  0  0  0  0  0  0  0
    5.8214  -10.3097    4.3358 C   0  0  0  0  0  0  0  0  0  0  0  0
    4.6781   -9.4985    4.0951 C   0  0  0  0  0  0  0  0  0  0  0  0
    3.8850   -9.3624    5.2171 C   0  0  0  0  0  0  0  0  0  0  0  0
    2.6836   -8.5430    5.3380 C   0  0  0  0  0  0  0  0  0  0  0  0
    2.2968   -7.7959    4.4452 O   0  0  0  0  0  0  0  0  0  0  0  0
    2.0068   -8.6541    6.5343 N   0  0  0  0  0  0  0  0  0  0  0  0
    0.7826   -7.9279    6.8784 C   0  0  2  0  0  0  0  0  0  0  0  0
   -0.4032   -8.2661    5.9291 C   0  0  0  0  0  0  0  0  0  0  0  0
   -0.7000   -9.6982    5.8359 N   0  0  0  0  0  0  0  0  0  0  0  0
    0.9486   -6.3910    6.9356 C   0  0  0  0  0  0  0  0  0  0  0  0
    2.0376   -5.7870    7.8029 C   0  0  0  0  0  0  0  0  0  0  0  0
    2.9943   -4.9678    7.1744 C   0  0  0  0  0  0  0  0  0  0  0  0
    3.9265   -4.2371    7.9171 C   0  0  0  0  0  0  0  0  0  0  0  0
    3.9267   -4.3326    9.3036 C   0  0  0  0  0  0  0  0  0  0  0  0
    5.0397   -3.3979   10.2254 Cl  0  0  0  0  0  0  0  0  0  0  0  0
    3.0137   -5.1602    9.9523 C   0  0  0  0  0  0  0  0  0  0  0  0
    2.0691   -5.8767    9.2052 C   0  0  0  0  0  0  0  0  0  0  0  0
    0.9182   -6.8052   10.0969 Cl  0  0  0  0  0  0  0  0  0  0  0  0
    4.5065  -10.2860    6.5216 S   0  0  0  0  0  0  0  0  0  0  0  0
    7.7284  -12.2110    5.3028 N   0  0  0  0  0  0  0  0  0  0  0  0
   10.3791  -13.4041    2.8768 H   0  0  0  0  0  0  0  0  0  0  0  0
    9.9676  -11.8468    3.6072 H   0  0  0  0  0  0  0  0  0  0  0  0
    8.6848  -12.9343    3.0020 H   0  0  0  0  0  0  0  0  0  0  0  0
   10.4891  -13.7044    5.2655 H   0  0  0  0  0  0  0  0  0  0  0  0
    8.5547  -12.6605    8.9537 H   0  0  0  0  0  0  0  0  0  0  0  0
    6.5761  -11.2753    8.3386 H   0  0  0  0  0  0  0  0  0  0  0  0
    6.5865  -10.5184    3.5960 H   0  0  0  0  0  0  0  0  0  0  0  0
    4.4572   -9.0155    3.1496 H   0  0  0  0  0  0  0  0  0  0  0  0
    2.4051   -9.2683    7.2326 H   0  0  0  0  0  0  0  0  0  0  0  0
    0.5156   -8.3052    7.8702 H   0  0  0  0  0  0  0  0  0  0  0  0
   -1.3066   -7.7507    6.2758 H   0  0  0  0  0  0  0  0  0  0  0  0
   -0.2007   -7.8943    4.9193 H   0  0  0  0  0  0  0  0  0  0  0  0
   -1.1963  -10.0079    6.6685 H   0  0  0  0  0  0  0  0  0  0  0  0
    0.1777  -10.2155    5.8052 H   0  0  0  0  0  0  0  0  0  0  0  0
    0.0004   -5.9471    7.2691 H   0  0  0  0  0  0  0  0  0  0  0  0
    1.0785   -6.0220    5.9096 H   0  0  0  0  0  0  0  0  0  0  0  0
    2.9964   -4.8562    6.0890 H   0  0  0  0  0  0  0  0  0  0  0  0
    4.6283   -3.5802    7.4083 H   0  0  0  0  0  0  0  0  0  0  0  0
    3.0179   -5.2228   11.0356 H   0  0  0  0  0  0  0  0  0  0  0  0
  1  2  1  0  0  0  0
  1 29  1  0  0  0  0
  1 30  1  0  0  0  0
  1 31  1  0  0  0  0
  2  3  1  0  0  0  0
  2 32  1  0  0  0  0
  3  4  1  0  0  0  0
  3 28  2  0  0  0  0
  4  5  2  0  0  0  0
  5  6  1  0  0  0  0
  5 33  1  0  0  0  0
  6  7  2  0  0  0  0
  6 34  1  0  0  0  0
  7  8  1  0  0  0  0
  7 28  1  0  0  0  0
  8  9  2  0  0  0  0
  8 27  1  0  0  0  0
  9 10  1  0  0  0  0
  9 35  1  0  0  0  0
 10 11  2  0  0  0  0
 10 36  1  0  0  0  0
 11 12  1  0  0  0  0
 11 27  1  0  0  0  0
 12 13  2  0  0  0  0
 12 14  1  0  0  0  0
 14 37  1  0  0  0  0
 15 18  1  0  0  0  0
 15 16  1  0  0  0  0
 15 14  1  0  0  0  0
 15 38  1  1  0  0  0
 16 17  1  0  0  0  0
 16 39  1  0  0  0  0
 16 40  1  0  0  0  0
 17 41  1  0  0  0  0
 17 42  1  0  0  0  0
 18 19  1  0  0  0  0
 18 43  1  0  0  0  0
 18 44  1  0  0  0  0
 19 20  1  0  0  0  0
 19 25  2  0  0  0  0
 20 21  2  0  0  0  0
 20 45  1  0  0  0  0
 21 22  1  0  0  0  0
 21 46  1  0  0  0  0
 22 23  1  0  0  0  0
 22 24  2  0  0  0  0
 24 25  1  0  0  0  0
 24 47  1  0  0  0  0
 25 26  1  0  0  0  0
M  END
$$$$
