REMARK  Name = 
REMARK  8 active torsions:
REMARK  status: ('A' for Active; 'I' for Inactive)
REMARK    1  A    between atoms: C_2  and  C_3
REMARK    2  A    between atoms: C_9  and  C_10
REMARK    3  A    between atoms: C_14  and  O_15
REMARK    4  A    between atoms: O_15  and  C_16
REMARK    5  A    between atoms: C_16  and  C_17
REMARK    6  A    between atoms: C_17  and  N_18
REMARK    7  A    between atoms: C_17  and  C_19
REMARK    8  A    between atoms: C_19  and  C_20
REMARK                            x       y       z     vdW  Elec       q    Type
REMARK                         _______ _______ _______ _____ _____    ______ ____
ROOT
ATOM      1  C   UNL     1      -0.151  -0.189   3.235  0.00  0.00    +0.000 A 
ATOM      2  C   UNL     1      -1.159  -0.918   3.859  0.00  0.00    +0.000 A 
ATOM      3  N   UNL     1      -2.086  -1.663   3.205  0.00  0.00    +0.000 NA
ATOM      4  C   UNL     1      -2.018  -1.669   1.850  0.00  0.00    +0.000 A 
ATOM      5  C   UNL     1      -1.048  -0.998   1.126  0.00  0.00    +0.000 A 
ATOM      6  C   UNL     1      -0.100  -0.277   1.837  0.00  0.00    +0.000 A 
ATOM      7  H   UNL     1      -1.250  -0.928   4.944  0.00  0.00    +0.000 HD
ATOM      8  H   UNL     1      -2.791  -2.262   1.377  0.00  0.00    +0.000 HD
ATOM      9  H   UNL     1       0.662   0.254   1.271  0.00  0.00    +0.000 HD
ENDROOT
BRANCH   1  16
ATOM     10  C   UNL     1       4.274   2.115   4.166  0.00  0.00    +0.000 A 
ATOM     11  N   UNL     1       4.606   2.856   5.231  0.00  0.00    +0.000 NA
ATOM     12  N   UNL     1       3.490   2.897   5.974  0.00  0.00    +0.000 N 
ATOM     13  C   UNL     1       2.442   2.205   5.442  0.00  0.00    +0.000 A 
ATOM     14  C   UNL     1       1.137   2.013   5.862  0.00  0.00    +0.000 A 
ATOM     15  N   UNL     1       0.328   1.220   5.118  0.00  0.00    +0.000 NA
ATOM     16  C   UNL     1       0.796   0.641   3.980  0.00  0.00    +0.000 A 
ATOM     17  C   UNL     1       2.092   0.836   3.513  0.00  0.00    +0.000 A 
ATOM     18  C   UNL     1       2.933   1.650   4.272  0.00  0.00    +0.000 A 
ATOM     19  H   UNL     1       3.513   3.418   6.841  0.00  0.00    +0.000 HD
ATOM     20  H   UNL     1       0.715   2.449   6.759  0.00  0.00    +0.000 HD
ATOM     21  H   UNL     1       2.454   0.362   2.610  0.00  0.00    +0.000 HD
BRANCH  10  23
ATOM     22  C   UNL     1       6.406   2.254   2.954  0.00  0.00    +0.000 C 
ATOM     23  C   UNL     1       5.141   1.838   3.056  0.00  0.00    +0.000 C 
ATOM     24  H   UNL     1       7.000   2.032   2.073  0.00  0.00    +0.000 HD
ATOM     25  H   UNL     1       6.869   2.845   3.741  0.00  0.00    +0.000 HD
ATOM     26  H   UNL     1       4.728   1.260   2.230  0.00  0.00    +0.000 HD
ENDBRANCH  10  23
ENDBRANCH   1  16
BRANCH   5  27
ATOM     27  O   UNL     1      -0.885  -0.982  -0.224  0.00  0.00    +0.000 OA
BRANCH  27  28
ATOM     28  C   UNL     1      -2.082  -1.060  -1.004  0.00  0.00    +0.000 C 
ATOM     29  H   UNL     1      -2.740  -0.220  -0.750  0.00  0.00    +0.000 HD
ATOM     30  H   UNL     1      -2.602  -2.006  -0.817  0.00  0.00    +0.000 HD
BRANCH  28  31
ATOM     31  C   UNL     1      -1.678  -0.976  -2.493  0.00  0.00    +0.000 C 
ATOM     32  H   UNL     1      -1.111  -0.048  -2.642  0.00  0.00    +0.000 HD
BRANCH  31  33
ATOM     33  N   UNL     1      -0.765  -2.083  -2.842  0.00  0.00    +0.000 NA
ATOM     34  H   UNL     1      -1.235  -2.978  -2.717  0.00  0.00    +0.000 HD
ATOM     35  H   UNL     1       0.014  -2.076  -2.182  0.00  0.00    +0.000 HD
ENDBRANCH  31  33
BRANCH  31  36
ATOM     36  C   UNL     1      -2.940  -0.965  -3.382  0.00  0.00    +0.000 C 
ATOM     37  H   UNL     1      -3.567  -0.104  -3.115  0.00  0.00    +0.000 HD
ATOM     38  H   UNL     1      -3.544  -1.856  -3.166  0.00  0.00    +0.000 HD
BRANCH  36  39
ATOM     39  C   UNL     1      -2.661  -0.886  -4.866  0.00  0.00    +0.000 A 
ATOM     40  C   UNL     1      -3.108  -1.897  -5.728  0.00  0.00    +0.000 A 
ATOM     41  C   UNL     1      -2.836  -1.833  -7.096  0.00  0.00    +0.000 A 
ATOM     42  C   UNL     1      -2.122  -0.755  -7.616  0.00  0.00    +0.000 A 
ATOM     43  C   UNL     1      -1.686   0.262  -6.771  0.00  0.00    +0.000 A 
ATOM     44  C   UNL     1      -1.957   0.200  -5.404  0.00  0.00    +0.000 A 
ATOM     45  H   UNL     1      -3.662  -2.749  -5.341  0.00  0.00    +0.000 HD
ATOM     46  H   UNL     1      -3.178  -2.626  -7.755  0.00  0.00    +0.000 HD
ATOM     47  H   UNL     1      -1.905  -0.709  -8.679  0.00  0.00    +0.000 HD
ATOM     48  H   UNL     1      -1.129   1.104  -7.174  0.00  0.00    +0.000 HD
ATOM     49  H   UNL     1      -1.603   1.001  -4.759  0.00  0.00    +0.000 HD
ENDBRANCH  36  39
ENDBRANCH  31  36
ENDBRANCH  28  31
ENDBRANCH  27  28
ENDBRANCH   5  27
TORSDOF 8
