MODEL 1
REMARK VINA RESULT:   -10.095      0.000      0.000
REMARK INTER + INTRA:         -13.843
REMARK INTER:                 -13.046
REMARK INTRA:                  -0.797
REMARK UNBOUND:                -0.797
REMARK  Name = 
REMARK  7 active torsions:
REMARK  status: ('A' for Active; 'I' for Inactive)
REMARK    1  A    between atoms: O_1  and  C_2
REMARK    2  A    between atoms: C_8  and  O_9
REMARK    3  A    between atoms: C_10  and  O_11
REMARK    4  A    between atoms: N_13  and  C_14
REMARK    5  A    between atoms: C_14  and  C_15
REMARK    6  A    between atoms: C_18  and  C_19
REMARK    7  A    between atoms: C_27  and  O_28
REMARK                            x       y       z     vdW  Elec       q    Type
REMARK                         _______ _______ _______ _____ _____    ______ ____
ROOT
ATOM      1  C   UNL     1      -5.912  -4.611  20.461  0.00  0.00    +0.000 A 
ATOM      2  C   UNL     1      -7.156  -4.010  20.260  0.00  0.00    +0.000 A 
ATOM      3  C   UNL     1      -8.040  -4.554  19.302  0.00  0.00    +0.000 A 
ATOM      4  C   UNL     1      -9.350  -4.187  18.870  0.00  0.00    +0.000 A 
ATOM      5  C   UNL     1     -10.209  -3.113  19.195  0.00  0.00    +0.000 A 
ATOM      6  C   UNL     1     -11.492  -3.049  18.643  0.00  0.00    +0.000 A 
ATOM      7  C   UNL     1     -11.934  -4.081  17.829  0.00  0.00    +0.000 A 
ATOM      8  C   UNL     1     -11.108  -5.161  17.505  0.00  0.00    +0.000 A 
ATOM      9  C   UNL     1      -9.790  -5.169  17.980  0.00  0.00    +0.000 A 
ATOM     10  N   UNL     1      -8.710  -5.997  17.727  0.00  0.00    +0.000 N 
ATOM     11  C   UNL     1      -7.654  -5.682  18.573  0.00  0.00    +0.000 A 
ATOM     12  C   UNL     1      -6.389  -6.280  18.750  0.00  0.00    +0.000 A 
ATOM     13  C   UNL     1      -5.531  -5.717  19.716  0.00  0.00    +0.000 A 
ATOM     14  H   UNL     1      -7.461  -3.143  20.836  0.00  0.00    +0.000 HD
ATOM     15  H   UNL     1      -9.867  -2.330  19.867  0.00  0.00    +0.000 HD
ATOM     16  H   UNL     1     -12.128  -2.203  18.884  0.00  0.00    +0.000 HD
ATOM     17  H   UNL     1      -6.099  -7.149  18.177  0.00  0.00    +0.000 HD
ENDROOT
BRANCH  10  18
ATOM     18  C   UNL     1      -8.632  -6.947  16.613  0.00  0.00    +0.000 C 
ATOM     19  H   UNL     1      -7.615  -6.840  16.209  0.00  0.00    +0.000 HD
ATOM     20  H   UNL     1      -9.318  -6.625  15.823  0.00  0.00    +0.000 HD
BRANCH  18  21
ATOM     21  C   UNL     1      -8.846  -8.400  16.975  0.00  0.00    +0.000 A 
ATOM     22  C   UNL     1      -8.843  -8.868  18.293  0.00  0.00    +0.000 A 
ATOM     23  C   UNL     1      -8.835 -10.238  18.560  0.00  0.00    +0.000 A 
ATOM     24  C   UNL     1      -8.844 -11.169  17.514  0.00  0.00    +0.000 A 
ATOM     25  C   UNL     1      -9.007 -10.706  16.201  0.00  0.00    +0.000 A 
ATOM     26  C   UNL     1      -9.007  -9.334  15.936  0.00  0.00    +0.000 A 
ATOM     27  H   UNL     1      -8.794  -8.177  19.133  0.00  0.00    +0.000 HD
ATOM     28  H   UNL     1      -8.763 -10.571  19.595  0.00  0.00    +0.000 HD
ATOM     29  H   UNL     1      -9.077 -11.412  15.376  0.00  0.00    +0.000 HD
ATOM     30  H   UNL     1      -9.084  -8.998  14.902  0.00  0.00    +0.000 HD
BRANCH  24  31
ATOM     31  C   UNL     1      -8.598 -12.631  17.782  0.00  0.00    +0.000 C 
ATOM     32  F   UNL     1      -9.587 -13.225  18.508  0.00  0.00    +0.000 F 
ATOM     33  F   UNL     1      -8.462 -13.373  16.651  0.00  0.00    +0.000 F 
ATOM     34  F   UNL     1      -7.454 -12.829  18.500  0.00  0.00    +0.000 F 
ENDBRANCH  24  31
ENDBRANCH  18  21
ENDBRANCH  10  18
BRANCH   1  35
ATOM     35  O   UNL     1      -5.058  -4.107  21.404  0.00  0.00    +0.000 OA
ATOM     36  H   UNL     1      -4.928  -3.160  21.239  0.00  0.00    +0.000 HD
ENDBRANCH   1  35
BRANCH   7  37
ATOM     37  O   UNL     1     -13.199  -4.077  17.303  0.00  0.00    +0.000 OA
ATOM     38  H   UNL     1     -13.523  -4.996  17.298  0.00  0.00    +0.000 HD
ENDBRANCH   7  37
BRANCH   8  39
ATOM     39  O   UNL     1     -11.618  -6.193  16.757  0.00  0.00    +0.000 OA
ATOM     40  H   UNL     1     -11.280  -6.019  15.854  0.00  0.00    +0.000 HD
ENDBRANCH   8  39
BRANCH  13  41
ATOM     41  O   UNL     1      -4.298  -6.272  19.931  0.00  0.00    +0.000 OA
ATOM     42  H   UNL     1      -3.850  -6.386  19.082  0.00  0.00    +0.000 HD
ENDBRANCH  13  41
TORSDOF 7
ENDMDL
MODEL 2
REMARK VINA RESULT:    -9.027      4.372      7.279
REMARK INTER + INTRA:         -12.463
REMARK INTER:                 -12.180
REMARK INTRA:                  -0.284
REMARK UNBOUND:                -0.797
REMARK  Name = 
REMARK  7 active torsions:
REMARK  status: ('A' for Active; 'I' for Inactive)
REMARK    1  A    between atoms: O_1  and  C_2
REMARK    2  A    between atoms: C_8  and  O_9
REMARK    3  A    between atoms: C_10  and  O_11
REMARK    4  A    between atoms: N_13  and  C_14
REMARK    5  A    between atoms: C_14  and  C_15
REMARK    6  A    between atoms: C_18  and  C_19
REMARK    7  A    between atoms: C_27  and  O_28
REMARK                            x       y       z     vdW  Elec       q    Type
REMARK                         _______ _______ _______ _____ _____    ______ ____
ROOT
ATOM      1  C   UNL     1      -9.726  -5.896  14.847  0.00  0.00    +0.000 A 
ATOM      2  C   UNL     1      -9.464  -7.256  14.676  0.00  0.00    +0.000 A 
ATOM      3  C   UNL     1      -9.207  -8.059  15.810  0.00  0.00    +0.000 A 
ATOM      4  C   UNL     1      -8.914  -9.447  15.971  0.00  0.00    +0.000 A 
ATOM      5  C   UNL     1      -8.712 -10.505  15.056  0.00  0.00    +0.000 A 
ATOM      6  C   UNL     1      -8.497 -11.805  15.524  0.00  0.00    +0.000 A 
ATOM      7  C   UNL     1      -8.549 -12.055  16.887  0.00  0.00    +0.000 A 
ATOM      8  C   UNL     1      -8.763 -11.026  17.811  0.00  0.00    +0.000 A 
ATOM      9  C   UNL     1      -8.877  -9.712  17.342  0.00  0.00    +0.000 A 
ATOM     10  N   UNL     1      -8.947  -8.491  17.991  0.00  0.00    +0.000 N 
ATOM     11  C   UNL     1      -9.217  -7.477  17.080  0.00  0.00    +0.000 A 
ATOM     12  C   UNL     1      -9.453  -6.098  17.261  0.00  0.00    +0.000 A 
ATOM     13  C   UNL     1      -9.712  -5.325  16.111  0.00  0.00    +0.000 A 
ATOM     14  H   UNL     1      -9.470  -7.710  13.691  0.00  0.00    +0.000 HD
ATOM     15  H   UNL     1      -8.714 -10.305  13.988  0.00  0.00    +0.000 HD
ATOM     16  H   UNL     1      -8.318 -12.599  14.807  0.00  0.00    +0.000 HD
ATOM     17  H   UNL     1      -9.454  -5.658  18.247  0.00  0.00    +0.000 HD
ENDROOT
BRANCH  10  18
ATOM     18  C   UNL     1      -8.613  -8.278  19.402  0.00  0.00    +0.000 C 
ATOM     19  H   UNL     1      -7.989  -9.138  19.687  0.00  0.00    +0.000 HD
ATOM     20  H   UNL     1      -9.528  -8.345  19.998  0.00  0.00    +0.000 HD
BRANCH  18  21
ATOM     21  C   UNL     1      -7.841  -7.013  19.710  0.00  0.00    +0.000 A 
ATOM     22  C   UNL     1      -6.483  -6.856  19.416  0.00  0.00    +0.000 A 
ATOM     23  C   UNL     1      -5.774  -5.758  19.906  0.00  0.00    +0.000 A 
ATOM     24  C   UNL     1      -6.411  -4.788  20.688  0.00  0.00    +0.000 A 
ATOM     25  C   UNL     1      -7.802  -4.859  20.849  0.00  0.00    +0.000 A 
ATOM     26  C   UNL     1      -8.509  -5.963  20.365  0.00  0.00    +0.000 A 
ATOM     27  H   UNL     1      -5.942  -7.609  18.847  0.00  0.00    +0.000 HD
ATOM     28  H   UNL     1      -4.702  -5.699  19.718  0.00  0.00    +0.000 HD
ATOM     29  H   UNL     1      -8.330  -4.085  21.403  0.00  0.00    +0.000 HD
ATOM     30  H   UNL     1      -9.582  -6.021  20.547  0.00  0.00    +0.000 HD
BRANCH  24  31
ATOM     31  C   UNL     1      -5.612  -3.735  21.412  0.00  0.00    +0.000 C 
ATOM     32  F   UNL     1      -4.416  -3.458  20.823  0.00  0.00    +0.000 F 
ATOM     33  F   UNL     1      -6.262  -2.545  21.525  0.00  0.00    +0.000 F 
ATOM     34  F   UNL     1      -5.309  -4.118  22.687  0.00  0.00    +0.000 F 
ENDBRANCH  24  31
ENDBRANCH  18  21
ENDBRANCH  10  18
BRANCH   1  35
ATOM     35  O   UNL     1     -10.001  -5.115  13.758  0.00  0.00    +0.000 OA
ATOM     36  H   UNL     1     -10.362  -4.267  14.059  0.00  0.00    +0.000 HD
ENDBRANCH   1  35
BRANCH   7  37
ATOM     37  O   UNL     1      -8.387 -13.321  17.383  0.00  0.00    +0.000 OA
ATOM     38  H   UNL     1      -8.590 -13.298  18.335  0.00  0.00    +0.000 HD
ENDBRANCH   7  37
BRANCH   8  39
ATOM     39  O   UNL     1      -8.880 -11.338  19.142  0.00  0.00    +0.000 OA
ATOM     40  H   UNL     1      -8.671 -10.498  19.600  0.00  0.00    +0.000 HD
ENDBRANCH   8  39
BRANCH  13  41
ATOM     41  O   UNL     1      -9.959  -3.985  16.240  0.00  0.00    +0.000 OA
ATOM     42  H   UNL     1      -9.415  -3.500  15.605  0.00  0.00    +0.000 HD
ENDBRANCH  13  41
TORSDOF 7
ENDMDL
MODEL 3
REMARK VINA RESULT:    -8.984      2.291      4.741
REMARK INTER + INTRA:         -12.407
REMARK INTER:                 -11.797
REMARK INTRA:                  -0.610
REMARK UNBOUND:                -0.797
REMARK  Name = 
REMARK  7 active torsions:
REMARK  status: ('A' for Active; 'I' for Inactive)
REMARK    1  A    between atoms: O_1  and  C_2
REMARK    2  A    between atoms: C_8  and  O_9
REMARK    3  A    between atoms: C_10  and  O_11
REMARK    4  A    between atoms: N_13  and  C_14
REMARK    5  A    between atoms: C_14  and  C_15
REMARK    6  A    between atoms: C_18  and  C_19
REMARK    7  A    between atoms: C_27  and  O_28
REMARK                            x       y       z     vdW  Elec       q    Type
REMARK                         _______ _______ _______ _____ _____    ______ ____
ROOT
ATOM      1  C   UNL     1     -11.168  -2.852  14.486  0.00  0.00    +0.000 A 
ATOM      2  C   UNL     1     -10.545  -2.561  15.701  0.00  0.00    +0.000 A 
ATOM      3  C   UNL     1     -10.371  -3.589  16.653  0.00  0.00    +0.000 A 
ATOM      4  C   UNL     1      -9.787  -3.620  17.955  0.00  0.00    +0.000 A 
ATOM      5  C   UNL     1      -9.231  -2.622  18.788  0.00  0.00    +0.000 A 
ATOM      6  C   UNL     1      -8.666  -2.972  20.018  0.00  0.00    +0.000 A 
ATOM      7  C   UNL     1      -8.597  -4.308  20.381  0.00  0.00    +0.000 A 
ATOM      8  C   UNL     1      -9.127  -5.314  19.566  0.00  0.00    +0.000 A 
ATOM      9  C   UNL     1      -9.782  -4.949  18.383  0.00  0.00    +0.000 A 
ATOM     10  N   UNL     1     -10.516  -5.673  17.459  0.00  0.00    +0.000 N 
ATOM     11  C   UNL     1     -10.827  -4.878  16.363  0.00  0.00    +0.000 A 
ATOM     12  C   UNL     1     -11.481  -5.177  15.150  0.00  0.00    +0.000 A 
ATOM     13  C   UNL     1     -11.635  -4.130  14.218  0.00  0.00    +0.000 A 
ATOM     14  H   UNL     1     -10.179  -1.564  15.920  0.00  0.00    +0.000 HD
ATOM     15  H   UNL     1      -9.253  -1.582  18.476  0.00  0.00    +0.000 HD
ATOM     16  H   UNL     1      -8.267  -2.189  20.656  0.00  0.00    +0.000 HD
ATOM     17  H   UNL     1     -11.834  -6.175  14.938  0.00  0.00    +0.000 HD
ENDROOT
BRANCH  10  18
ATOM     18  C   UNL     1     -11.037  -7.025  17.685  0.00  0.00    +0.000 C 
ATOM     19  H   UNL     1     -12.020  -7.044  17.191  0.00  0.00    +0.000 HD
ATOM     20  H   UNL     1     -11.224  -7.158  18.756  0.00  0.00    +0.000 HD
BRANCH  18  21
ATOM     21  C   UNL     1     -10.202  -8.152  17.121  0.00  0.00    +0.000 A 
ATOM     22  C   UNL     1     -10.149  -8.456  15.757  0.00  0.00    +0.000 A 
ATOM     23  C   UNL     1      -9.534  -9.628  15.315  0.00  0.00    +0.000 A 
ATOM     24  C   UNL     1      -8.945 -10.513  16.226  0.00  0.00    +0.000 A 
ATOM     25  C   UNL     1      -8.856 -10.133  17.572  0.00  0.00    +0.000 A 
ATOM     26  C   UNL     1      -9.480  -8.964  18.015  0.00  0.00    +0.000 A 
ATOM     27  H   UNL     1     -10.631  -7.815  15.022  0.00  0.00    +0.000 HD
ATOM     28  H   UNL     1      -9.569  -9.871  14.253  0.00  0.00    +0.000 HD
ATOM     29  H   UNL     1      -8.350 -10.777  18.291  0.00  0.00    +0.000 HD
ATOM     30  H   UNL     1      -9.441  -8.716  19.075  0.00  0.00    +0.000 HD
BRANCH  24  31
ATOM     31  C   UNL     1      -8.491 -11.881  15.787  0.00  0.00    +0.000 C 
ATOM     32  F   UNL     1      -9.419 -12.552  15.050  0.00  0.00    +0.000 F 
ATOM     33  F   UNL     1      -7.356 -11.861  15.038  0.00  0.00    +0.000 F 
ATOM     34  F   UNL     1      -8.220 -12.690  16.854  0.00  0.00    +0.000 F 
ENDBRANCH  24  31
ENDBRANCH  18  21
ENDBRANCH  10  18
BRANCH   1  35
ATOM     35  O   UNL     1     -11.319  -1.868  13.547  0.00  0.00    +0.000 OA
ATOM     36  H   UNL     1     -10.992  -2.193  12.693  0.00  0.00    +0.000 HD
ENDBRANCH   1  35
BRANCH   7  37
ATOM     37  O   UNL     1      -8.012  -4.695  21.558  0.00  0.00    +0.000 OA
ATOM     38  H   UNL     1      -7.128  -5.046  21.350  0.00  0.00    +0.000 HD
ENDBRANCH   7  37
BRANCH   8  39
ATOM     39  O   UNL     1      -8.967  -6.626  19.935  0.00  0.00    +0.000 OA
ATOM     40  H   UNL     1      -8.542  -7.040  19.156  0.00  0.00    +0.000 HD
ENDBRANCH   8  39
BRANCH  13  41
ATOM     41  O   UNL     1     -12.253  -4.376  13.021  0.00  0.00    +0.000 OA
ATOM     42  H   UNL     1     -12.235  -5.326  12.845  0.00  0.00    +0.000 HD
ENDBRANCH  13  41
TORSDOF 7
ENDMDL
MODEL 4
REMARK VINA RESULT:    -8.587      4.899      6.828
REMARK INTER + INTRA:         -11.894
REMARK INTER:                 -11.097
REMARK INTRA:                  -0.797
REMARK UNBOUND:                -0.797
REMARK  Name = 
REMARK  7 active torsions:
REMARK  status: ('A' for Active; 'I' for Inactive)
REMARK    1  A    between atoms: O_1  and  C_2
REMARK    2  A    between atoms: C_8  and  O_9
REMARK    3  A    between atoms: C_10  and  O_11
REMARK    4  A    between atoms: N_13  and  C_14
REMARK    5  A    between atoms: C_14  and  C_15
REMARK    6  A    between atoms: C_18  and  C_19
REMARK    7  A    between atoms: C_27  and  O_28
REMARK                            x       y       z     vdW  Elec       q    Type
REMARK                         _______ _______ _______ _____ _____    ______ ____
ROOT
ATOM      1  C   UNL     1      -8.130  -4.892  20.386  0.00  0.00    +0.000 A 
ATOM      2  C   UNL     1      -8.098  -6.265  20.135  0.00  0.00    +0.000 A 
ATOM      3  C   UNL     1      -8.818  -6.783  19.036  0.00  0.00    +0.000 A 
ATOM      4  C   UNL     1      -8.984  -8.104  18.519  0.00  0.00    +0.000 A 
ATOM      5  C   UNL     1      -8.544  -9.374  18.954  0.00  0.00    +0.000 A 
ATOM      6  C   UNL     1      -8.818 -10.511  18.188  0.00  0.00    +0.000 A 
ATOM      7  C   UNL     1      -9.464 -10.371  16.969  0.00  0.00    +0.000 A 
ATOM      8  C   UNL     1      -9.895  -9.122  16.511  0.00  0.00    +0.000 A 
ATOM      9  C   UNL     1      -9.708  -8.002  17.329  0.00  0.00    +0.000 A 
ATOM     10  N   UNL     1     -10.137  -6.689  17.229  0.00  0.00    +0.000 N 
ATOM     11  C   UNL     1      -9.550  -5.914  18.222  0.00  0.00    +0.000 A 
ATOM     12  C   UNL     1      -9.610  -4.530  18.484  0.00  0.00    +0.000 A 
ATOM     13  C   UNL     1      -8.878  -4.042  19.585  0.00  0.00    +0.000 A 
ATOM     14  H   UNL     1      -7.519  -6.937  20.758  0.00  0.00    +0.000 HD
ATOM     15  H   UNL     1      -8.003  -9.468  19.892  0.00  0.00    +0.000 HD
ATOM     16  H   UNL     1      -8.495 -11.481  18.552  0.00  0.00    +0.000 HD
ATOM     17  H   UNL     1     -10.184  -3.868  17.851  0.00  0.00    +0.000 HD
ENDROOT
BRANCH  10  18
ATOM     18  C   UNL     1     -11.189  -6.224  16.321  0.00  0.00    +0.000 C 
ATOM     19  H   UNL     1     -12.019  -5.911  16.972  0.00  0.00    +0.000 HD
ATOM     20  H   UNL     1     -11.554  -7.074  15.736  0.00  0.00    +0.000 HD
BRANCH  18  21
ATOM     21  C   UNL     1     -10.820  -5.056  15.433  0.00  0.00    +0.000 A 
ATOM     22  C   UNL     1     -11.587  -3.889  15.347  0.00  0.00    +0.000 A 
ATOM     23  C   UNL     1     -11.318  -2.935  14.364  0.00  0.00    +0.000 A 
ATOM     24  C   UNL     1     -10.269  -3.121  13.457  0.00  0.00    +0.000 A 
ATOM     25  C   UNL     1      -9.403  -4.208  13.641  0.00  0.00    +0.000 A 
ATOM     26  C   UNL     1      -9.677  -5.166  14.621  0.00  0.00    +0.000 A 
ATOM     27  H   UNL     1     -12.437  -3.727  16.006  0.00  0.00    +0.000 HD
ATOM     28  H   UNL     1     -11.975  -2.071  14.278  0.00  0.00    +0.000 HD
ATOM     29  H   UNL     1      -8.544  -4.342  12.985  0.00  0.00    +0.000 HD
ATOM     30  H   UNL     1      -9.018  -6.029  14.712  0.00  0.00    +0.000 HD
BRANCH  24  31
ATOM     31  C   UNL     1     -10.120  -2.222  12.256  0.00  0.00    +0.000 C 
ATOM     32  F   UNL     1      -8.823  -1.947  11.940  0.00  0.00    +0.000 F 
ATOM     33  F   UNL     1     -10.684  -2.729  11.128  0.00  0.00    +0.000 F 
ATOM     34  F   UNL     1     -10.710  -1.008  12.457  0.00  0.00    +0.000 F 
ENDBRANCH  24  31
ENDBRANCH  18  21
ENDBRANCH  10  18
BRANCH   1  35
ATOM     35  O   UNL     1      -7.416  -4.377  21.434  0.00  0.00    +0.000 OA
ATOM     36  H   UNL     1      -7.930  -4.483  22.250  0.00  0.00    +0.000 HD
ENDBRANCH   1  35
BRANCH   7  37
ATOM     37  O   UNL     1      -9.712 -11.455  16.169  0.00  0.00    +0.000 OA
ATOM     38  H   UNL     1      -9.737 -11.145  15.246  0.00  0.00    +0.000 HD
ENDBRANCH   7  37
BRANCH   8  39
ATOM     39  O   UNL     1     -10.463  -9.027  15.265  0.00  0.00    +0.000 OA
ATOM     40  H   UNL     1     -10.406  -9.938  14.909  0.00  0.00    +0.000 HD
ENDBRANCH   8  39
BRANCH  13  41
ATOM     41  O   UNL     1      -8.897  -2.703  19.870  0.00  0.00    +0.000 OA
ATOM     42  H   UNL     1      -9.327  -2.567  20.725  0.00  0.00    +0.000 HD
ENDBRANCH  13  41
TORSDOF 7
ENDMDL
MODEL 5
REMARK VINA RESULT:    -8.522      3.072      5.412
REMARK INTER + INTRA:         -11.810
REMARK INTER:                 -10.973
REMARK INTRA:                  -0.837
REMARK UNBOUND:                -0.797
REMARK  Name = 
REMARK  7 active torsions:
REMARK  status: ('A' for Active; 'I' for Inactive)
REMARK    1  A    between atoms: O_1  and  C_2
REMARK    2  A    between atoms: C_8  and  O_9
REMARK    3  A    between atoms: C_10  and  O_11
REMARK    4  A    between atoms: N_13  and  C_14
REMARK    5  A    between atoms: C_14  and  C_15
REMARK    6  A    between atoms: C_18  and  C_19
REMARK    7  A    between atoms: C_27  and  O_28
REMARK                            x       y       z     vdW  Elec       q    Type
REMARK                         _______ _______ _______ _____ _____    ______ ____
ROOT
ATOM      1  C   UNL     1     -11.443  -2.369  13.764  0.00  0.00    +0.000 A 
ATOM      2  C   UNL     1     -10.928  -1.676  14.861  0.00  0.00    +0.000 A 
ATOM      3  C   UNL     1     -10.678  -2.373  16.064  0.00  0.00    +0.000 A 
ATOM      4  C   UNL     1     -10.165  -1.968  17.333  0.00  0.00    +0.000 A 
ATOM      5  C   UNL     1      -9.783  -0.715  17.866  0.00  0.00    +0.000 A 
ATOM      6  C   UNL     1      -9.246  -0.636  19.154  0.00  0.00    +0.000 A 
ATOM      7  C   UNL     1      -9.029  -1.802  19.874  0.00  0.00    +0.000 A 
ATOM      8  C   UNL     1      -9.385  -3.053  19.362  0.00  0.00    +0.000 A 
ATOM      9  C   UNL     1     -10.015  -3.117  18.113  0.00  0.00    +0.000 A 
ATOM     10  N   UNL     1     -10.603  -4.158  17.414  0.00  0.00    +0.000 N 
ATOM     11  C   UNL     1     -10.952  -3.742  16.135  0.00  0.00    +0.000 A 
ATOM     12  C   UNL     1     -11.497  -4.445  15.041  0.00  0.00    +0.000 A 
ATOM     13  C   UNL     1     -11.731  -3.723  13.853  0.00  0.00    +0.000 A 
ATOM     14  H   UNL     1     -10.702  -0.617  14.801  0.00  0.00    +0.000 HD
ATOM     15  H   UNL     1      -9.919   0.188  17.278  0.00  0.00    +0.000 HD
ATOM     16  H   UNL     1      -8.983   0.337  19.556  0.00  0.00    +0.000 HD
ATOM     17  H   UNL     1     -11.710  -5.502  15.109  0.00  0.00    +0.000 HD
ENDROOT
BRANCH  10  18
ATOM     18  C   UNL     1     -10.962  -5.454  17.997  0.00  0.00    +0.000 C 
ATOM     19  H   UNL     1     -12.057  -5.516  17.916  0.00  0.00    +0.000 HD
ATOM     20  H   UNL     1     -10.728  -5.439  19.067  0.00  0.00    +0.000 HD
BRANCH  18  21
ATOM     21  C   UNL     1     -10.368  -6.666  17.315  0.00  0.00    +0.000 A 
ATOM     22  C   UNL     1      -9.085  -6.679  16.758  0.00  0.00    +0.000 A 
ATOM     23  C   UNL     1      -8.667  -7.746  15.962  0.00  0.00    +0.000 A 
ATOM     24  C   UNL     1      -9.518  -8.831  15.719  0.00  0.00    +0.000 A 
ATOM     25  C   UNL     1     -10.740  -8.896  16.403  0.00  0.00    +0.000 A 
ATOM     26  C   UNL     1     -11.160  -7.822  17.193  0.00  0.00    +0.000 A 
ATOM     27  H   UNL     1      -8.409  -5.836  16.890  0.00  0.00    +0.000 HD
ATOM     28  H   UNL     1      -7.688  -7.695  15.487  0.00  0.00    +0.000 HD
ATOM     29  H   UNL     1     -11.394  -9.757  16.277  0.00  0.00    +0.000 HD
ATOM     30  H   UNL     1     -12.136  -7.874  17.675  0.00  0.00    +0.000 HD
BRANCH  24  31
ATOM     31  C   UNL     1      -9.170  -9.866  14.680  0.00  0.00    +0.000 C 
ATOM     32  F   UNL     1      -9.647  -9.572  13.438  0.00  0.00    +0.000 F 
ATOM     33  F   UNL     1      -7.831 -10.058  14.535  0.00  0.00    +0.000 F 
ATOM     34  F   UNL     1      -9.692 -11.088  14.990  0.00  0.00    +0.000 F 
ENDBRANCH  24  31
ENDBRANCH  18  21
ENDBRANCH  10  18
BRANCH   1  35
ATOM     35  O   UNL     1     -11.665  -1.708  12.587  0.00  0.00    +0.000 OA
ATOM     36  H   UNL     1     -11.633  -0.753  12.750  0.00  0.00    +0.000 HD
ENDBRANCH   1  35
BRANCH   7  37
ATOM     37  O   UNL     1      -8.465  -1.770  21.122  0.00  0.00    +0.000 OA
ATOM     38  H   UNL     1      -8.394  -2.688  21.440  0.00  0.00    +0.000 HD
ENDBRANCH   7  37
BRANCH   8  39
ATOM     39  O   UNL     1      -9.082  -4.181  20.082  0.00  0.00    +0.000 OA
ATOM     40  H   UNL     1      -9.936  -4.655  20.149  0.00  0.00    +0.000 HD
ENDBRANCH   8  39
BRANCH  13  41
ATOM     41  O   UNL     1     -12.248  -4.367  12.762  0.00  0.00    +0.000 OA
ATOM     42  H   UNL     1     -12.015  -3.874  11.963  0.00  0.00    +0.000 HD
ENDBRANCH  13  41
TORSDOF 7
ENDMDL
MODEL 6
REMARK VINA RESULT:    -8.491      1.622      2.288
REMARK INTER + INTRA:         -11.770
REMARK INTER:                 -11.398
REMARK INTRA:                  -0.372
REMARK UNBOUND:                -0.797
REMARK  Name = 
REMARK  7 active torsions:
REMARK  status: ('A' for Active; 'I' for Inactive)
REMARK    1  A    between atoms: O_1  and  C_2
REMARK    2  A    between atoms: C_8  and  O_9
REMARK    3  A    between atoms: C_10  and  O_11
REMARK    4  A    between atoms: N_13  and  C_14
REMARK    5  A    between atoms: C_14  and  C_15
REMARK    6  A    between atoms: C_18  and  C_19
REMARK    7  A    between atoms: C_27  and  O_28
REMARK                            x       y       z     vdW  Elec       q    Type
REMARK                         _______ _______ _______ _____ _____    ______ ____
ROOT
ATOM      1  C   UNL     1      -8.809  -2.846  21.191  0.00  0.00    +0.000 A 
ATOM      2  C   UNL     1      -9.668  -2.643  20.110  0.00  0.00    +0.000 A 
ATOM      3  C   UNL     1      -9.627  -3.536  19.016  0.00  0.00    +0.000 A 
ATOM      4  C   UNL     1     -10.355  -3.605  17.790  0.00  0.00    +0.000 A 
ATOM      5  C   UNL     1     -11.332  -2.773  17.198  0.00  0.00    +0.000 A 
ATOM      6  C   UNL     1     -11.925  -3.140  15.986  0.00  0.00    +0.000 A 
ATOM      7  C   UNL     1     -11.594  -4.357  15.408  0.00  0.00    +0.000 A 
ATOM      8  C   UNL     1     -10.641  -5.203  15.984  0.00  0.00    +0.000 A 
ATOM      9  C   UNL     1      -9.978  -4.784  17.143  0.00  0.00    +0.000 A 
ATOM     10  N   UNL     1      -8.913  -5.311  17.854  0.00  0.00    +0.000 N 
ATOM     11  C   UNL     1      -8.727  -4.605  19.036  0.00  0.00    +0.000 A 
ATOM     12  C   UNL     1      -7.837  -4.803  20.111  0.00  0.00    +0.000 A 
ATOM     13  C   UNL     1      -7.905  -3.898  21.190  0.00  0.00    +0.000 A 
ATOM     14  H   UNL     1     -10.376  -1.821  20.101  0.00  0.00    +0.000 HD
ATOM     15  H   UNL     1     -11.614  -1.841  17.680  0.00  0.00    +0.000 HD
ATOM     16  H   UNL     1     -12.654  -2.476  15.534  0.00  0.00    +0.000 HD
ATOM     17  H   UNL     1      -7.142  -5.630  20.114  0.00  0.00    +0.000 HD
ENDROOT
BRANCH  10  18
ATOM     18  C   UNL     1      -8.009  -6.349  17.351  0.00  0.00    +0.000 C 
ATOM     19  H   UNL     1      -7.057  -6.186  17.878  0.00  0.00    +0.000 HD
ATOM     20  H   UNL     1      -7.813  -6.165  16.289  0.00  0.00    +0.000 HD
BRANCH  18  21
ATOM     21  C   UNL     1      -8.446  -7.776  17.596  0.00  0.00    +0.000 A 
ATOM     22  C   UNL     1      -8.474  -8.359  18.868  0.00  0.00    +0.000 A 
ATOM     23  C   UNL     1      -8.683  -9.731  19.014  0.00  0.00    +0.000 A 
ATOM     24  C   UNL     1      -8.884 -10.546  17.894  0.00  0.00    +0.000 A 
ATOM     25  C   UNL     1      -9.015  -9.942  16.636  0.00  0.00    +0.000 A 
ATOM     26  C   UNL     1      -8.797  -8.570  16.490  0.00  0.00    +0.000 A 
ATOM     27  H   UNL     1      -8.282  -7.767  19.760  0.00  0.00    +0.000 HD
ATOM     28  H   UNL     1      -8.631 -10.166  20.012  0.00  0.00    +0.000 HD
ATOM     29  H   UNL     1      -9.230 -10.548  15.757  0.00  0.00    +0.000 HD
ATOM     30  H   UNL     1      -8.855  -8.131  15.494  0.00  0.00    +0.000 HD
BRANCH  24  31
ATOM     31  C   UNL     1      -8.874 -12.048  18.022  0.00  0.00    +0.000 C 
ATOM     32  F   UNL     1      -8.013 -12.662  17.164  0.00  0.00    +0.000 F 
ATOM     33  F   UNL     1      -8.542 -12.483  19.267  0.00  0.00    +0.000 F 
ATOM     34  F   UNL     1     -10.100 -12.586  17.753  0.00  0.00    +0.000 F 
ENDBRANCH  24  31
ENDBRANCH  18  21
ENDBRANCH  10  18
BRANCH   1  35
ATOM     35  O   UNL     1      -8.859  -2.001  22.267  0.00  0.00    +0.000 OA
ATOM     36  H   UNL     1      -9.186  -1.136  21.974  0.00  0.00    +0.000 HD
ENDBRANCH   1  35
BRANCH   7  37
ATOM     37  O   UNL     1     -12.184  -4.773  14.244  0.00  0.00    +0.000 OA
ATOM     38  H   UNL     1     -13.145  -4.812  14.395  0.00  0.00    +0.000 HD
ENDBRANCH   7  37
BRANCH   8  39
ATOM     39  O   UNL     1     -10.404  -6.429  15.412  0.00  0.00    +0.000 OA
ATOM     40  H   UNL     1      -9.476  -6.626  15.652  0.00  0.00    +0.000 HD
ENDBRANCH   8  39
BRANCH  13  41
ATOM     41  O   UNL     1      -7.069  -4.059  22.262  0.00  0.00    +0.000 OA
ATOM     42  H   UNL     1      -6.687  -4.947  22.235  0.00  0.00    +0.000 HD
ENDBRANCH  13  41
TORSDOF 7
ENDMDL
MODEL 7
REMARK VINA RESULT:    -8.282      1.801      2.550
REMARK INTER + INTRA:         -11.500
REMARK INTER:                 -10.757
REMARK INTRA:                  -0.743
REMARK UNBOUND:                -0.797
REMARK  Name = 
REMARK  7 active torsions:
REMARK  status: ('A' for Active; 'I' for Inactive)
REMARK    1  A    between atoms: O_1  and  C_2
REMARK    2  A    between atoms: C_8  and  O_9
REMARK    3  A    between atoms: C_10  and  O_11
REMARK    4  A    between atoms: N_13  and  C_14
REMARK    5  A    between atoms: C_14  and  C_15
REMARK    6  A    between atoms: C_18  and  C_19
REMARK    7  A    between atoms: C_27  and  O_28
REMARK                            x       y       z     vdW  Elec       q    Type
REMARK                         _______ _______ _______ _____ _____    ______ ____
ROOT
ATOM      1  C   UNL     1      -5.061  -4.468  20.804  0.00  0.00    +0.000 A 
ATOM      2  C   UNL     1      -6.053  -3.588  21.242  0.00  0.00    +0.000 A 
ATOM      3  C   UNL     1      -7.330  -3.632  20.640  0.00  0.00    +0.000 A 
ATOM      4  C   UNL     1      -8.530  -2.889  20.854  0.00  0.00    +0.000 A 
ATOM      5  C   UNL     1      -8.857  -1.802  21.696  0.00  0.00    +0.000 A 
ATOM      6  C   UNL     1     -10.167  -1.313  21.733  0.00  0.00    +0.000 A 
ATOM      7  C   UNL     1     -11.151  -1.946  20.988  0.00  0.00    +0.000 A 
ATOM      8  C   UNL     1     -10.854  -3.032  20.159  0.00  0.00    +0.000 A 
ATOM      9  C   UNL     1      -9.523  -3.453  20.049  0.00  0.00    +0.000 A 
ATOM     10  N   UNL     1      -8.899  -4.378  19.228  0.00  0.00    +0.000 N 
ATOM     11  C   UNL     1      -7.577  -4.552  19.617  0.00  0.00    +0.000 A 
ATOM     12  C   UNL     1      -6.574  -5.426  19.150  0.00  0.00    +0.000 A 
ATOM     13  C   UNL     1      -5.311  -5.362  19.774  0.00  0.00    +0.000 A 
ATOM     14  H   UNL     1      -5.865  -2.884  22.044  0.00  0.00    +0.000 HD
ATOM     15  H   UNL     1      -8.087  -1.339  22.306  0.00  0.00    +0.000 HD
ATOM     16  H   UNL     1     -10.393  -0.461  22.366  0.00  0.00    +0.000 HD
ATOM     17  H   UNL     1      -6.775  -6.130  18.356  0.00  0.00    +0.000 HD
ENDROOT
BRANCH  10  18
ATOM     18  C   UNL     1      -9.497  -4.955  18.021  0.00  0.00    +0.000 C 
ATOM     19  H   UNL     1      -8.871  -4.601  17.188  0.00  0.00    +0.000 HD
ATOM     20  H   UNL     1     -10.490  -4.519  17.873  0.00  0.00    +0.000 HD
BRANCH  18  21
ATOM     21  C   UNL     1      -9.540  -6.466  17.969  0.00  0.00    +0.000 A 
ATOM     22  C   UNL     1      -9.655  -7.268  19.110  0.00  0.00    +0.000 A 
ATOM     23  C   UNL     1      -9.480  -8.650  19.026  0.00  0.00    +0.000 A 
ATOM     24  C   UNL     1      -9.202  -9.261  17.798  0.00  0.00    +0.000 A 
ATOM     25  C   UNL     1      -9.245  -8.483  16.633  0.00  0.00    +0.000 A 
ATOM     26  C   UNL     1      -9.412  -7.098  16.719  0.00  0.00    +0.000 A 
ATOM     27  H   UNL     1      -9.829  -6.826  20.089  0.00  0.00    +0.000 HD
ATOM     28  H   UNL     1      -9.507  -9.238  19.942  0.00  0.00    +0.000 HD
ATOM     29  H   UNL     1      -9.090  -8.946  15.659  0.00  0.00    +0.000 HD
ATOM     30  H   UNL     1      -9.391  -6.508  15.803  0.00  0.00    +0.000 HD
BRANCH  24  31
ATOM     31  C   UNL     1      -8.781 -10.707  17.735  0.00  0.00    +0.000 C 
ATOM     32  F   UNL     1      -8.132 -11.035  16.582  0.00  0.00    +0.000 F 
ATOM     33  F   UNL     1      -7.957 -11.076  18.751  0.00  0.00    +0.000 F 
ATOM     34  F   UNL     1      -9.854 -11.549  17.799  0.00  0.00    +0.000 F 
ENDBRANCH  24  31
ENDBRANCH  18  21
ENDBRANCH  10  18
BRANCH   1  35
ATOM     35  O   UNL     1      -3.828  -4.451  21.398  0.00  0.00    +0.000 OA
ATOM     36  H   UNL     1      -3.467  -5.351  21.402  0.00  0.00    +0.000 HD
ENDBRANCH   1  35
BRANCH   7  37
ATOM     37  O   UNL     1     -12.454  -1.524  21.030  0.00  0.00    +0.000 OA
ATOM     38  H   UNL     1     -12.827  -1.620  20.136  0.00  0.00    +0.000 HD
ENDBRANCH   7  37
BRANCH   8  39
ATOM     39  O   UNL     1     -11.876  -3.669  19.501  0.00  0.00    +0.000 OA
ATOM     40  H   UNL     1     -12.260  -4.262  20.179  0.00  0.00    +0.000 HD
ENDBRANCH   8  39
BRANCH  13  41
ATOM     41  O   UNL     1      -4.311  -6.201  19.362  0.00  0.00    +0.000 OA
ATOM     42  H   UNL     1      -4.673  -7.088  19.233  0.00  0.00    +0.000 HD
ENDBRANCH  13  41
TORSDOF 7
ENDMDL
MODEL 8
REMARK VINA RESULT:    -8.173      3.740      6.443
REMARK INTER + INTRA:         -11.359
REMARK INTER:                 -10.359
REMARK INTRA:                  -1.000
REMARK UNBOUND:                -0.797
REMARK  Name = 
REMARK  7 active torsions:
REMARK  status: ('A' for Active; 'I' for Inactive)
REMARK    1  A    between atoms: O_1  and  C_2
REMARK    2  A    between atoms: C_8  and  O_9
REMARK    3  A    between atoms: C_10  and  O_11
REMARK    4  A    between atoms: N_13  and  C_14
REMARK    5  A    between atoms: C_14  and  C_15
REMARK    6  A    between atoms: C_18  and  C_19
REMARK    7  A    between atoms: C_27  and  O_28
REMARK                            x       y       z     vdW  Elec       q    Type
REMARK                         _______ _______ _______ _____ _____    ______ ____
ROOT
ATOM      1  C   UNL     1     -12.170   0.135  21.033  0.00  0.00    +0.000 A 
ATOM      2  C   UNL     1     -11.799  -0.513  22.213  0.00  0.00    +0.000 A 
ATOM      3  C   UNL     1     -10.670  -1.361  22.211  0.00  0.00    +0.000 A 
ATOM      4  C   UNL     1     -10.043  -2.146  23.225  0.00  0.00    +0.000 A 
ATOM      5  C   UNL     1     -10.360  -2.411  24.576  0.00  0.00    +0.000 A 
ATOM      6  C   UNL     1      -9.501  -3.191  25.358  0.00  0.00    +0.000 A 
ATOM      7  C   UNL     1      -8.309  -3.643  24.814  0.00  0.00    +0.000 A 
ATOM      8  C   UNL     1      -7.967  -3.381  23.484  0.00  0.00    +0.000 A 
ATOM      9  C   UNL     1      -8.876  -2.686  22.678  0.00  0.00    +0.000 A 
ATOM     10  N   UNL     1      -8.898  -2.401  21.323  0.00  0.00    +0.000 N 
ATOM     11  C   UNL     1      -9.946  -1.537  21.029  0.00  0.00    +0.000 A 
ATOM     12  C   UNL     1     -10.328  -0.909  19.826  0.00  0.00    +0.000 A 
ATOM     13  C   UNL     1     -11.456  -0.065  19.861  0.00  0.00    +0.000 A 
ATOM     14  H   UNL     1     -12.353  -0.364  23.134  0.00  0.00    +0.000 HD
ATOM     15  H   UNL     1     -11.277  -2.018  25.005  0.00  0.00    +0.000 HD
ATOM     16  H   UNL     1      -9.774  -3.405  26.386  0.00  0.00    +0.000 HD
ATOM     17  H   UNL     1      -9.763  -1.056  18.917  0.00  0.00    +0.000 HD
ENDROOT
BRANCH  10  18
ATOM     18  C   UNL     1      -8.048  -3.054  20.322  0.00  0.00    +0.000 C 
ATOM     19  H   UNL     1      -7.069  -3.179  20.808  0.00  0.00    +0.000 HD
ATOM     20  H   UNL     1      -7.895  -2.366  19.484  0.00  0.00    +0.000 HD
BRANCH  18  21
ATOM     21  C   UNL     1      -8.517  -4.411  19.848  0.00  0.00    +0.000 A 
ATOM     22  C   UNL     1      -7.999  -5.614  20.340  0.00  0.00    +0.000 A 
ATOM     23  C   UNL     1      -8.314  -6.826  19.724  0.00  0.00    +0.000 A 
ATOM     24  C   UNL     1      -9.165  -6.863  18.614  0.00  0.00    +0.000 A 
ATOM     25  C   UNL     1      -9.810  -5.682  18.219  0.00  0.00    +0.000 A 
ATOM     26  C   UNL     1      -9.487  -4.468  18.831  0.00  0.00    +0.000 A 
ATOM     27  H   UNL     1      -7.302  -5.623  21.175  0.00  0.00    +0.000 HD
ATOM     28  H   UNL     1      -7.840  -7.737  20.088  0.00  0.00    +0.000 HD
ATOM     29  H   UNL     1     -10.522  -5.696  17.396  0.00  0.00    +0.000 HD
ATOM     30  H   UNL     1      -9.964  -3.556  18.473  0.00  0.00    +0.000 HD
BRANCH  24  31
ATOM     31  C   UNL     1      -9.322  -8.125  17.805  0.00  0.00    +0.000 C 
ATOM     32  F   UNL     1      -8.889  -9.243  18.451  0.00  0.00    +0.000 F 
ATOM     33  F   UNL     1     -10.607  -8.375  17.436  0.00  0.00    +0.000 F 
ATOM     34  F   UNL     1      -8.602  -8.075  16.645  0.00  0.00    +0.000 F 
ENDBRANCH  24  31
ENDBRANCH  18  21
ENDBRANCH  10  18
BRANCH   1  35
ATOM     35  O   UNL     1     -13.248   0.979  21.032  0.00  0.00    +0.000 OA
ATOM     36  H   UNL     1     -13.578   1.072  21.939  0.00  0.00    +0.000 HD
ENDBRANCH   1  35
BRANCH   7  37
ATOM     37  O   UNL     1      -7.421  -4.373  25.559  0.00  0.00    +0.000 OA
ATOM     38  H   UNL     1      -6.658  -4.584  24.992  0.00  0.00    +0.000 HD
ENDBRANCH   7  37
BRANCH   8  39
ATOM     39  O   UNL     1      -6.742  -3.787  23.016  0.00  0.00    +0.000 OA
ATOM     40  H   UNL     1      -6.891  -3.933  22.059  0.00  0.00    +0.000 HD
ENDBRANCH   8  39
BRANCH  13  41
ATOM     41  O   UNL     1     -11.857   0.576  18.720  0.00  0.00    +0.000 OA
ATOM     42  H   UNL     1     -11.607   0.044  17.953  0.00  0.00    +0.000 HD
ENDBRANCH  13  41
TORSDOF 7
ENDMDL
MODEL 9
REMARK VINA RESULT:    -8.083      3.926      5.250
REMARK INTER + INTRA:         -11.242
REMARK INTER:                 -10.471
REMARK INTRA:                  -0.772
REMARK UNBOUND:                -0.797
REMARK  Name = 
REMARK  7 active torsions:
REMARK  status: ('A' for Active; 'I' for Inactive)
REMARK    1  A    between atoms: O_1  and  C_2
REMARK    2  A    between atoms: C_8  and  O_9
REMARK    3  A    between atoms: C_10  and  O_11
REMARK    4  A    between atoms: N_13  and  C_14
REMARK    5  A    between atoms: C_14  and  C_15
REMARK    6  A    between atoms: C_18  and  C_19
REMARK    7  A    between atoms: C_27  and  O_28
REMARK                            x       y       z     vdW  Elec       q    Type
REMARK                         _______ _______ _______ _____ _____    ______ ____
ROOT
ATOM      1  C   UNL     1      -8.914  -2.627  25.491  0.00  0.00    +0.000 A 
ATOM      2  C   UNL     1      -9.680  -1.682  24.806  0.00  0.00    +0.000 A 
ATOM      3  C   UNL     1      -9.663  -1.670  23.394  0.00  0.00    +0.000 A 
ATOM      4  C   UNL     1     -10.318  -0.856  22.421  0.00  0.00    +0.000 A 
ATOM      5  C   UNL     1     -11.168   0.269  22.517  0.00  0.00    +0.000 A 
ATOM      6  C   UNL     1     -11.720   0.831  21.361  0.00  0.00    +0.000 A 
ATOM      7  C   UNL     1     -11.479   0.234  20.133  0.00  0.00    +0.000 A 
ATOM      8  C   UNL     1     -10.654  -0.888  20.015  0.00  0.00    +0.000 A 
ATOM      9  C   UNL     1     -10.024  -1.386  21.162  0.00  0.00    +0.000 A 
ATOM     10  N   UNL     1      -9.063  -2.365  21.352  0.00  0.00    +0.000 N 
ATOM     11  C   UNL     1      -8.879  -2.602  22.708  0.00  0.00    +0.000 A 
ATOM     12  C   UNL     1      -8.081  -3.542  23.391  0.00  0.00    +0.000 A 
ATOM     13  C   UNL     1      -8.123  -3.532  24.800  0.00  0.00    +0.000 A 
ATOM     14  H   UNL     1     -10.299  -0.968  25.338  0.00  0.00    +0.000 HD
ATOM     15  H   UNL     1     -11.383   0.705  23.489  0.00  0.00    +0.000 HD
ATOM     16  H   UNL     1     -12.349   1.710  21.452  0.00  0.00    +0.000 HD
ATOM     17  H   UNL     1      -7.474  -4.255  22.852  0.00  0.00    +0.000 HD
ENDROOT
BRANCH  10  18
ATOM     18  C   UNL     1      -8.239  -2.940  20.284  0.00  0.00    +0.000 C 
ATOM     19  H   UNL     1      -7.212  -2.940  20.677  0.00  0.00    +0.000 HD
ATOM     20  H   UNL     1      -8.246  -2.260  19.426  0.00  0.00    +0.000 HD
BRANCH  18  21
ATOM     21  C   UNL     1      -8.588  -4.354  19.877  0.00  0.00    +0.000 A 
ATOM     22  C   UNL     1      -7.855  -5.472  20.288  0.00  0.00    +0.000 A 
ATOM     23  C   UNL     1      -8.090  -6.724  19.719  0.00  0.00    +0.000 A 
ATOM     24  C   UNL     1      -9.075  -6.888  18.738  0.00  0.00    +0.000 A 
ATOM     25  C   UNL     1      -9.916  -5.807  18.440  0.00  0.00    +0.000 A 
ATOM     26  C   UNL     1      -9.674  -4.552  19.005  0.00  0.00    +0.000 A 
ATOM     27  H   UNL     1      -7.053  -5.378  21.018  0.00  0.00    +0.000 HD
ATOM     28  H   UNL     1      -7.456  -7.561  20.010  0.00  0.00    +0.000 HD
ATOM     29  H   UNL     1     -10.728  -5.926  17.723  0.00  0.00    +0.000 HD
ATOM     30  H   UNL     1     -10.311  -3.715  18.719  0.00  0.00    +0.000 HD
BRANCH  24  31
ATOM     31  C   UNL     1      -9.176  -8.172  17.954  0.00  0.00    +0.000 C 
ATOM     32  F   UNL     1      -8.620  -9.242  18.589  0.00  0.00    +0.000 F 
ATOM     33  F   UNL     1     -10.455  -8.528  17.663  0.00  0.00    +0.000 F 
ATOM     34  F   UNL     1      -8.529  -8.085  16.755  0.00  0.00    +0.000 F 
ENDBRANCH  24  31
ENDBRANCH  18  21
ENDBRANCH  10  18
BRANCH   1  35
ATOM     35  O   UNL     1      -8.943  -2.662  26.859  0.00  0.00    +0.000 OA
ATOM     36  H   UNL     1      -8.115  -3.049  27.183  0.00  0.00    +0.000 HD
ENDBRANCH   1  35
BRANCH   7  37
ATOM     37  O   UNL     1     -12.037   0.728  18.983  0.00  0.00    +0.000 OA
ATOM     38  H   UNL     1     -11.917   1.695  18.985  0.00  0.00    +0.000 HD
ENDBRANCH   7  37
BRANCH   8  39
ATOM     39  O   UNL     1     -10.508  -1.485  18.788  0.00  0.00    +0.000 OA
ATOM     40  H   UNL     1     -11.421  -1.528  18.436  0.00  0.00    +0.000 HD
ENDBRANCH   8  39
BRANCH  13  41
ATOM     41  O   UNL     1      -7.374  -4.436  25.506  0.00  0.00    +0.000 OA
ATOM     42  H   UNL     1      -7.554  -4.329  26.449  0.00  0.00    +0.000 HD
ENDBRANCH  13  41
TORSDOF 7
ENDMDL
