MODEL 1
REMARK VINA RESULT:   -10.247      0.000      0.000
REMARK INTER + INTRA:         -13.240
REMARK INTER:                 -12.643
REMARK INTRA:                  -0.597
REMARK UNBOUND:                -0.597
REMARK  Name = 
REMARK  6 active torsions:
REMARK  status: ('A' for Active; 'I' for Inactive)
REMARK    1  A    between atoms: C_5  and  O_6
REMARK    2  A    between atoms: C_7  and  O_8
REMARK    3  A    between atoms: C_13  and  O_14
REMARK    4  A    between atoms: C_15  and  O_16
REMARK    5  A    between atoms: N_19  and  C_20
REMARK    6  A    between atoms: C_20  and  C_21
REMARK                            x       y       z     vdW  Elec       q    Type
REMARK                         _______ _______ _______ _____ _____    ______ ____
ROOT
ATOM      1  O   UNL     1      -8.415  -9.116  20.462  0.00  0.00    +0.000 OA
ATOM      2  C   UNL     1      -8.682  -8.620  19.366  0.00  0.00    +0.000 A 
ATOM      3  C   UNL     1      -8.847  -9.531  18.212  0.00  0.00    +0.000 A 
ATOM      4  C   UNL     1      -8.572 -10.898  18.415  0.00  0.00    +0.000 A 
ATOM      5  C   UNL     1      -8.694 -11.779  17.353  0.00  0.00    +0.000 A 
ATOM      6  C   UNL     1      -9.090 -11.306  16.113  0.00  0.00    +0.000 A 
ATOM      7  C   UNL     1      -9.361  -9.956  15.908  0.00  0.00    +0.000 A 
ATOM      8  C   UNL     1      -9.243  -9.027  16.960  0.00  0.00    +0.000 A 
ATOM      9  C   UNL     1      -9.501  -7.579  16.809  0.00  0.00    +0.000 A 
ATOM     10  C   UNL     1      -9.980  -7.026  15.597  0.00  0.00    +0.000 A 
ATOM     11  C   UNL     1     -10.210  -5.660  15.476  0.00  0.00    +0.000 A 
ATOM     12  C   UNL     1      -9.974  -4.821  16.549  0.00  0.00    +0.000 A 
ATOM     13  C   UNL     1      -9.509  -5.326  17.755  0.00  0.00    +0.000 A 
ATOM     14  C   UNL     1      -9.272  -6.707  17.904  0.00  0.00    +0.000 A 
ATOM     15  N   UNL     1      -8.828  -7.248  19.156  0.00  0.00    +0.000 N 
ATOM     16  H   UNL     1      -8.263 -11.248  19.395  0.00  0.00    +0.000 HD
ATOM     17  H   UNL     1      -9.654  -9.664  14.906  0.00  0.00    +0.000 HD
ATOM     18  H   UNL     1     -10.183  -7.655  14.738  0.00  0.00    +0.000 HD
ATOM     19  H   UNL     1      -9.370  -4.618  18.563  0.00  0.00    +0.000 HD
ENDROOT
BRANCH  15  20
ATOM     20  C   UNL     1      -8.567  -6.384  20.310  0.00  0.00    +0.000 C 
ATOM     21  H   UNL     1      -8.697  -6.974  21.224  0.00  0.00    +0.000 HD
ATOM     22  H   UNL     1      -9.336  -5.603  20.361  0.00  0.00    +0.000 HD
BRANCH  20  23
ATOM     23  C   UNL     1      -7.215  -5.698  20.319  0.00  0.00    +0.000 A 
ATOM     24  C   UNL     1      -6.118  -6.161  19.575  0.00  0.00    +0.000 A 
ATOM     25  C   UNL     1      -4.880  -5.526  19.662  0.00  0.00    +0.000 A 
ATOM     26  C   UNL     1      -4.721  -4.408  20.477  0.00  0.00    +0.000 A 
ATOM     27  C   UNL     1      -5.812  -3.906  21.184  0.00  0.00    +0.000 A 
ATOM     28  C   UNL     1      -7.050  -4.544  21.103  0.00  0.00    +0.000 A 
ATOM     29  H   UNL     1      -6.212  -7.023  18.923  0.00  0.00    +0.000 HD
ATOM     30  H   UNL     1      -4.034  -5.911  19.098  0.00  0.00    +0.000 HD
ATOM     31  H   UNL     1      -3.751  -3.926  20.556  0.00  0.00    +0.000 HD
ATOM     32  H   UNL     1      -5.695  -3.021  21.804  0.00  0.00    +0.000 HD
ATOM     33  H   UNL     1      -7.891  -4.135  21.661  0.00  0.00    +0.000 HD
ENDBRANCH  20  23
ENDBRANCH  15  20
BRANCH   5  34
ATOM     34  O   UNL     1      -8.431 -13.112  17.483  0.00  0.00    +0.000 OA
ATOM     35  H   UNL     1      -7.944 -13.248  18.315  0.00  0.00    +0.000 HD
ENDBRANCH   5  34
BRANCH   6  36
ATOM     36  O   UNL     1      -9.214 -12.173  15.065  0.00  0.00    +0.000 OA
ATOM     37  H   UNL     1     -10.171 -12.369  15.017  0.00  0.00    +0.000 HD
ENDBRANCH   6  36
BRANCH  11  38
ATOM     38  O   UNL     1     -10.677  -5.099  14.320  0.00  0.00    +0.000 OA
ATOM     39  H   UNL     1      -9.987  -4.520  13.955  0.00  0.00    +0.000 HD
ENDBRANCH  11  38
BRANCH  12  40
ATOM     40  O   UNL     1     -10.206  -3.480  16.431  0.00  0.00    +0.000 OA
ATOM     41  H   UNL     1      -9.489  -3.056  16.946  0.00  0.00    +0.000 HD
ENDBRANCH  12  40
TORSDOF 6
ENDMDL
MODEL 2
REMARK VINA RESULT:    -9.244      2.952      4.962
REMARK INTER + INTRA:         -12.002
REMARK INTER:                 -13.017
REMARK INTRA:                   1.015
REMARK UNBOUND:                -0.597
REMARK  Name = 
REMARK  6 active torsions:
REMARK  status: ('A' for Active; 'I' for Inactive)
REMARK    1  A    between atoms: C_5  and  O_6
REMARK    2  A    between atoms: C_7  and  O_8
REMARK    3  A    between atoms: C_13  and  O_14
REMARK    4  A    between atoms: C_15  and  O_16
REMARK    5  A    between atoms: N_19  and  C_20
REMARK    6  A    between atoms: C_20  and  C_21
REMARK                            x       y       z     vdW  Elec       q    Type
REMARK                         _______ _______ _______ _____ _____    ______ ____
ROOT
ATOM      1  O   UNL     1      -8.607  -9.922  14.090  0.00  0.00    +0.000 OA
ATOM      2  C   UNL     1      -8.726 -10.087  15.305  0.00  0.00    +0.000 A 
ATOM      3  C   UNL     1      -8.790 -11.475  15.815  0.00  0.00    +0.000 A 
ATOM      4  C   UNL     1      -8.830 -12.518  14.868  0.00  0.00    +0.000 A 
ATOM      5  C   UNL     1      -8.913 -13.829  15.306  0.00  0.00    +0.000 A 
ATOM      6  C   UNL     1      -8.948 -14.096  16.664  0.00  0.00    +0.000 A 
ATOM      7  C   UNL     1      -8.909 -13.069  17.603  0.00  0.00    +0.000 A 
ATOM      8  C   UNL     1      -8.832 -11.722  17.199  0.00  0.00    +0.000 A 
ATOM      9  C   UNL     1      -8.802 -10.583  18.141  0.00  0.00    +0.000 A 
ATOM     10  C   UNL     1      -8.760 -10.772  19.544  0.00  0.00    +0.000 A 
ATOM     11  C   UNL     1      -8.738  -9.685  20.411  0.00  0.00    +0.000 A 
ATOM     12  C   UNL     1      -8.756  -8.397  19.907  0.00  0.00    +0.000 A 
ATOM     13  C   UNL     1      -8.793  -8.172  18.538  0.00  0.00    +0.000 A 
ATOM     14  C   UNL     1      -8.811  -9.256  17.639  0.00  0.00    +0.000 A 
ATOM     15  N   UNL     1      -8.811  -9.038  16.221  0.00  0.00    +0.000 N 
ATOM     16  H   UNL     1      -8.802 -12.286  13.807  0.00  0.00    +0.000 HD
ATOM     17  H   UNL     1      -8.952 -13.360  18.647  0.00  0.00    +0.000 HD
ATOM     18  H   UNL     1      -8.737 -11.767  19.972  0.00  0.00    +0.000 HD
ATOM     19  H   UNL     1      -8.778  -7.140  18.210  0.00  0.00    +0.000 HD
ENDROOT
BRANCH  15  20
ATOM     20  C   UNL     1      -8.831  -7.686  15.658  0.00  0.00    +0.000 C 
ATOM     21  H   UNL     1      -9.142  -7.750  14.609  0.00  0.00    +0.000 HD
ATOM     22  H   UNL     1      -7.809  -7.287  15.631  0.00  0.00    +0.000 HD
BRANCH  20  23
ATOM     23  C   UNL     1      -9.696  -6.684  16.399  0.00  0.00    +0.000 A 
ATOM     24  C   UNL     1     -11.097  -6.671  16.310  0.00  0.00    +0.000 A 
ATOM     25  C   UNL     1     -11.843  -5.693  16.967  0.00  0.00    +0.000 A 
ATOM     26  C   UNL     1     -11.204  -4.725  17.738  0.00  0.00    +0.000 A 
ATOM     27  C   UNL     1      -9.818  -4.754  17.878  0.00  0.00    +0.000 A 
ATOM     28  C   UNL     1      -9.070  -5.728  17.215  0.00  0.00    +0.000 A 
ATOM     29  H   UNL     1     -11.625  -7.417  15.726  0.00  0.00    +0.000 HD
ATOM     30  H   UNL     1     -12.925  -5.682  16.870  0.00  0.00    +0.000 HD
ATOM     31  H   UNL     1     -11.786  -3.955  18.236  0.00  0.00    +0.000 HD
ATOM     32  H   UNL     1      -9.320  -4.012  18.496  0.00  0.00    +0.000 HD
ATOM     33  H   UNL     1      -7.987  -5.735  17.338  0.00  0.00    +0.000 HD
ENDBRANCH  20  23
ENDBRANCH  15  20
BRANCH   5  34
ATOM     34  O   UNL     1      -8.967 -14.881  14.439  0.00  0.00    +0.000 OA
ATOM     35  H   UNL     1      -8.644 -14.580  13.570  0.00  0.00    +0.000 HD
ENDBRANCH   5  34
BRANCH   6  36
ATOM     36  O   UNL     1      -9.026 -15.388  17.099  0.00  0.00    +0.000 OA
ATOM     37  H   UNL     1      -9.049 -15.321  18.075  0.00  0.00    +0.000 HD
ENDBRANCH   6  36
BRANCH  11  38
ATOM     38  O   UNL     1      -8.691  -9.837  21.768  0.00  0.00    +0.000 OA
ATOM     39  H   UNL     1      -7.806 -10.153  22.015  0.00  0.00    +0.000 HD
ENDBRANCH  11  38
BRANCH  12  40
ATOM     40  O   UNL     1      -8.729  -7.330  20.760  0.00  0.00    +0.000 OA
ATOM     41  H   UNL     1      -7.885  -7.420  21.245  0.00  0.00    +0.000 HD
ENDBRANCH  12  40
TORSDOF 6
ENDMDL
MODEL 3
REMARK VINA RESULT:    -8.927      3.267      5.502
REMARK INTER + INTRA:         -11.611
REMARK INTER:                 -11.009
REMARK INTRA:                  -0.602
REMARK UNBOUND:                -0.597
REMARK  Name = 
REMARK  6 active torsions:
REMARK  status: ('A' for Active; 'I' for Inactive)
REMARK    1  A    between atoms: C_5  and  O_6
REMARK    2  A    between atoms: C_7  and  O_8
REMARK    3  A    between atoms: C_13  and  O_14
REMARK    4  A    between atoms: C_15  and  O_16
REMARK    5  A    between atoms: N_19  and  C_20
REMARK    6  A    between atoms: C_20  and  C_21
REMARK                            x       y       z     vdW  Elec       q    Type
REMARK                         _______ _______ _______ _____ _____    ______ ____
ROOT
ATOM      1  O   UNL     1     -10.851  -3.532  19.045  0.00  0.00    +0.000 OA
ATOM      2  C   UNL     1      -9.790  -4.133  19.224  0.00  0.00    +0.000 A 
ATOM      3  C   UNL     1      -9.649  -5.483  18.633  0.00  0.00    +0.000 A 
ATOM      4  C   UNL     1     -10.779  -6.043  18.005  0.00  0.00    +0.000 A 
ATOM      5  C   UNL     1     -10.692  -7.313  17.460  0.00  0.00    +0.000 A 
ATOM      6  C   UNL     1      -9.498  -8.010  17.535  0.00  0.00    +0.000 A 
ATOM      7  C   UNL     1      -8.379  -7.461  18.155  0.00  0.00    +0.000 A 
ATOM      8  C   UNL     1      -8.428  -6.174  18.728  0.00  0.00    +0.000 A 
ATOM      9  C   UNL     1      -7.283  -5.538  19.414  0.00  0.00    +0.000 A 
ATOM     10  C   UNL     1      -6.008  -6.150  19.468  0.00  0.00    +0.000 A 
ATOM     11  C   UNL     1      -4.947  -5.535  20.124  0.00  0.00    +0.000 A 
ATOM     12  C   UNL     1      -5.129  -4.307  20.733  0.00  0.00    +0.000 A 
ATOM     13  C   UNL     1      -6.363  -3.673  20.697  0.00  0.00    +0.000 A 
ATOM     14  C   UNL     1      -7.452  -4.274  20.036  0.00  0.00    +0.000 A 
ATOM     15  N   UNL     1      -8.723  -3.613  19.957  0.00  0.00    +0.000 N 
ATOM     16  H   UNL     1     -11.707  -5.480  17.958  0.00  0.00    +0.000 HD
ATOM     17  H   UNL     1      -7.486  -8.074  18.182  0.00  0.00    +0.000 HD
ATOM     18  H   UNL     1      -5.828  -7.108  18.995  0.00  0.00    +0.000 HD
ATOM     19  H   UNL     1      -6.431  -2.701  21.171  0.00  0.00    +0.000 HD
ENDROOT
BRANCH  15  20
ATOM     20  C   UNL     1      -8.946  -2.313  20.594  0.00  0.00    +0.000 C 
ATOM     21  H   UNL     1      -9.585  -1.710  19.939  0.00  0.00    +0.000 HD
ATOM     22  H   UNL     1      -7.996  -1.768  20.650  0.00  0.00    +0.000 HD
BRANCH  20  23
ATOM     23  C   UNL     1      -9.531  -2.363  21.992  0.00  0.00    +0.000 A 
ATOM     24  C   UNL     1      -8.785  -2.744  23.119  0.00  0.00    +0.000 A 
ATOM     25  C   UNL     1      -9.385  -2.828  24.375  0.00  0.00    +0.000 A 
ATOM     26  C   UNL     1     -10.734  -2.515  24.530  0.00  0.00    +0.000 A 
ATOM     27  C   UNL     1     -11.476  -2.088  23.430  0.00  0.00    +0.000 A 
ATOM     28  C   UNL     1     -10.878  -2.009  22.172  0.00  0.00    +0.000 A 
ATOM     29  H   UNL     1      -7.731  -2.984  23.034  0.00  0.00    +0.000 HD
ATOM     30  H   UNL     1      -8.801  -3.147  25.234  0.00  0.00    +0.000 HD
ATOM     31  H   UNL     1     -11.203  -2.598  25.506  0.00  0.00    +0.000 HD
ATOM     32  H   UNL     1     -12.523  -1.823  23.553  0.00  0.00    +0.000 HD
ATOM     33  H   UNL     1     -11.475  -1.671  21.325  0.00  0.00    +0.000 HD
ENDBRANCH  20  23
ENDBRANCH  15  20
BRANCH   5  34
ATOM     34  O   UNL     1     -11.754  -7.915  16.850  0.00  0.00    +0.000 OA
ATOM     35  H   UNL     1     -12.195  -7.257  16.282  0.00  0.00    +0.000 HD
ENDBRANCH   5  34
BRANCH   6  36
ATOM     36  O   UNL     1      -9.408  -9.261  16.996  0.00  0.00    +0.000 OA
ATOM     37  H   UNL     1      -9.368  -9.862  17.767  0.00  0.00    +0.000 HD
ENDBRANCH   6  36
BRANCH  11  38
ATOM     38  O   UNL     1      -3.704  -6.099  20.188  0.00  0.00    +0.000 OA
ATOM     39  H   UNL     1      -3.675  -6.701  20.952  0.00  0.00    +0.000 HD
ENDBRANCH  11  38
BRANCH  12  40
ATOM     40  O   UNL     1      -4.085  -3.700  21.373  0.00  0.00    +0.000 OA
ATOM     41  H   UNL     1      -3.892  -2.905  20.837  0.00  0.00    +0.000 HD
ENDBRANCH  12  40
TORSDOF 6
ENDMDL
MODEL 4
REMARK VINA RESULT:    -8.923      1.398      5.105
REMARK INTER + INTRA:         -11.606
REMARK INTER:                 -11.111
REMARK INTRA:                  -0.496
REMARK UNBOUND:                -0.597
REMARK  Name = 
REMARK  6 active torsions:
REMARK  status: ('A' for Active; 'I' for Inactive)
REMARK    1  A    between atoms: C_5  and  O_6
REMARK    2  A    between atoms: C_7  and  O_8
REMARK    3  A    between atoms: C_13  and  O_14
REMARK    4  A    between atoms: C_15  and  O_16
REMARK    5  A    between atoms: N_19  and  C_20
REMARK    6  A    between atoms: C_20  and  C_21
REMARK                            x       y       z     vdW  Elec       q    Type
REMARK                         _______ _______ _______ _____ _____    ______ ____
ROOT
ATOM      1  O   UNL     1      -9.187  -3.509  18.947  0.00  0.00    +0.000 OA
ATOM      2  C   UNL     1      -9.458  -4.596  18.434  0.00  0.00    +0.000 A 
ATOM      3  C   UNL     1     -10.171  -4.594  17.137  0.00  0.00    +0.000 A 
ATOM      4  C   UNL     1     -10.599  -3.351  16.629  0.00  0.00    +0.000 A 
ATOM      5  C   UNL     1     -11.289  -3.311  15.430  0.00  0.00    +0.000 A 
ATOM      6  C   UNL     1     -11.542  -4.487  14.745  0.00  0.00    +0.000 A 
ATOM      7  C   UNL     1     -11.121  -5.717  15.243  0.00  0.00    +0.000 A 
ATOM      8  C   UNL     1     -10.422  -5.802  16.464  0.00  0.00    +0.000 A 
ATOM      9  C   UNL     1      -9.960  -7.075  17.057  0.00  0.00    +0.000 A 
ATOM     10  C   UNL     1     -10.111  -8.313  16.387  0.00  0.00    +0.000 A 
ATOM     11  C   UNL     1      -9.674  -9.498  16.968  0.00  0.00    +0.000 A 
ATOM     12  C   UNL     1      -9.079  -9.479  18.216  0.00  0.00    +0.000 A 
ATOM     13  C   UNL     1      -8.908  -8.285  18.902  0.00  0.00    +0.000 A 
ATOM     14  C   UNL     1      -9.340  -7.070  18.333  0.00  0.00    +0.000 A 
ATOM     15  N   UNL     1      -9.135  -5.824  19.013  0.00  0.00    +0.000 N 
ATOM     16  H   UNL     1     -10.392  -2.440  17.183  0.00  0.00    +0.000 HD
ATOM     17  H   UNL     1     -11.368  -6.593  14.654  0.00  0.00    +0.000 HD
ATOM     18  H   UNL     1     -10.566  -8.364  15.405  0.00  0.00    +0.000 HD
ATOM     19  H   UNL     1      -8.411  -8.336  19.862  0.00  0.00    +0.000 HD
ENDROOT
BRANCH  15  20
ATOM     20  C   UNL     1      -8.510  -5.772  20.337  0.00  0.00    +0.000 C 
ATOM     21  H   UNL     1      -8.600  -6.759  20.804  0.00  0.00    +0.000 HD
ATOM     22  H   UNL     1      -9.082  -5.095  20.983  0.00  0.00    +0.000 HD
BRANCH  20  23
ATOM     23  C   UNL     1      -7.064  -5.314  20.357  0.00  0.00    +0.000 A 
ATOM     24  C   UNL     1      -6.071  -5.882  19.544  0.00  0.00    +0.000 A 
ATOM     25  C   UNL     1      -4.744  -5.463  19.641  0.00  0.00    +0.000 A 
ATOM     26  C   UNL     1      -4.392  -4.457  20.537  0.00  0.00    +0.000 A 
ATOM     27  C   UNL     1      -5.374  -3.847  21.315  0.00  0.00    +0.000 A 
ATOM     28  C   UNL     1      -6.700  -4.270  21.223  0.00  0.00    +0.000 A 
ATOM     29  H   UNL     1      -6.314  -6.661  18.829  0.00  0.00    +0.000 HD
ATOM     30  H   UNL     1      -3.983  -5.930  19.022  0.00  0.00    +0.000 HD
ATOM     31  H   UNL     1      -3.356  -4.144  20.622  0.00  0.00    +0.000 HD
ATOM     32  H   UNL     1      -5.104  -3.047  21.999  0.00  0.00    +0.000 HD
ATOM     33  H   UNL     1      -7.454  -3.780  21.839  0.00  0.00    +0.000 HD
ENDBRANCH  20  23
ENDBRANCH  15  20
BRANCH   5  34
ATOM     34  O   UNL     1     -11.741  -2.141  14.892  0.00  0.00    +0.000 OA
ATOM     35  H   UNL     1     -11.110  -1.434  15.120  0.00  0.00    +0.000 HD
ENDBRANCH   5  34
BRANCH   6  36
ATOM     36  O   UNL     1     -12.220  -4.450  13.560  0.00  0.00    +0.000 OA
ATOM     37  H   UNL     1     -12.245  -3.503  13.318  0.00  0.00    +0.000 HD
ENDBRANCH   6  36
BRANCH  11  38
ATOM     38  O   UNL     1      -9.802 -10.707  16.343  0.00  0.00    +0.000 OA
ATOM     39  H   UNL     1     -10.249 -11.324  16.947  0.00  0.00    +0.000 HD
ENDBRANCH  11  38
BRANCH  12  40
ATOM     40  O   UNL     1      -8.644 -10.643  18.783  0.00  0.00    +0.000 OA
ATOM     41  H   UNL     1      -8.224 -10.370  19.623  0.00  0.00    +0.000 HD
ENDBRANCH  12  40
TORSDOF 6
ENDMDL
MODEL 5
REMARK VINA RESULT:    -8.160      3.007      6.328
REMARK INTER + INTRA:         -10.665
REMARK INTER:                 -10.052
REMARK INTRA:                  -0.613
REMARK UNBOUND:                -0.597
REMARK  Name = 
REMARK  6 active torsions:
REMARK  status: ('A' for Active; 'I' for Inactive)
REMARK    1  A    between atoms: C_5  and  O_6
REMARK    2  A    between atoms: C_7  and  O_8
REMARK    3  A    between atoms: C_13  and  O_14
REMARK    4  A    between atoms: C_15  and  O_16
REMARK    5  A    between atoms: N_19  and  C_20
REMARK    6  A    between atoms: C_20  and  C_21
REMARK                            x       y       z     vdW  Elec       q    Type
REMARK                         _______ _______ _______ _____ _____    ______ ____
ROOT
ATOM      1  O   UNL     1      -9.129  -2.662  20.433  0.00  0.00    +0.000 OA
ATOM      2  C   UNL     1      -8.914  -3.659  19.741  0.00  0.00    +0.000 A 
ATOM      3  C   UNL     1      -7.584  -4.301  19.841  0.00  0.00    +0.000 A 
ATOM      4  C   UNL     1      -6.608  -3.662  20.631  0.00  0.00    +0.000 A 
ATOM      5  C   UNL     1      -5.345  -4.220  20.731  0.00  0.00    +0.000 A 
ATOM      6  C   UNL     1      -5.062  -5.399  20.060  0.00  0.00    +0.000 A 
ATOM      7  C   UNL     1      -6.023  -6.032  19.278  0.00  0.00    +0.000 A 
ATOM      8  C   UNL     1      -7.318  -5.493  19.145  0.00  0.00    +0.000 A 
ATOM      9  C   UNL     1      -8.381  -6.106  18.319  0.00  0.00    +0.000 A 
ATOM     10  C   UNL     1      -8.198  -7.346  17.662  0.00  0.00    +0.000 A 
ATOM     11  C   UNL     1      -9.210  -7.900  16.886  0.00  0.00    +0.000 A 
ATOM     12  C   UNL     1     -10.417  -7.239  16.749  0.00  0.00    +0.000 A 
ATOM     13  C   UNL     1     -10.636  -6.024  17.381  0.00  0.00    +0.000 A 
ATOM     14  C   UNL     1      -9.628  -5.444  18.176  0.00  0.00    +0.000 A 
ATOM     15  N   UNL     1      -9.853  -4.207  18.866  0.00  0.00    +0.000 N 
ATOM     16  H   UNL     1      -6.850  -2.738  21.149  0.00  0.00    +0.000 HD
ATOM     17  H   UNL     1      -5.720  -6.944  18.776  0.00  0.00    +0.000 HD
ATOM     18  H   UNL     1      -7.268  -7.894  17.754  0.00  0.00    +0.000 HD
ATOM     19  H   UNL     1     -11.612  -5.573  17.255  0.00  0.00    +0.000 HD
ENDROOT
BRANCH  15  20
ATOM     20  C   UNL     1     -11.121  -3.483  18.739  0.00  0.00    +0.000 C 
ATOM     21  H   UNL     1     -11.296  -2.923  19.664  0.00  0.00    +0.000 HD
ATOM     22  H   UNL     1     -11.946  -4.203  18.679  0.00  0.00    +0.000 HD
BRANCH  20  23
ATOM     23  C   UNL     1     -11.227  -2.560  17.541  0.00  0.00    +0.000 A 
ATOM     24  C   UNL     1     -10.195  -1.691  17.151  0.00  0.00    +0.000 A 
ATOM     25  C   UNL     1     -10.365  -0.822  16.075  0.00  0.00    +0.000 A 
ATOM     26  C   UNL     1     -11.559  -0.820  15.357  0.00  0.00    +0.000 A 
ATOM     27  C   UNL     1     -12.574  -1.712  15.699  0.00  0.00    +0.000 A 
ATOM     28  C   UNL     1     -12.408  -2.577  16.781  0.00  0.00    +0.000 A 
ATOM     29  H   UNL     1      -9.250  -1.675  17.683  0.00  0.00    +0.000 HD
ATOM     30  H   UNL     1      -9.566  -0.138  15.800  0.00  0.00    +0.000 HD
ATOM     31  H   UNL     1     -11.695  -0.130  14.529  0.00  0.00    +0.000 HD
ATOM     32  H   UNL     1     -13.498  -1.726  15.127  0.00  0.00    +0.000 HD
ATOM     33  H   UNL     1     -13.212  -3.268  17.031  0.00  0.00    +0.000 HD
ENDBRANCH  20  23
ENDBRANCH  15  20
BRANCH   5  34
ATOM     34  O   UNL     1      -4.354  -3.644  21.470  0.00  0.00    +0.000 OA
ATOM     35  H   UNL     1      -3.502  -4.032  21.198  0.00  0.00    +0.000 HD
ENDBRANCH   5  34
BRANCH   6  36
ATOM     36  O   UNL     1      -3.818  -5.953  20.160  0.00  0.00    +0.000 OA
ATOM     37  H   UNL     1      -3.311  -5.328  20.715  0.00  0.00    +0.000 HD
ENDBRANCH   6  36
BRANCH  11  38
ATOM     38  O   UNL     1      -9.064  -9.099  16.245  0.00  0.00    +0.000 OA
ATOM     39  H   UNL     1      -8.127  -9.356  16.277  0.00  0.00    +0.000 HD
ENDBRANCH  11  38
BRANCH  12  40
ATOM     40  O   UNL     1     -11.413  -7.787  15.991  0.00  0.00    +0.000 OA
ATOM     41  H   UNL     1     -11.772  -7.039  15.473  0.00  0.00    +0.000 HD
ENDBRANCH  12  40
TORSDOF 6
ENDMDL
MODEL 6
REMARK VINA RESULT:    -7.935      2.370      6.109
REMARK INTER + INTRA:         -10.387
REMARK INTER:                  -9.882
REMARK INTRA:                  -0.505
REMARK UNBOUND:                -0.597
REMARK  Name = 
REMARK  6 active torsions:
REMARK  status: ('A' for Active; 'I' for Inactive)
REMARK    1  A    between atoms: C_5  and  O_6
REMARK    2  A    between atoms: C_7  and  O_8
REMARK    3  A    between atoms: C_13  and  O_14
REMARK    4  A    between atoms: C_15  and  O_16
REMARK    5  A    between atoms: N_19  and  C_20
REMARK    6  A    between atoms: C_20  and  C_21
REMARK                            x       y       z     vdW  Elec       q    Type
REMARK                         _______ _______ _______ _____ _____    ______ ____
ROOT
ATOM      1  O   UNL     1      -9.243  -7.979  19.458  0.00  0.00    +0.000 OA
ATOM      2  C   UNL     1      -9.585  -6.959  18.858  0.00  0.00    +0.000 A 
ATOM      3  C   UNL     1      -9.095  -5.657  19.365  0.00  0.00    +0.000 A 
ATOM      4  C   UNL     1      -8.366  -5.658  20.571  0.00  0.00    +0.000 A 
ATOM      5  C   UNL     1      -7.910  -4.458  21.088  0.00  0.00    +0.000 A 
ATOM      6  C   UNL     1      -8.171  -3.277  20.413  0.00  0.00    +0.000 A 
ATOM      7  C   UNL     1      -8.891  -3.272  19.222  0.00  0.00    +0.000 A 
ATOM      8  C   UNL     1      -9.378  -4.471  18.665  0.00  0.00    +0.000 A 
ATOM      9  C   UNL     1     -10.162  -4.535  17.412  0.00  0.00    +0.000 A 
ATOM     10  C   UNL     1     -10.408  -3.387  16.623  0.00  0.00    +0.000 A 
ATOM     11  C   UNL     1     -11.153  -3.471  15.451  0.00  0.00    +0.000 A 
ATOM     12  C   UNL     1     -11.663  -4.689  15.042  0.00  0.00    +0.000 A 
ATOM     13  C   UNL     1     -11.439  -5.838  15.787  0.00  0.00    +0.000 A 
ATOM     14  C   UNL     1     -10.684  -5.780  16.975  0.00  0.00    +0.000 A 
ATOM     15  N   UNL     1     -10.412  -6.966  17.734  0.00  0.00    +0.000 N 
ATOM     16  H   UNL     1      -8.173  -6.595  21.086  0.00  0.00    +0.000 HD
ATOM     17  H   UNL     1      -9.063  -2.306  18.760  0.00  0.00    +0.000 HD
ATOM     18  H   UNL     1     -10.017  -2.418  16.910  0.00  0.00    +0.000 HD
ATOM     19  H   UNL     1     -11.844  -6.764  15.396  0.00  0.00    +0.000 HD
ENDROOT
BRANCH  15  20
ATOM     20  C   UNL     1     -10.941  -8.270  17.326  0.00  0.00    +0.000 C 
ATOM     21  H   UNL     1     -11.867  -8.110  16.763  0.00  0.00    +0.000 HD
ATOM     22  H   UNL     1     -11.240  -8.836  18.217  0.00  0.00    +0.000 HD
BRANCH  20  23
ATOM     23  C   UNL     1      -9.987  -9.139  16.529  0.00  0.00    +0.000 A 
ATOM     24  C   UNL     1      -9.355  -8.702  15.354  0.00  0.00    +0.000 A 
ATOM     25  C   UNL     1      -8.531  -9.560  14.628  0.00  0.00    +0.000 A 
ATOM     26  C   UNL     1      -8.308 -10.861  15.072  0.00  0.00    +0.000 A 
ATOM     27  C   UNL     1      -8.887 -11.295  16.263  0.00  0.00    +0.000 A 
ATOM     28  C   UNL     1      -9.718 -10.439  16.988  0.00  0.00    +0.000 A 
ATOM     29  H   UNL     1      -9.500  -7.691  14.987  0.00  0.00    +0.000 HD
ATOM     30  H   UNL     1      -8.067  -9.214  13.707  0.00  0.00    +0.000 HD
ATOM     31  H   UNL     1      -7.679 -11.532  14.495  0.00  0.00    +0.000 HD
ATOM     32  H   UNL     1      -8.698 -12.303  16.622  0.00  0.00    +0.000 HD
ATOM     33  H   UNL     1     -10.161 -10.796  17.917  0.00  0.00    +0.000 HD
ENDBRANCH  20  23
ENDBRANCH  15  20
BRANCH   5  34
ATOM     34  O   UNL     1      -7.210  -4.391  22.258  0.00  0.00    +0.000 OA
ATOM     35  H   UNL     1      -6.268  -4.539  22.060  0.00  0.00    +0.000 HD
ENDBRANCH   5  34
BRANCH   6  36
ATOM     36  O   UNL     1      -7.720  -2.092  20.919  0.00  0.00    +0.000 OA
ATOM     37  H   UNL     1      -6.796  -2.024  20.607  0.00  0.00    +0.000 HD
ENDBRANCH   6  36
BRANCH  11  38
ATOM     38  O   UNL     1     -11.402  -2.380  14.666  0.00  0.00    +0.000 OA
ATOM     39  H   UNL     1     -11.481  -2.673  13.743  0.00  0.00    +0.000 HD
ENDBRANCH  11  38
BRANCH  12  40
ATOM     40  O   UNL     1     -12.390  -4.772  13.888  0.00  0.00    +0.000 OA
ATOM     41  H   UNL     1     -13.153  -4.176  14.031  0.00  0.00    +0.000 HD
ENDBRANCH  12  40
TORSDOF 6
ENDMDL
MODEL 7
REMARK VINA RESULT:    -7.860      2.115      4.812
REMARK INTER + INTRA:         -10.294
REMARK INTER:                  -9.754
REMARK INTRA:                  -0.541
REMARK UNBOUND:                -0.597
REMARK  Name = 
REMARK  6 active torsions:
REMARK  status: ('A' for Active; 'I' for Inactive)
REMARK    1  A    between atoms: C_5  and  O_6
REMARK    2  A    between atoms: C_7  and  O_8
REMARK    3  A    between atoms: C_13  and  O_14
REMARK    4  A    between atoms: C_15  and  O_16
REMARK    5  A    between atoms: N_19  and  C_20
REMARK    6  A    between atoms: C_20  and  C_21
REMARK                            x       y       z     vdW  Elec       q    Type
REMARK                         _______ _______ _______ _____ _____    ______ ____
ROOT
ATOM      1  O   UNL     1     -11.339  -8.191  15.577  0.00  0.00    +0.000 OA
ATOM      2  C   UNL     1     -10.684  -7.826  16.554  0.00  0.00    +0.000 A 
ATOM      3  C   UNL     1      -9.870  -8.839  17.263  0.00  0.00    +0.000 A 
ATOM      4  C   UNL     1      -9.989 -10.180  16.847  0.00  0.00    +0.000 A 
ATOM      5  C   UNL     1      -9.261 -11.159  17.500  0.00  0.00    +0.000 A 
ATOM      6  C   UNL     1      -8.423 -10.808  18.546  0.00  0.00    +0.000 A 
ATOM      7  C   UNL     1      -8.304  -9.484  18.960  0.00  0.00    +0.000 A 
ATOM      8  C   UNL     1      -9.032  -8.459  18.326  0.00  0.00    +0.000 A 
ATOM      9  C   UNL     1      -8.964  -7.036  18.725  0.00  0.00    +0.000 A 
ATOM     10  C   UNL     1      -8.079  -6.582  19.732  0.00  0.00    +0.000 A 
ATOM     11  C   UNL     1      -8.036  -5.241  20.094  0.00  0.00    +0.000 A 
ATOM     12  C   UNL     1      -8.863  -4.328  19.467  0.00  0.00    +0.000 A 
ATOM     13  C   UNL     1      -9.741  -4.734  18.471  0.00  0.00    +0.000 A 
ATOM     14  C   UNL     1      -9.801  -6.087  18.084  0.00  0.00    +0.000 A 
ATOM     15  N   UNL     1     -10.675  -6.514  17.031  0.00  0.00    +0.000 N 
ATOM     16  H   UNL     1     -10.653 -10.435  16.025  0.00  0.00    +0.000 HD
ATOM     17  H   UNL     1      -7.636  -9.292  19.793  0.00  0.00    +0.000 HD
ATOM     18  H   UNL     1      -7.411  -7.269  20.239  0.00  0.00    +0.000 HD
ATOM     19  H   UNL     1     -10.342  -3.964  18.002  0.00  0.00    +0.000 HD
ENDROOT
BRANCH  15  20
ATOM     20  C   UNL     1     -11.565  -5.571  16.348  0.00  0.00    +0.000 C 
ATOM     21  H   UNL     1     -12.087  -4.976  17.105  0.00  0.00    +0.000 HD
ATOM     22  H   UNL     1     -12.353  -6.127  15.826  0.00  0.00    +0.000 HD
BRANCH  20  23
ATOM     23  C   UNL     1     -10.896  -4.660  15.337  0.00  0.00    +0.000 A 
ATOM     24  C   UNL     1      -9.849  -5.082  14.503  0.00  0.00    +0.000 A 
ATOM     25  C   UNL     1      -9.230  -4.189  13.629  0.00  0.00    +0.000 A 
ATOM     26  C   UNL     1      -9.660  -2.866  13.558  0.00  0.00    +0.000 A 
ATOM     27  C   UNL     1     -10.732  -2.444  14.342  0.00  0.00    +0.000 A 
ATOM     28  C   UNL     1     -11.348  -3.335  15.223  0.00  0.00    +0.000 A 
ATOM     29  H   UNL     1      -9.497  -6.108  14.526  0.00  0.00    +0.000 HD
ATOM     30  H   UNL     1      -8.405  -4.525  13.007  0.00  0.00    +0.000 HD
ATOM     31  H   UNL     1      -9.166  -2.169  12.889  0.00  0.00    +0.000 HD
ATOM     32  H   UNL     1     -11.083  -1.418  14.273  0.00  0.00    +0.000 HD
ATOM     33  H   UNL     1     -12.185  -2.986  15.826  0.00  0.00    +0.000 HD
ENDBRANCH  20  23
ENDBRANCH  15  20
BRANCH   5  34
ATOM     34  O   UNL     1      -9.342 -12.477  17.153  0.00  0.00    +0.000 OA
ATOM     35  H   UNL     1      -9.993 -12.908  17.736  0.00  0.00    +0.000 HD
ENDBRANCH   5  34
BRANCH   6  36
ATOM     36  O   UNL     1      -7.702 -11.771  19.190  0.00  0.00    +0.000 OA
ATOM     37  H   UNL     1      -7.210 -11.290  19.886  0.00  0.00    +0.000 HD
ENDBRANCH   6  36
BRANCH  11  38
ATOM     38  O   UNL     1      -7.188  -4.773  21.059  0.00  0.00    +0.000 OA
ATOM     39  H   UNL     1      -6.795  -3.939  20.749  0.00  0.00    +0.000 HD
ENDBRANCH  11  38
BRANCH  12  40
ATOM     40  O   UNL     1      -8.817  -3.009  19.819  0.00  0.00    +0.000 OA
ATOM     41  H   UNL     1      -8.111  -2.626  19.260  0.00  0.00    +0.000 HD
ENDBRANCH  12  40
TORSDOF 6
ENDMDL
MODEL 8
REMARK VINA RESULT:    -7.842      2.892      6.489
REMARK INTER + INTRA:         -10.272
REMARK INTER:                  -9.712
REMARK INTRA:                  -0.560
REMARK UNBOUND:                -0.597
REMARK  Name = 
REMARK  6 active torsions:
REMARK  status: ('A' for Active; 'I' for Inactive)
REMARK    1  A    between atoms: C_5  and  O_6
REMARK    2  A    between atoms: C_7  and  O_8
REMARK    3  A    between atoms: C_13  and  O_14
REMARK    4  A    between atoms: C_15  and  O_16
REMARK    5  A    between atoms: N_19  and  C_20
REMARK    6  A    between atoms: C_20  and  C_21
REMARK                            x       y       z     vdW  Elec       q    Type
REMARK                         _______ _______ _______ _____ _____    ______ ____
ROOT
ATOM      1  O   UNL     1     -10.239  -2.853  19.573  0.00  0.00    +0.000 OA
ATOM      2  C   UNL     1      -9.844  -3.912  19.082  0.00  0.00    +0.000 A 
ATOM      3  C   UNL     1      -8.499  -4.396  19.466  0.00  0.00    +0.000 A 
ATOM      4  C   UNL     1      -7.709  -3.556  20.276  0.00  0.00    +0.000 A 
ATOM      5  C   UNL     1      -6.436  -3.965  20.637  0.00  0.00    +0.000 A 
ATOM      6  C   UNL     1      -5.962  -5.192  20.205  0.00  0.00    +0.000 A 
ATOM      7  C   UNL     1      -6.739  -6.025  19.405  0.00  0.00    +0.000 A 
ATOM      8  C   UNL     1      -8.037  -5.643  19.009  0.00  0.00    +0.000 A 
ATOM      9  C   UNL     1      -8.909  -6.471  18.149  0.00  0.00    +0.000 A 
ATOM     10  C   UNL     1      -8.531  -7.768  17.726  0.00  0.00    +0.000 A 
ATOM     11  C   UNL     1      -9.366  -8.526  16.913  0.00  0.00    +0.000 A 
ATOM     12  C   UNL     1     -10.585  -8.016  16.507  0.00  0.00    +0.000 A 
ATOM     13  C   UNL     1     -10.993  -6.751  16.904  0.00  0.00    +0.000 A 
ATOM     14  C   UNL     1     -10.167  -5.965  17.732  0.00  0.00    +0.000 A 
ATOM     15  N   UNL     1     -10.592  -4.671  18.182  0.00  0.00    +0.000 N 
ATOM     16  H   UNL     1      -8.099  -2.597  20.603  0.00  0.00    +0.000 HD
ATOM     17  H   UNL     1      -6.292  -6.964  19.099  0.00  0.00    +0.000 HD
ATOM     18  H   UNL     1      -7.586  -8.201  18.032  0.00  0.00    +0.000 HD
ATOM     19  H   UNL     1     -11.971  -6.423  16.573  0.00  0.00    +0.000 HD
ENDROOT
BRANCH  15  20
ATOM     20  C   UNL     1     -11.878  -4.104  17.767  0.00  0.00    +0.000 C 
ATOM     21  H   UNL     1     -12.304  -3.552  18.612  0.00  0.00    +0.000 HD
ATOM     22  H   UNL     1     -12.586  -4.917  17.568  0.00  0.00    +0.000 HD
BRANCH  20  23
ATOM     23  C   UNL     1     -11.834  -3.221  16.535  0.00  0.00    +0.000 A 
ATOM     24  C   UNL     1     -11.460  -3.695  15.267  0.00  0.00    +0.000 A 
ATOM     25  C   UNL     1     -11.381  -2.829  14.178  0.00  0.00    +0.000 A 
ATOM     26  C   UNL     1     -11.694  -1.480  14.331  0.00  0.00    +0.000 A 
ATOM     27  C   UNL     1     -12.115  -1.003  15.570  0.00  0.00    +0.000 A 
ATOM     28  C   UNL     1     -12.187  -1.868  16.663  0.00  0.00    +0.000 A 
ATOM     29  H   UNL     1     -11.221  -4.742  15.113  0.00  0.00    +0.000 HD
ATOM     30  H   UNL     1     -11.068  -3.207  13.208  0.00  0.00    +0.000 HD
ATOM     31  H   UNL     1     -11.616  -0.805  13.484  0.00  0.00    +0.000 HD
ATOM     32  H   UNL     1     -12.379   0.044  15.686  0.00  0.00    +0.000 HD
ATOM     33  H   UNL     1     -12.520  -1.476  17.624  0.00  0.00    +0.000 HD
ENDBRANCH  20  23
ENDBRANCH  15  20
BRANCH   5  34
ATOM     34  O   UNL     1      -5.618  -3.192  21.409  0.00  0.00    +0.000 OA
ATOM     35  H   UNL     1      -4.707  -3.527  21.321  0.00  0.00    +0.000 HD
ENDBRANCH   5  34
BRANCH   6  36
ATOM     36  O   UNL     1      -4.709  -5.599  20.563  0.00  0.00    +0.000 OA
ATOM     37  H   UNL     1      -4.752  -6.577  20.550  0.00  0.00    +0.000 HD
ENDBRANCH   6  36
BRANCH  11  38
ATOM     38  O   UNL     1      -9.030  -9.783  16.494  0.00  0.00    +0.000 OA
ATOM     39  H   UNL     1      -8.596  -9.716  15.626  0.00  0.00    +0.000 HD
ENDBRANCH  11  38
BRANCH  12  40
ATOM     40  O   UNL     1     -11.408  -8.764  15.712  0.00  0.00    +0.000 OA
ATOM     41  H   UNL     1     -10.825  -9.111  15.006  0.00  0.00    +0.000 HD
ENDBRANCH  12  40
TORSDOF 6
ENDMDL
MODEL 9
REMARK VINA RESULT:    -7.787      2.925      4.184
REMARK INTER + INTRA:         -10.204
REMARK INTER:                  -9.810
REMARK INTRA:                  -0.394
REMARK UNBOUND:                -0.597
REMARK  Name = 
REMARK  6 active torsions:
REMARK  status: ('A' for Active; 'I' for Inactive)
REMARK    1  A    between atoms: C_5  and  O_6
REMARK    2  A    between atoms: C_7  and  O_8
REMARK    3  A    between atoms: C_13  and  O_14
REMARK    4  A    between atoms: C_15  and  O_16
REMARK    5  A    between atoms: N_19  and  C_20
REMARK    6  A    between atoms: C_20  and  C_21
REMARK                            x       y       z     vdW  Elec       q    Type
REMARK                         _______ _______ _______ _____ _____    ______ ____
ROOT
ATOM      1  O   UNL     1      -7.832  -5.774  20.318  0.00  0.00    +0.000 OA
ATOM      2  C   UNL     1      -8.628  -5.238  19.545  0.00  0.00    +0.000 A 
ATOM      3  C   UNL     1      -9.346  -6.099  18.579  0.00  0.00    +0.000 A 
ATOM      4  C   UNL     1      -8.987  -7.460  18.525  0.00  0.00    +0.000 A 
ATOM      5  C   UNL     1      -9.621  -8.293  17.618  0.00  0.00    +0.000 A 
ATOM      6  C   UNL     1     -10.601  -7.779  16.785  0.00  0.00    +0.000 A 
ATOM      7  C   UNL     1     -10.958  -6.434  16.835  0.00  0.00    +0.000 A 
ATOM      8  C   UNL     1     -10.332  -5.553  17.739  0.00  0.00    +0.000 A 
ATOM      9  C   UNL     1     -10.653  -4.112  17.834  0.00  0.00    +0.000 A 
ATOM     10  C   UNL     1     -11.691  -3.523  17.073  0.00  0.00    +0.000 A 
ATOM     11  C   UNL     1     -11.970  -2.165  17.176  0.00  0.00    +0.000 A 
ATOM     12  C   UNL     1     -11.231  -1.370  18.032  0.00  0.00    +0.000 A 
ATOM     13  C   UNL     1     -10.208  -1.911  18.798  0.00  0.00    +0.000 A 
ATOM     14  C   UNL     1      -9.908  -3.285  18.715  0.00  0.00    +0.000 A 
ATOM     15  N   UNL     1      -8.880  -3.866  19.529  0.00  0.00    +0.000 N 
ATOM     16  H   UNL     1      -8.215  -7.843  19.186  0.00  0.00    +0.000 HD
ATOM     17  H   UNL     1     -11.725  -6.107  16.143  0.00  0.00    +0.000 HD
ATOM     18  H   UNL     1     -12.294  -4.119  16.399  0.00  0.00    +0.000 HD
ATOM     19  H   UNL     1      -9.687  -1.238  19.467  0.00  0.00    +0.000 HD
ENDROOT
BRANCH  15  20
ATOM     20  C   UNL     1      -8.079  -3.048  20.444  0.00  0.00    +0.000 C 
ATOM     21  H   UNL     1      -7.950  -2.055  20.000  0.00  0.00    +0.000 HD
ATOM     22  H   UNL     1      -7.068  -3.466  20.514  0.00  0.00    +0.000 HD
BRANCH  20  23
ATOM     23  C   UNL     1      -8.624  -2.924  21.854  0.00  0.00    +0.000 A 
ATOM     24  C   UNL     1      -9.754  -2.154  22.171  0.00  0.00    +0.000 A 
ATOM     25  C   UNL     1     -10.181  -2.027  23.492  0.00  0.00    +0.000 A 
ATOM     26  C   UNL     1      -9.499  -2.683  24.515  0.00  0.00    +0.000 A 
ATOM     27  C   UNL     1      -8.406  -3.492  24.211  0.00  0.00    +0.000 A 
ATOM     28  C   UNL     1      -7.974  -3.614  22.889  0.00  0.00    +0.000 A 
ATOM     29  H   UNL     1     -10.313  -1.639  21.397  0.00  0.00    +0.000 HD
ATOM     30  H   UNL     1     -11.044  -1.408  23.725  0.00  0.00    +0.000 HD
ATOM     31  H   UNL     1      -9.824  -2.569  25.545  0.00  0.00    +0.000 HD
ATOM     32  H   UNL     1      -7.886  -4.021  25.005  0.00  0.00    +0.000 HD
ATOM     33  H   UNL     1      -7.119  -4.252  22.672  0.00  0.00    +0.000 HD
ENDBRANCH  20  23
ENDBRANCH  15  20
BRANCH   5  34
ATOM     34  O   UNL     1      -9.309  -9.617  17.508  0.00  0.00    +0.000 OA
ATOM     35  H   UNL     1      -9.657  -9.944  16.659  0.00  0.00    +0.000 HD
ENDBRANCH   5  34
BRANCH   6  36
ATOM     36  O   UNL     1     -11.230  -8.598  15.892  0.00  0.00    +0.000 OA
ATOM     37  H   UNL     1     -11.411  -8.028  15.117  0.00  0.00    +0.000 HD
ENDBRANCH   6  36
BRANCH  11  38
ATOM     38  O   UNL     1     -12.970  -1.570  16.458  0.00  0.00    +0.000 OA
ATOM     39  H   UNL     1     -13.554  -1.095  17.073  0.00  0.00    +0.000 HD
ENDBRANCH  11  38
BRANCH  12  40
ATOM     40  O   UNL     1     -11.510  -0.036  18.136  0.00  0.00    +0.000 OA
ATOM     41  H   UNL     1     -10.749   0.340  18.624  0.00  0.00    +0.000 HD
ENDBRANCH  12  40
TORSDOF 6
ENDMDL
