MODEL 1
REMARK VINA RESULT:    -9.823      0.000      0.000
REMARK INTER + INTRA:         -11.530
REMARK INTER:                 -11.259
REMARK INTRA:                  -0.271
REMARK UNBOUND:                -0.271
REMARK  Name = 
REMARK  3 active torsions:
REMARK  status: ('A' for Active; 'I' for Inactive)
REMARK    1  A    between atoms: N_1  and  C_2
REMARK    2  A    between atoms: C_6  and  N_7
REMARK    3  A    between atoms: C_12  and  C_13
REMARK                            x       y       z     vdW  Elec       q    Type
REMARK                         _______ _______ _______ _____ _____    ______ ____
ROOT
ATOM      1  N   UNL     1     -10.287  -8.145  15.782  0.00  0.00    +0.000 N 
ATOM      2  C   UNL     1     -10.181  -7.028  16.618  0.00  0.00    +0.000 A 
ATOM      3  N   UNL     1     -11.272  -6.267  16.763  0.00  0.00    +0.000 NA
ATOM      4  C   UNL     1     -11.174  -5.233  17.618  0.00  0.00    +0.000 A 
ATOM      5  C   UNL     1     -10.037  -4.939  18.335  0.00  0.00    +0.000 A 
ATOM      6  C   UNL     1      -8.950  -5.759  18.115  0.00  0.00    +0.000 A 
ATOM      7  N   UNL     1      -9.022  -6.787  17.251  0.00  0.00    +0.000 NA
ATOM      8  H   UNL     1     -11.272  -8.261  15.577  0.00  0.00    +0.000 HD
ATOM      9  H   UNL     1     -12.069  -4.627  17.716  0.00  0.00    +0.000 HD
ATOM     10  H   UNL     1     -10.009  -4.094  19.008  0.00  0.00    +0.000 HD
ENDROOT
BRANCH   1  15
ATOM     11  C   UNL     1      -8.809 -11.108  17.534  0.00  0.00    +0.000 A 
ATOM     12  C   UNL     1      -8.432 -11.875  16.433  0.00  0.00    +0.000 A 
ATOM     13  C   UNL     1      -8.630 -11.399  15.136  0.00  0.00    +0.000 A 
ATOM     14  C   UNL     1      -9.238 -10.159  14.927  0.00  0.00    +0.000 A 
ATOM     15  C   UNL     1      -9.637  -9.379  16.015  0.00  0.00    +0.000 A 
ATOM     16  C   UNL     1      -9.466  -9.895  17.308  0.00  0.00    +0.000 A 
ATOM     17  H   UNL     1      -7.979 -12.852  16.578  0.00  0.00    +0.000 HD
ATOM     18  H   UNL     1      -8.312 -11.998  14.286  0.00  0.00    +0.000 HD
ATOM     19  H   UNL     1      -9.379  -9.795  13.914  0.00  0.00    +0.000 HD
ATOM     20  H   UNL     1      -9.838  -9.337  18.164  0.00  0.00    +0.000 HD
BRANCH  11  21
ATOM     21  N   UNL     1      -8.742 -11.637  18.832  0.00  0.00    +0.000 N 
ATOM     22  H   UNL     1      -8.219 -12.505  18.883  0.00  0.00    +0.000 HD
ATOM     23  H   UNL     1      -8.415 -10.958  19.515  0.00  0.00    +0.000 HD
ENDBRANCH  11  21
ENDBRANCH   1  15
BRANCH   6  24
ATOM     24  C   UNL     1      -7.648  -5.586  18.775  0.00  0.00    +0.000 A 
ATOM     25  C   UNL     1      -6.450  -6.110  18.265  0.00  0.00    +0.000 A 
ATOM     26  C   UNL     1      -5.250  -5.939  18.955  0.00  0.00    +0.000 A 
ATOM     27  C   UNL     1      -5.268  -5.236  20.147  0.00  0.00    +0.000 A 
ATOM     28  N   UNL     1      -6.382  -4.690  20.669  0.00  0.00    +0.000 NA
ATOM     29  C   UNL     1      -7.534  -4.870  19.971  0.00  0.00    +0.000 A 
ATOM     30  H   UNL     1      -6.433  -6.644  17.319  0.00  0.00    +0.000 HD
ATOM     31  H   UNL     1      -4.320  -6.346  18.570  0.00  0.00    +0.000 HD
ATOM     32  H   UNL     1      -4.362  -5.087  20.727  0.00  0.00    +0.000 HD
ATOM     33  H   UNL     1      -8.406  -4.405  20.429  0.00  0.00    +0.000 HD
ENDBRANCH   6  24
TORSDOF 3
ENDMDL
MODEL 2
REMARK VINA RESULT:    -9.492      2.301      4.146
REMARK INTER + INTRA:         -11.150
REMARK INTER:                 -11.420
REMARK INTRA:                   0.270
REMARK UNBOUND:                -0.271
REMARK  Name = 
REMARK  3 active torsions:
REMARK  status: ('A' for Active; 'I' for Inactive)
REMARK    1  A    between atoms: N_1  and  C_2
REMARK    2  A    between atoms: C_6  and  N_7
REMARK    3  A    between atoms: C_12  and  C_13
REMARK                            x       y       z     vdW  Elec       q    Type
REMARK                         _______ _______ _______ _____ _____    ______ ____
ROOT
ATOM      1  N   UNL     1      -8.931 -11.267  18.771  0.00  0.00    +0.000 N 
ATOM      2  C   UNL     1      -8.844  -9.886  18.981  0.00  0.00    +0.000 A 
ATOM      3  N   UNL     1      -8.281  -9.477  20.125  0.00  0.00    +0.000 NA
ATOM      4  C   UNL     1      -8.147  -8.148  20.286  0.00  0.00    +0.000 A 
ATOM      5  C   UNL     1      -8.544  -7.220  19.350  0.00  0.00    +0.000 A 
ATOM      6  C   UNL     1      -9.132  -7.721  18.208  0.00  0.00    +0.000 A 
ATOM      7  N   UNL     1      -9.292  -9.046  18.036  0.00  0.00    +0.000 NA
ATOM      8  H   UNL     1      -8.364 -11.706  19.485  0.00  0.00    +0.000 HD
ATOM      9  H   UNL     1      -7.693  -7.838  21.222  0.00  0.00    +0.000 HD
ATOM     10  H   UNL     1      -8.416  -6.162  19.530  0.00  0.00    +0.000 HD
ENDROOT
BRANCH   1  15
ATOM     11  C   UNL     1      -8.656 -13.897  16.117  0.00  0.00    +0.000 A 
ATOM     12  C   UNL     1      -8.597 -13.089  14.983  0.00  0.00    +0.000 A 
ATOM     13  C   UNL     1      -8.608 -11.698  15.102  0.00  0.00    +0.000 A 
ATOM     14  C   UNL     1      -8.712 -11.101  16.360  0.00  0.00    +0.000 A 
ATOM     15  C   UNL     1      -8.786 -11.891  17.509  0.00  0.00    +0.000 A 
ATOM     16  C   UNL     1      -8.815 -13.285  17.364  0.00  0.00    +0.000 A 
ATOM     17  H   UNL     1      -8.541 -13.539  13.995  0.00  0.00    +0.000 HD
ATOM     18  H   UNL     1      -8.541 -11.079  14.211  0.00  0.00    +0.000 HD
ATOM     19  H   UNL     1      -8.711 -10.019  16.440  0.00  0.00    +0.000 HD
ATOM     20  H   UNL     1      -8.948 -13.916  18.240  0.00  0.00    +0.000 HD
BRANCH  11  21
ATOM     21  N   UNL     1      -8.786 -15.289  15.998  0.00  0.00    +0.000 N 
ATOM     22  H   UNL     1      -8.302 -15.668  15.191  0.00  0.00    +0.000 HD
ATOM     23  H   UNL     1      -8.537 -15.779  16.853  0.00  0.00    +0.000 HD
ENDBRANCH  11  21
ENDBRANCH   1  15
BRANCH   6  24
ATOM     24  C   UNL     1      -9.634  -6.882  17.110  0.00  0.00    +0.000 A 
ATOM     25  C   UNL     1      -8.893  -6.602  15.953  0.00  0.00    +0.000 A 
ATOM     26  C   UNL     1      -9.413  -5.772  14.960  0.00  0.00    +0.000 A 
ATOM     27  C   UNL     1     -10.677  -5.239  15.140  0.00  0.00    +0.000 A 
ATOM     28  N   UNL     1     -11.443  -5.495  16.218  0.00  0.00    +0.000 NA
ATOM     29  C   UNL     1     -10.910  -6.311  17.164  0.00  0.00    +0.000 A 
ATOM     30  H   UNL     1      -7.909  -7.037  15.802  0.00  0.00    +0.000 HD
ATOM     31  H   UNL     1      -8.844  -5.546  14.064  0.00  0.00    +0.000 HD
ATOM     32  H   UNL     1     -11.121  -4.578  14.402  0.00  0.00    +0.000 HD
ATOM     33  H   UNL     1     -11.568  -6.493  18.013  0.00  0.00    +0.000 HD
ENDBRANCH   6  24
TORSDOF 3
ENDMDL
MODEL 3
REMARK VINA RESULT:    -9.281      0.983      1.446
REMARK INTER + INTRA:         -10.908
REMARK INTER:                 -10.925
REMARK INTRA:                   0.018
REMARK UNBOUND:                -0.271
REMARK  Name = 
REMARK  3 active torsions:
REMARK  status: ('A' for Active; 'I' for Inactive)
REMARK    1  A    between atoms: N_1  and  C_2
REMARK    2  A    between atoms: C_6  and  N_7
REMARK    3  A    between atoms: C_12  and  C_13
REMARK                            x       y       z     vdW  Elec       q    Type
REMARK                         _______ _______ _______ _____ _____    ______ ____
ROOT
ATOM      1  N   UNL     1     -10.230  -8.352  15.905  0.00  0.00    +0.000 N 
ATOM      2  C   UNL     1     -10.127  -7.137  16.592  0.00  0.00    +0.000 A 
ATOM      3  N   UNL     1     -11.177  -6.309  16.530  0.00  0.00    +0.000 NA
ATOM      4  C   UNL     1     -11.089  -5.174  17.247  0.00  0.00    +0.000 A 
ATOM      5  C   UNL     1     -10.003  -4.840  18.023  0.00  0.00    +0.000 A 
ATOM      6  C   UNL     1      -8.955  -5.736  18.018  0.00  0.00    +0.000 A 
ATOM      7  N   UNL     1      -9.015  -6.869  17.294  0.00  0.00    +0.000 NA
ATOM      8  H   UNL     1     -11.198  -8.445  15.624  0.00  0.00    +0.000 HD
ATOM      9  H   UNL     1     -11.949  -4.515  17.178  0.00  0.00    +0.000 HD
ATOM     10  H   UNL     1      -9.981  -3.913  18.578  0.00  0.00    +0.000 HD
ENDROOT
BRANCH   1  15
ATOM     11  C   UNL     1      -8.863 -11.839  15.940  0.00  0.00    +0.000 A 
ATOM     12  C   UNL     1      -8.499 -11.941  17.282  0.00  0.00    +0.000 A 
ATOM     13  C   UNL     1      -8.740 -10.886  18.164  0.00  0.00    +0.000 A 
ATOM     14  C   UNL     1      -9.321  -9.702  17.703  0.00  0.00    +0.000 A 
ATOM     15  C   UNL     1      -9.680  -9.573  16.360  0.00  0.00    +0.000 A 
ATOM     16  C   UNL     1      -9.392 -10.628  15.484  0.00  0.00    +0.000 A 
ATOM     17  H   UNL     1      -8.024 -12.846  17.652  0.00  0.00    +0.000 HD
ATOM     18  H   UNL     1      -8.471 -10.986  19.213  0.00  0.00    +0.000 HD
ATOM     19  H   UNL     1      -9.511  -8.893  18.400  0.00  0.00    +0.000 HD
ATOM     20  H   UNL     1      -9.595 -10.518  14.421  0.00  0.00    +0.000 HD
BRANCH  11  21
ATOM     21  N   UNL     1      -8.499 -12.836  15.023  0.00  0.00    +0.000 N 
ATOM     22  H   UNL     1      -7.519 -12.800  14.762  0.00  0.00    +0.000 HD
ATOM     23  H   UNL     1      -8.776 -13.766  15.325  0.00  0.00    +0.000 HD
ENDBRANCH  11  21
ENDBRANCH   1  15
BRANCH   6  24
ATOM     24  C   UNL     1      -7.707  -5.540  18.770  0.00  0.00    +0.000 A 
ATOM     25  C   UNL     1      -6.473  -6.073  18.367  0.00  0.00    +0.000 A 
ATOM     26  C   UNL     1      -5.329  -5.878  19.141  0.00  0.00    +0.000 A 
ATOM     27  C   UNL     1      -5.439  -5.142  20.308  0.00  0.00    +0.000 A 
ATOM     28  N   UNL     1      -6.591  -4.587  20.729  0.00  0.00    +0.000 NA
ATOM     29  C   UNL     1      -7.685  -4.790  19.950  0.00  0.00    +0.000 A 
ATOM     30  H   UNL     1      -6.382  -6.633  17.440  0.00  0.00    +0.000 HD
ATOM     31  H   UNL     1      -4.372  -6.291  18.840  0.00  0.00    +0.000 HD
ATOM     32  H   UNL     1      -4.580  -4.973  20.951  0.00  0.00    +0.000 HD
ATOM     33  H   UNL     1      -8.591  -4.317  20.328  0.00  0.00    +0.000 HD
ENDBRANCH   6  24
TORSDOF 3
ENDMDL
MODEL 4
REMARK VINA RESULT:    -9.252      2.301      6.203
REMARK INTER + INTRA:         -10.875
REMARK INTER:                 -10.506
REMARK INTRA:                  -0.369
REMARK UNBOUND:                -0.271
REMARK  Name = 
REMARK  3 active torsions:
REMARK  status: ('A' for Active; 'I' for Inactive)
REMARK    1  A    between atoms: N_1  and  C_2
REMARK    2  A    between atoms: C_6  and  N_7
REMARK    3  A    between atoms: C_12  and  C_13
REMARK                            x       y       z     vdW  Elec       q    Type
REMARK                         _______ _______ _______ _____ _____    ______ ____
ROOT
ATOM      1  N   UNL     1      -8.988  -6.122  18.566  0.00  0.00    +0.000 N 
ATOM      2  C   UNL     1      -8.866  -7.465  18.942  0.00  0.00    +0.000 A 
ATOM      3  N   UNL     1      -8.801  -7.729  20.253  0.00  0.00    +0.000 NA
ATOM      4  C   UNL     1      -8.747  -9.027  20.601  0.00  0.00    +0.000 A 
ATOM      5  C   UNL     1      -8.764 -10.063  19.697  0.00  0.00    +0.000 A 
ATOM      6  C   UNL     1      -8.812  -9.708  18.366  0.00  0.00    +0.000 A 
ATOM      7  N   UNL     1      -8.848  -8.415  17.995  0.00  0.00    +0.000 NA
ATOM      8  H   UNL     1      -9.189  -5.601  19.410  0.00  0.00    +0.000 HD
ATOM      9  H   UNL     1      -8.690  -9.217  21.669  0.00  0.00    +0.000 HD
ATOM     10  H   UNL     1      -8.715 -11.091  20.030  0.00  0.00    +0.000 HD
ENDROOT
BRANCH   1  15
ATOM     11  C   UNL     1     -10.005  -5.271  15.062  0.00  0.00    +0.000 A 
ATOM     12  C   UNL     1     -11.318  -4.861  15.286  0.00  0.00    +0.000 A 
ATOM     13  C   UNL     1     -11.841  -4.830  16.580  0.00  0.00    +0.000 A 
ATOM     14  C   UNL     1     -11.061  -5.242  17.664  0.00  0.00    +0.000 A 
ATOM     15  C   UNL     1      -9.748  -5.671  17.461  0.00  0.00    +0.000 A 
ATOM     16  C   UNL     1      -9.257  -5.733  16.149  0.00  0.00    +0.000 A 
ATOM     17  H   UNL     1     -11.946  -4.560  14.451  0.00  0.00    +0.000 HD
ATOM     18  H   UNL     1     -12.860  -4.488  16.744  0.00  0.00    +0.000 HD
ATOM     19  H   UNL     1     -11.476  -5.206  18.666  0.00  0.00    +0.000 HD
ATOM     20  H   UNL     1      -8.264  -6.134  15.964  0.00  0.00    +0.000 HD
BRANCH  11  21
ATOM     21  N   UNL     1      -9.520  -5.437  13.757  0.00  0.00    +0.000 N 
ATOM     22  H   UNL     1     -10.250  -5.403  13.052  0.00  0.00    +0.000 HD
ATOM     23  H   UNL     1      -8.756  -4.803  13.540  0.00  0.00    +0.000 HD
ENDBRANCH  11  21
ENDBRANCH   1  15
BRANCH   6  24
ATOM     24  C   UNL     1      -8.816 -10.677  17.259  0.00  0.00    +0.000 A 
ATOM     25  C   UNL     1      -9.147 -10.336  15.939  0.00  0.00    +0.000 A 
ATOM     26  C   UNL     1      -9.164 -11.308  14.938  0.00  0.00    +0.000 A 
ATOM     27  C   UNL     1      -8.840 -12.610  15.277  0.00  0.00    +0.000 A 
ATOM     28  N   UNL     1      -8.490 -12.987  16.521  0.00  0.00    +0.000 NA
ATOM     29  C   UNL     1      -8.478 -12.017  17.472  0.00  0.00    +0.000 A 
ATOM     30  H   UNL     1      -9.382  -9.310  15.669  0.00  0.00    +0.000 HD
ATOM     31  H   UNL     1      -9.424 -11.055  13.916  0.00  0.00    +0.000 HD
ATOM     32  H   UNL     1      -8.851 -13.404  14.537  0.00  0.00    +0.000 HD
ATOM     33  H   UNL     1      -8.183 -12.368  18.460  0.00  0.00    +0.000 HD
ENDBRANCH   6  24
TORSDOF 3
ENDMDL
MODEL 5
REMARK VINA RESULT:    -9.199      2.155      4.173
REMARK INTER + INTRA:         -10.814
REMARK INTER:                 -10.999
REMARK INTRA:                   0.185
REMARK UNBOUND:                -0.271
REMARK  Name = 
REMARK  3 active torsions:
REMARK  status: ('A' for Active; 'I' for Inactive)
REMARK    1  A    between atoms: N_1  and  C_2
REMARK    2  A    between atoms: C_6  and  N_7
REMARK    3  A    between atoms: C_12  and  C_13
REMARK                            x       y       z     vdW  Elec       q    Type
REMARK                         _______ _______ _______ _____ _____    ______ ____
ROOT
ATOM      1  N   UNL     1      -9.019 -10.609  18.767  0.00  0.00    +0.000 N 
ATOM      2  C   UNL     1      -8.999  -9.234  19.025  0.00  0.00    +0.000 A 
ATOM      3  N   UNL     1      -8.434  -8.835  20.172  0.00  0.00    +0.000 NA
ATOM      4  C   UNL     1      -8.366  -7.507  20.377  0.00  0.00    +0.000 A 
ATOM      5  C   UNL     1      -8.829  -6.570  19.484  0.00  0.00    +0.000 A 
ATOM      6  C   UNL     1      -9.414  -7.061  18.336  0.00  0.00    +0.000 A 
ATOM      7  N   UNL     1      -9.509  -8.386  18.119  0.00  0.00    +0.000 NA
ATOM      8  H   UNL     1      -8.416 -11.042  19.455  0.00  0.00    +0.000 HD
ATOM      9  H   UNL     1      -7.909  -7.207  21.315  0.00  0.00    +0.000 HD
ATOM     10  H   UNL     1      -8.752  -5.513  19.698  0.00  0.00    +0.000 HD
ENDROOT
BRANCH   1  15
ATOM     11  C   UNL     1      -8.813 -10.980  15.045  0.00  0.00    +0.000 A 
ATOM     12  C   UNL     1      -8.466 -12.327  14.957  0.00  0.00    +0.000 A 
ATOM     13  C   UNL     1      -8.343 -13.105  16.109  0.00  0.00    +0.000 A 
ATOM     14  C   UNL     1      -8.535 -12.531  17.369  0.00  0.00    +0.000 A 
ATOM     15  C   UNL     1      -8.869 -11.180  17.482  0.00  0.00    +0.000 A 
ATOM     16  C   UNL     1      -8.947 -10.408  16.314  0.00  0.00    +0.000 A 
ATOM     17  H   UNL     1      -8.290 -12.783  13.986  0.00  0.00    +0.000 HD
ATOM     18  H   UNL     1      -8.092 -14.159  16.026  0.00  0.00    +0.000 HD
ATOM     19  H   UNL     1      -8.445 -13.148  18.257  0.00  0.00    +0.000 HD
ATOM     20  H   UNL     1      -9.132  -9.339  16.385  0.00  0.00    +0.000 HD
BRANCH  11  21
ATOM     21  N   UNL     1      -8.802 -10.162  13.906  0.00  0.00    +0.000 N 
ATOM     22  H   UNL     1      -8.377  -9.254  14.069  0.00  0.00    +0.000 HD
ATOM     23  H   UNL     1      -8.401 -10.626  13.095  0.00  0.00    +0.000 HD
ENDBRANCH  11  21
ENDBRANCH   1  15
BRANCH   6  24
ATOM     24  C   UNL     1      -9.982  -6.212  17.278  0.00  0.00    +0.000 A 
ATOM     25  C   UNL     1     -11.153  -5.457  17.443  0.00  0.00    +0.000 A 
ATOM     26  C   UNL     1     -11.660  -4.694  16.390  0.00  0.00    +0.000 A 
ATOM     27  C   UNL     1     -10.978  -4.695  15.186  0.00  0.00    +0.000 A 
ATOM     28  N   UNL     1      -9.837  -5.379  14.981  0.00  0.00    +0.000 NA
ATOM     29  C   UNL     1      -9.366  -6.108  16.027  0.00  0.00    +0.000 A 
ATOM     30  H   UNL     1     -11.677  -5.440  18.394  0.00  0.00    +0.000 HD
ATOM     31  H   UNL     1     -12.568  -4.111  16.507  0.00  0.00    +0.000 HD
ATOM     32  H   UNL     1     -11.338  -4.128  14.334  0.00  0.00    +0.000 HD
ATOM     33  H   UNL     1      -8.439  -6.639  15.815  0.00  0.00    +0.000 HD
ENDBRANCH   6  24
TORSDOF 3
ENDMDL
MODEL 6
REMARK VINA RESULT:    -9.037      1.324      5.859
REMARK INTER + INTRA:         -10.628
REMARK INTER:                 -10.628
REMARK INTRA:                  -0.000
REMARK UNBOUND:                -0.271
REMARK  Name = 
REMARK  3 active torsions:
REMARK  status: ('A' for Active; 'I' for Inactive)
REMARK    1  A    between atoms: N_1  and  C_2
REMARK    2  A    between atoms: C_6  and  N_7
REMARK    3  A    between atoms: C_12  and  C_13
REMARK                            x       y       z     vdW  Elec       q    Type
REMARK                         _______ _______ _______ _____ _____    ______ ____
ROOT
ATOM      1  N   UNL     1      -9.088  -5.080  19.103  0.00  0.00    +0.000 N 
ATOM      2  C   UNL     1      -9.683  -6.063  18.305  0.00  0.00    +0.000 A 
ATOM      3  N   UNL     1     -10.631  -5.664  17.448  0.00  0.00    +0.000 NA
ATOM      4  C   UNL     1     -11.149  -6.610  16.643  0.00  0.00    +0.000 A 
ATOM      5  C   UNL     1     -10.753  -7.927  16.657  0.00  0.00    +0.000 A 
ATOM      6  C   UNL     1      -9.786  -8.262  17.582  0.00  0.00    +0.000 A 
ATOM      7  N   UNL     1      -9.268  -7.335  18.408  0.00  0.00    +0.000 NA
ATOM      8  H   UNL     1      -9.386  -4.186  18.732  0.00  0.00    +0.000 HD
ATOM      9  H   UNL     1     -11.919  -6.265  15.960  0.00  0.00    +0.000 HD
ATOM     10  H   UNL     1     -11.204  -8.649  15.991  0.00  0.00    +0.000 HD
ENDROOT
BRANCH   1  15
ATOM     11  C   UNL     1      -5.925  -4.395  20.990  0.00  0.00    +0.000 A 
ATOM     12  C   UNL     1      -5.035  -5.181  20.259  0.00  0.00    +0.000 A 
ATOM     13  C   UNL     1      -5.470  -5.891  19.139  0.00  0.00    +0.000 A 
ATOM     14  C   UNL     1      -6.813  -5.847  18.757  0.00  0.00    +0.000 A 
ATOM     15  C   UNL     1      -7.726  -5.079  19.482  0.00  0.00    +0.000 A 
ATOM     16  C   UNL     1      -7.275  -4.406  20.627  0.00  0.00    +0.000 A 
ATOM     17  H   UNL     1      -3.992  -5.245  20.558  0.00  0.00    +0.000 HD
ATOM     18  H   UNL     1      -4.762  -6.483  18.566  0.00  0.00    +0.000 HD
ATOM     19  H   UNL     1      -7.138  -6.397  17.879  0.00  0.00    +0.000 HD
ATOM     20  H   UNL     1      -7.984  -3.864  21.248  0.00  0.00    +0.000 HD
BRANCH  11  21
ATOM     21  N   UNL     1      -5.527  -3.793  22.192  0.00  0.00    +0.000 N 
ATOM     22  H   UNL     1      -4.989  -2.944  22.055  0.00  0.00    +0.000 HD
ATOM     23  H   UNL     1      -6.303  -3.649  22.834  0.00  0.00    +0.000 HD
ENDBRANCH  11  21
ENDBRANCH   1  15
BRANCH   6  24
ATOM     24  C   UNL     1      -9.255  -9.622  17.755  0.00  0.00    +0.000 A 
ATOM     25  C   UNL     1      -9.344 -10.615  16.769  0.00  0.00    +0.000 A 
ATOM     26  C   UNL     1      -8.849 -11.898  17.005  0.00  0.00    +0.000 A 
ATOM     27  C   UNL     1      -8.261 -12.163  18.230  0.00  0.00    +0.000 A 
ATOM     28  N   UNL     1      -8.126 -11.242  19.202  0.00  0.00    +0.000 NA
ATOM     29  C   UNL     1      -8.614 -10.001  18.939  0.00  0.00    +0.000 A 
ATOM     30  H   UNL     1      -9.786 -10.401  15.799  0.00  0.00    +0.000 HD
ATOM     31  H   UNL     1      -8.918 -12.673  16.249  0.00  0.00    +0.000 HD
ATOM     32  H   UNL     1      -7.872 -13.148  18.467  0.00  0.00    +0.000 HD
ATOM     33  H   UNL     1      -8.476  -9.289  19.752  0.00  0.00    +0.000 HD
ENDBRANCH   6  24
TORSDOF 3
ENDMDL
MODEL 7
REMARK VINA RESULT:    -8.586      3.392      8.259
REMARK INTER + INTRA:         -10.111
REMARK INTER:                  -9.799
REMARK INTRA:                  -0.312
REMARK UNBOUND:                -0.271
REMARK  Name = 
REMARK  3 active torsions:
REMARK  status: ('A' for Active; 'I' for Inactive)
REMARK    1  A    between atoms: N_1  and  C_2
REMARK    2  A    between atoms: C_6  and  N_7
REMARK    3  A    between atoms: C_12  and  C_13
REMARK                            x       y       z     vdW  Elec       q    Type
REMARK                         _______ _______ _______ _____ _____    ______ ____
ROOT
ATOM      1  N   UNL     1      -6.220  -2.502  22.026  0.00  0.00    +0.000 N 
ATOM      2  C   UNL     1      -6.044  -3.626  21.211  0.00  0.00    +0.000 A 
ATOM      3  N   UNL     1      -4.787  -4.025  20.982  0.00  0.00    +0.000 NA
ATOM      4  C   UNL     1      -4.637  -5.143  20.249  0.00  0.00    +0.000 A 
ATOM      5  C   UNL     1      -5.688  -5.876  19.746  0.00  0.00    +0.000 A 
ATOM      6  C   UNL     1      -6.950  -5.388  20.009  0.00  0.00    +0.000 A 
ATOM      7  N   UNL     1      -7.122  -4.261  20.725  0.00  0.00    +0.000 NA
ATOM      8  H   UNL     1      -5.320  -2.305  22.446  0.00  0.00    +0.000 HD
ATOM      9  H   UNL     1      -3.610  -5.446  20.072  0.00  0.00    +0.000 HD
ATOM     10  H   UNL     1      -5.513  -6.766  19.160  0.00  0.00    +0.000 HD
ENDROOT
BRANCH   1  15
ATOM     11  C   UNL     1      -9.102  -1.005  23.893  0.00  0.00    +0.000 A 
ATOM     12  C   UNL     1      -9.459  -2.090  24.693  0.00  0.00    +0.000 A 
ATOM     13  C   UNL     1      -8.732  -3.280  24.640  0.00  0.00    +0.000 A 
ATOM     14  C   UNL     1      -7.654  -3.408  23.760  0.00  0.00    +0.000 A 
ATOM     15  C   UNL     1      -7.287  -2.339  22.939  0.00  0.00    +0.000 A 
ATOM     16  C   UNL     1      -8.057  -1.168  22.978  0.00  0.00    +0.000 A 
ATOM     17  H   UNL     1     -10.310  -2.015  25.366  0.00  0.00    +0.000 HD
ATOM     18  H   UNL     1      -9.008  -4.111  25.284  0.00  0.00    +0.000 HD
ATOM     19  H   UNL     1      -7.091  -4.335  23.734  0.00  0.00    +0.000 HD
ATOM     20  H   UNL     1      -7.834  -0.353  22.294  0.00  0.00    +0.000 HD
BRANCH  11  21
ATOM     21  N   UNL     1      -9.910   0.140  23.838  0.00  0.00    +0.000 N 
ATOM     22  H   UNL     1     -10.889  -0.069  23.672  0.00  0.00    +0.000 HD
ATOM     23  H   UNL     1      -9.784   0.746  24.645  0.00  0.00    +0.000 HD
ENDBRANCH  11  21
ENDBRANCH   1  15
BRANCH   6  24
ATOM     24  C   UNL     1      -8.189  -6.024  19.537  0.00  0.00    +0.000 A 
ATOM     25  C   UNL     1      -8.487  -7.378  19.748  0.00  0.00    +0.000 A 
ATOM     26  C   UNL     1      -9.666  -7.932  19.248  0.00  0.00    +0.000 A 
ATOM     27  C   UNL     1     -10.534  -7.113  18.547  0.00  0.00    +0.000 A 
ATOM     28  N   UNL     1     -10.311  -5.802  18.337  0.00  0.00    +0.000 NA
ATOM     29  C   UNL     1      -9.157  -5.293  18.842  0.00  0.00    +0.000 A 
ATOM     30  H   UNL     1      -7.816  -8.016  20.316  0.00  0.00    +0.000 HD
ATOM     31  H   UNL     1      -9.902  -8.980  19.402  0.00  0.00    +0.000 HD
ATOM     32  H   UNL     1     -11.458  -7.500  18.127  0.00  0.00    +0.000 HD
ATOM     33  H   UNL     1      -9.023  -4.228  18.653  0.00  0.00    +0.000 HD
ENDBRANCH   6  24
TORSDOF 3
ENDMDL
MODEL 8
REMARK VINA RESULT:    -8.269      1.817      4.190
REMARK INTER + INTRA:          -9.748
REMARK INTER:                  -9.862
REMARK INTRA:                   0.114
REMARK UNBOUND:                -0.271
REMARK  Name = 
REMARK  3 active torsions:
REMARK  status: ('A' for Active; 'I' for Inactive)
REMARK    1  A    between atoms: N_1  and  C_2
REMARK    2  A    between atoms: C_6  and  N_7
REMARK    3  A    between atoms: C_12  and  C_13
REMARK                            x       y       z     vdW  Elec       q    Type
REMARK                         _______ _______ _______ _____ _____    ______ ____
ROOT
ATOM      1  N   UNL     1      -8.844  -8.512  19.689  0.00  0.00    +0.000 N 
ATOM      2  C   UNL     1      -8.770  -7.120  19.561  0.00  0.00    +0.000 A 
ATOM      3  N   UNL     1      -7.914  -6.477  20.365  0.00  0.00    +0.000 NA
ATOM      4  C   UNL     1      -7.808  -5.148  20.187  0.00  0.00    +0.000 A 
ATOM      5  C   UNL     1      -8.514  -4.443  19.239  0.00  0.00    +0.000 A 
ATOM      6  C   UNL     1      -9.389  -5.175  18.464  0.00  0.00    +0.000 A 
ATOM      7  N   UNL     1      -9.524  -6.503  18.638  0.00  0.00    +0.000 NA
ATOM      8  H   UNL     1      -8.068  -8.791  20.276  0.00  0.00    +0.000 HD
ATOM      9  H   UNL     1      -7.112  -4.646  20.852  0.00  0.00    +0.000 HD
ATOM     10  H   UNL     1      -8.394  -3.374  19.139  0.00  0.00    +0.000 HD
ENDROOT
BRANCH   1  15
ATOM     11  C   UNL     1      -9.852  -9.869  16.346  0.00  0.00    +0.000 A 
ATOM     12  C   UNL     1      -9.351 -11.165  16.453  0.00  0.00    +0.000 A 
ATOM     13  C   UNL     1      -8.727 -11.591  17.626  0.00  0.00    +0.000 A 
ATOM     14  C   UNL     1      -8.569 -10.709  18.698  0.00  0.00    +0.000 A 
ATOM     15  C   UNL     1      -9.050  -9.401  18.609  0.00  0.00    +0.000 A 
ATOM     16  C   UNL     1      -9.636  -8.983  17.406  0.00  0.00    +0.000 A 
ATOM     17  H   UNL     1      -9.444 -11.857  15.619  0.00  0.00    +0.000 HD
ATOM     18  H   UNL     1      -8.359 -12.611  17.704  0.00  0.00    +0.000 HD
ATOM     19  H   UNL     1      -8.090 -11.054  19.609  0.00  0.00    +0.000 HD
ATOM     20  H   UNL     1      -9.949  -7.948  17.290  0.00  0.00    +0.000 HD
BRANCH  11  21
ATOM     21  N   UNL     1     -10.353  -9.393  15.125  0.00  0.00    +0.000 N 
ATOM     22  H   UNL     1     -10.869 -10.095  14.605  0.00  0.00    +0.000 HD
ATOM     23  H   UNL     1     -10.883  -8.532  15.229  0.00  0.00    +0.000 HD
ENDBRANCH  11  21
ENDBRANCH   1  15
BRANCH   6  24
ATOM     24  C   UNL     1     -10.240  -4.592  17.417  0.00  0.00    +0.000 A 
ATOM     25  C   UNL     1     -10.728  -5.324  16.325  0.00  0.00    +0.000 A 
ATOM     26  C   UNL     1     -11.506  -4.706  15.345  0.00  0.00    +0.000 A 
ATOM     27  C   UNL     1     -11.789  -3.358  15.481  0.00  0.00    +0.000 A 
ATOM     28  N   UNL     1     -11.368  -2.613  16.521  0.00  0.00    +0.000 NA
ATOM     29  C   UNL     1     -10.618  -3.246  17.460  0.00  0.00    +0.000 A 
ATOM     30  H   UNL     1     -10.524  -6.387  16.229  0.00  0.00    +0.000 HD
ATOM     31  H   UNL     1     -11.883  -5.264  14.495  0.00  0.00    +0.000 HD
ATOM     32  H   UNL     1     -12.379  -2.828  14.740  0.00  0.00    +0.000 HD
ATOM     33  H   UNL     1     -10.306  -2.605  18.284  0.00  0.00    +0.000 HD
ENDBRANCH   6  24
TORSDOF 3
ENDMDL
MODEL 9
REMARK VINA RESULT:    -8.159      3.108      5.907
REMARK INTER + INTRA:          -9.622
REMARK INTER:                  -9.574
REMARK INTRA:                  -0.047
REMARK UNBOUND:                -0.271
REMARK  Name = 
REMARK  3 active torsions:
REMARK  status: ('A' for Active; 'I' for Inactive)
REMARK    1  A    between atoms: N_1  and  C_2
REMARK    2  A    between atoms: C_6  and  N_7
REMARK    3  A    between atoms: C_12  and  C_13
REMARK                            x       y       z     vdW  Elec       q    Type
REMARK                         _______ _______ _______ _____ _____    ______ ____
ROOT
ATOM      1  N   UNL     1      -7.390  -6.045  19.149  0.00  0.00    +0.000 N 
ATOM      2  C   UNL     1      -6.647  -5.236  20.016  0.00  0.00    +0.000 A 
ATOM      3  N   UNL     1      -5.321  -5.207  19.839  0.00  0.00    +0.000 NA
ATOM      4  C   UNL     1      -4.627  -4.377  20.638  0.00  0.00    +0.000 A 
ATOM      5  C   UNL     1      -5.204  -3.576  21.596  0.00  0.00    +0.000 A 
ATOM      6  C   UNL     1      -6.573  -3.679  21.730  0.00  0.00    +0.000 A 
ATOM      7  N   UNL     1      -7.284  -4.516  20.953  0.00  0.00    +0.000 NA
ATOM      8  H   UNL     1      -6.763  -6.329  18.408  0.00  0.00    +0.000 HD
ATOM      9  H   UNL     1      -3.552  -4.373  20.480  0.00  0.00    +0.000 HD
ATOM     10  H   UNL     1      -4.600  -2.928  22.216  0.00  0.00    +0.000 HD
ENDROOT
BRANCH   1  15
ATOM     11  C   UNL     1     -10.888  -6.385  17.851  0.00  0.00    +0.000 A 
ATOM     12  C   UNL     1     -11.262  -5.043  17.812  0.00  0.00    +0.000 A 
ATOM     13  C   UNL     1     -10.356  -4.044  18.173  0.00  0.00    +0.000 A 
ATOM     14  C   UNL     1      -9.072  -4.382  18.607  0.00  0.00    +0.000 A 
ATOM     15  C   UNL     1      -8.680  -5.721  18.668  0.00  0.00    +0.000 A 
ATOM     16  C   UNL     1      -9.619  -6.710  18.341  0.00  0.00    +0.000 A 
ATOM     17  H   UNL     1     -12.265  -4.764  17.500  0.00  0.00    +0.000 HD
ATOM     18  H   UNL     1     -10.653  -2.999  18.118  0.00  0.00    +0.000 HD
ATOM     19  H   UNL     1      -8.374  -3.596  18.876  0.00  0.00    +0.000 HD
ATOM     20  H   UNL     1      -9.359  -7.759  18.454  0.00  0.00    +0.000 HD
BRANCH  11  21
ATOM     21  N   UNL     1     -11.833  -7.398  17.627  0.00  0.00    +0.000 N 
ATOM     22  H   UNL     1     -12.013  -7.564  16.642  0.00  0.00    +0.000 HD
ATOM     23  H   UNL     1     -11.610  -8.257  18.121  0.00  0.00    +0.000 HD
ENDBRANCH  11  21
ENDBRANCH   1  15
BRANCH   6  24
ATOM     24  C   UNL     1      -7.359  -2.917  22.712  0.00  0.00    +0.000 A 
ATOM     25  C   UNL     1      -7.416  -1.515  22.731  0.00  0.00    +0.000 A 
ATOM     26  C   UNL     1      -8.155  -0.848  23.709  0.00  0.00    +0.000 A 
ATOM     27  C   UNL     1      -8.834  -1.601  24.651  0.00  0.00    +0.000 A 
ATOM     28  N   UNL     1      -8.835  -2.947  24.664  0.00  0.00    +0.000 NA
ATOM     29  C   UNL     1      -8.110  -3.567  23.696  0.00  0.00    +0.000 A 
ATOM     30  H   UNL     1      -6.900  -0.925  21.979  0.00  0.00    +0.000 HD
ATOM     31  H   UNL     1      -8.201   0.236  23.734  0.00  0.00    +0.000 HD
ATOM     32  H   UNL     1      -9.413  -1.129  25.439  0.00  0.00    +0.000 HD
ATOM     33  H   UNL     1      -8.146  -4.654  23.744  0.00  0.00    +0.000 HD
ENDBRANCH   6  24
TORSDOF 3
ENDMDL
