REMARK  Name = 
REMARK  7 active torsions:
REMARK  status: ('A' for Active; 'I' for Inactive)
REMARK    1  A    between atoms: C_1  and  C_2
REMARK    2  A    between atoms: C_2  and  N_3
REMARK    3  A    between atoms: N_8  and  C_9
REMARK    4  A    between atoms: C_13  and  C_14
REMARK    5  A    between atoms: N_21  and  C_22
REMARK    6  A    between atoms: C_22  and  C_23
REMARK    7  A    between atoms: C_23  and  N_24
REMARK                            x       y       z     vdW  Elec       q    Type
REMARK                         _______ _______ _______ _____ _____    ______ ____
ROOT
ATOM      1  N   UNL     1      -1.941   0.669  -2.045  0.00  0.00    +0.000 N 
ATOM      2  C   UNL     1      -2.063  -0.692  -1.999  0.00  0.00    +0.000 A 
ATOM      3  N   UNL     1      -1.660  -1.175  -0.847  0.00  0.00    +0.000 NA
ATOM      4  C   UNL     1      -1.269  -0.074  -0.111  0.00  0.00    +0.000 A 
ATOM      5  C   UNL     1      -0.792   0.076   1.202  0.00  0.00    +0.000 A 
ATOM      6  N   UNL     1      -0.609  -0.997   2.082  0.00  0.00    +0.000 N 
ATOM      7  N   UNL     1      -0.544   1.339   1.644  0.00  0.00    +0.000 NA
ATOM      8  C   UNL     1      -0.687   2.392   0.804  0.00  0.00    +0.000 A 
ATOM      9  N   UNL     1      -0.328   3.659   1.231  0.00  0.00    +0.000 N 
ATOM     10  N   UNL     1      -1.125   2.334  -0.465  0.00  0.00    +0.000 NA
ATOM     11  C   UNL     1      -1.419   1.084  -0.851  0.00  0.00    +0.000 A 
ATOM     12  H   UNL     1      -2.454  -1.279  -2.821  0.00  0.00    +0.000 HD
ATOM     13  H   UNL     1      -0.579  -0.710   3.051  0.00  0.00    +0.000 HD
ATOM     14  H   UNL     1      -0.204   4.245   0.414  0.00  0.00    +0.000 HD
ENDROOT
BRANCH   6  15
ATOM     15  C   UNL     1      -0.131  -2.286   1.798  0.00  0.00    +0.000 A 
ATOM     16  C   UNL     1      -0.563  -3.367   2.571  0.00  0.00    +0.000 A 
ATOM     17  C   UNL     1      -0.168  -4.672   2.261  0.00  0.00    +0.000 A 
ATOM     18  C   UNL     1       0.681  -4.912   1.180  0.00  0.00    +0.000 A 
ATOM     19  C   UNL     1       1.142  -3.848   0.397  0.00  0.00    +0.000 A 
ATOM     20  C   UNL     1       0.719  -2.546   0.712  0.00  0.00    +0.000 A 
ATOM     21  H   UNL     1      -1.248  -3.204   3.399  0.00  0.00    +0.000 HD
ATOM     22  H   UNL     1      -0.539  -5.504   2.855  0.00  0.00    +0.000 HD
ATOM     23  H   UNL     1       0.976  -5.934   0.949  0.00  0.00    +0.000 HD
ATOM     24  H   UNL     1       1.071  -1.722   0.094  0.00  0.00    +0.000 HD
BRANCH  19  25
ATOM     25  C   UNL     1       2.071  -4.067  -0.771  0.00  0.00    +0.000 C 
ATOM     26  F   UNL     1       2.443  -5.369  -0.933  0.00  0.00    +0.000 F 
ATOM     27  F   UNL     1       1.535  -3.683  -1.959  0.00  0.00    +0.000 F 
ATOM     28  F   UNL     1       3.237  -3.367  -0.643  0.00  0.00    +0.000 F 
ENDBRANCH  19  25
ENDBRANCH   6  15
BRANCH   1  29
ATOM     29  C   UNL     1      -2.356   1.506  -3.147  0.00  0.00    +0.000 C 
ATOM     30  H   UNL     1      -3.242   1.043  -3.596  0.00  0.00    +0.000 HD
ATOM     31  H   UNL     1      -2.660   2.478  -2.745  0.00  0.00    +0.000 HD
BRANCH  29  32
ATOM     32  C   UNL     1      -1.263   1.668  -4.186  0.00  0.00    +0.000 C 
ATOM     33  H   UNL     1      -1.619   2.282  -5.017  0.00  0.00    +0.000 HD
ATOM     34  H   UNL     1      -0.952   0.697  -4.587  0.00  0.00    +0.000 HD
ATOM     35  H   UNL     1      -0.378   2.149  -3.755  0.00  0.00    +0.000 HD
ENDBRANCH  29  32
ENDBRANCH   1  29
BRANCH   9  36
ATOM     36  C   UNL     1       0.744   3.756   2.214  0.00  0.00    +0.000 C 
ATOM     37  H   UNL     1       0.473   3.233   3.139  0.00  0.00    +0.000 HD
ATOM     38  H   UNL     1       0.850   4.815   2.483  0.00  0.00    +0.000 HD
BRANCH  36  39
ATOM     39  C   UNL     1       2.102   3.245   1.690  0.00  0.00    +0.000 C 
ATOM     40  H   UNL     1       2.060   2.167   1.492  0.00  0.00    +0.000 HD
ATOM     41  H   UNL     1       2.860   3.397   2.466  0.00  0.00    +0.000 HD
BRANCH  39  42
ATOM     42  N   UNL     1       2.537   3.930   0.465  0.00  0.00    +0.000 NA
ATOM     43  H   UNL     1       1.871   3.722  -0.277  0.00  0.00    +0.000 HD
ATOM     44  H   UNL     1       3.422   3.520   0.161  0.00  0.00    +0.000 HD
ENDBRANCH  39  42
ENDBRANCH  36  39
ENDBRANCH   9  36
TORSDOF 7
