
 OpenBabel01112422543D

 48 51  0  0  1  0  0  0  0  0999 V2000
    1.4743    0.1191   -1.6238 C   0  0  0  0  0  0  0  0  0  0  0  0
    2.7668    0.0166   -0.9023 C   0  0  0  0  0  0  0  0  0  0  0  0
    3.4724    1.1112   -0.5895 N   0  0  0  0  0  0  0  0  0  0  0  0
    4.5551    0.6255    0.0461 N   0  0  0  0  0  0  0  0  0  0  0  0
    4.5743   -0.7361    0.1558 C   0  0  0  0  0  0  0  0  0  0  0  0
    5.4751   -1.6183    0.7255 C   0  0  0  0  0  0  0  0  0  0  0  0
    5.2102   -2.9478    0.6688 N   0  0  0  0  0  0  0  0  0  0  0  0
    4.0841   -3.3994    0.0548 C   0  0  0  0  0  0  0  0  0  0  0  0
    3.8989   -4.8594    0.0301 C   0  0  0  0  0  0  0  0  0  0  0  0
    4.3933   -5.6888    1.0346 C   0  0  0  0  0  0  0  0  0  0  0  0
    4.2058   -7.0344    1.0924 N   0  0  0  0  0  0  0  0  0  0  0  0
    3.4926   -7.5953    0.0872 C   0  0  0  0  0  0  0  0  0  0  0  0
    2.9728   -6.8803   -0.9782 C   0  0  0  0  0  0  0  0  0  0  0  0
    2.2510   -7.3501   -2.0325 O   0  0  0  0  0  0  0  0  0  0  0  0
    1.9596   -8.7496   -2.0661 C   0  0  0  0  0  0  0  0  0  0  0  0
    1.1570   -9.0325   -3.3588 C   0  0  1  0  0  0  0  0  0  0  0  0
    1.9433   -8.6455   -4.5497 N   0  0  0  0  0  0  0  0  0  0  0  0
    0.7371  -10.5163   -3.4094 C   0  0  0  0  0  0  0  0  0  0  0  0
   -0.0436  -10.9194   -4.6388 C   0  0  0  0  0  0  0  0  0  0  0  0
    0.4571  -11.9046   -5.5059 C   0  0  0  0  0  0  0  0  0  0  0  0
   -0.2589  -12.2863   -6.6453 C   0  0  0  0  0  0  0  0  0  0  0  0
   -1.4837  -11.6864   -6.9338 C   0  0  0  0  0  0  0  0  0  0  0  0
   -1.9881  -10.7154   -6.0757 C   0  0  0  0  0  0  0  0  0  0  0  0
   -3.1709  -10.1487   -6.3530 F   0  0  0  0  0  0  0  0  0  0  0  0
   -1.2816  -10.3393   -4.9364 C   0  0  0  0  0  0  0  0  0  0  0  0
   -1.8074   -9.4243   -4.1076 F   0  0  0  0  0  0  0  0  0  0  0  0
    3.1950   -5.5048   -0.9980 C   0  0  0  0  0  0  0  0  0  0  0  0
    3.1456   -2.5375   -0.5171 C   0  0  0  0  0  0  0  0  0  0  0  0
    3.4116   -1.1672   -0.4640 C   0  0  0  0  0  0  0  0  0  0  0  0
    1.2117    1.1581   -1.8439 H   0  0  0  0  0  0  0  0  0  0  0  0
    0.6694   -0.3153   -1.0215 H   0  0  0  0  0  0  0  0  0  0  0  0
    1.5242   -0.4276   -2.5714 H   0  0  0  0  0  0  0  0  0  0  0  0
    5.2460    1.2867    0.3824 H   0  0  0  0  0  0  0  0  0  0  0  0
    6.3901   -1.3156    1.2202 H   0  0  0  0  0  0  0  0  0  0  0  0
    4.9645   -5.2783    1.8654 H   0  0  0  0  0  0  0  0  0  0  0  0
    3.3629   -8.6668    0.1889 H   0  0  0  0  0  0  0  0  0  0  0  0
    1.3588   -9.0242   -1.1908 H   0  0  0  0  0  0  0  0  0  0  0  0
    2.8929   -9.3271   -2.0709 H   0  0  0  0  0  0  0  0  0  0  0  0
    0.2664   -8.3927   -3.3531 H   0  0  0  0  0  0  0  0  0  0  0  0
    2.8362   -9.1357   -4.5527 H   0  0  0  0  0  0  0  0  0  0  0  0
    2.1807   -7.6548   -4.4538 H   0  0  0  0  0  0  0  0  0  0  0  0
    0.1235  -10.7533   -2.5302 H   0  0  0  0  0  0  0  0  0  0  0  0
    1.6337  -11.1450   -3.3262 H   0  0  0  0  0  0  0  0  0  0  0  0
    1.4153  -12.3788   -5.3029 H   0  0  0  0  0  0  0  0  0  0  0  0
    0.1430  -13.0492   -7.3079 H   0  0  0  0  0  0  0  0  0  0  0  0
   -2.0471  -11.9699   -7.8170 H   0  0  0  0  0  0  0  0  0  0  0  0
    2.8076   -4.9397   -1.8426 H   0  0  0  0  0  0  0  0  0  0  0  0
    2.2353   -2.8984   -0.9788 H   0  0  0  0  0  0  0  0  0  0  0  0
  1  2  1  0  0  0  0
  1 30  1  0  0  0  0
  1 31  1  0  0  0  0
  1 32  1  0  0  0  0
  2  3  2  0  0  0  0
  2 29  1  0  0  0  0
  3  4  1  0  0  0  0
  4  5  1  0  0  0  0
  4 33  1  0  0  0  0
  5  6  1  0  0  0  0
  5 29  2  0  0  0  0
  6  7  2  0  0  0  0
  6 34  1  0  0  0  0
  7  8  1  0  0  0  0
  8  9  1  0  0  0  0
  8 28  2  0  0  0  0
  9 10  1  0  0  0  0
  9 27  2  0  0  0  0
 10 11  2  0  0  0  0
 10 35  1  0  0  0  0
 11 12  1  0  0  0  0
 12 13  2  0  0  0  0
 12 36  1  0  0  0  0
 13 14  1  0  0  0  0
 13 27  1  0  0  0  0
 14 15  1  0  0  0  0
 15 16  1  0  0  0  0
 15 37  1  0  0  0  0
 15 38  1  0  0  0  0
 16 17  1  0  0  0  0
 16 18  1  0  0  0  0
 16 39  1  1  0  0  0
 17 40  1  0  0  0  0
 17 41  1  0  0  0  0
 18 19  1  0  0  0  0
 18 42  1  0  0  0  0
 18 43  1  0  0  0  0
 19 20  1  0  0  0  0
 19 25  2  0  0  0  0
 20 21  2  0  0  0  0
 20 44  1  0  0  0  0
 21 22  1  0  0  0  0
 21 45  1  0  0  0  0
 22 23  2  0  0  0  0
 22 46  1  0  0  0  0
 23 24  1  0  0  0  0
 23 25  1  0  0  0  0
 25 26  1  0  0  0  0
 27 47  1  0  0  0  0
 28 29  1  0  0  0  0
 28 48  1  0  0  0  0
M  END
$$$$
