
 OpenBabel01112422433D

 43 46  0  0  0  0  0  0  0  0999 V2000
    0.7776   -0.0056    0.5978 F   0  0  0  0  0  0  0  0  0  0  0  0
    1.9505    0.1105    1.2780 C   0  0  0  0  0  0  0  0  0  0  0  0
    1.6153    0.3546    2.5742 F   0  0  0  0  0  0  0  0  0  0  0  0
    2.7971   -1.1560    1.1504 C   0  0  0  0  0  0  0  0  0  0  0  0
    2.1346   -2.2336    1.6420 F   0  0  0  0  0  0  0  0  0  0  0  0
    3.0598   -1.3922   -0.1645 F   0  0  0  0  0  0  0  0  0  0  0  0
    4.0385   -1.0035    1.8460 O   0  0  0  0  0  0  0  0  0  0  0  0
    4.9510   -2.0142    1.7772 C   0  0  0  0  0  0  0  0  0  0  0  0
    4.7610   -3.2446    1.1597 C   0  0  0  0  0  0  0  0  0  0  0  0
    5.7955   -4.1851    1.1739 C   0  0  0  0  0  0  0  0  0  0  0  0
    7.0064   -3.8964    1.8075 C   0  0  0  0  0  0  0  0  0  0  0  0
    7.2168   -2.6817    2.4628 C   0  0  0  0  0  0  0  0  0  0  0  0
    8.4151   -2.3436    3.1172 N   0  0  0  0  0  0  0  0  0  0  0  0
    9.4579   -3.1442    3.5866 C   0  0  0  0  0  0  0  0  0  0  0  0
   10.2691   -2.5958    4.5039 N   0  0  0  0  0  0  0  0  0  0  0  0
   11.1990   -3.3982    5.0668 C   0  0  0  0  0  0  0  0  0  0  0  0
   11.3487   -4.7288    4.7652 C   0  0  0  0  0  0  0  0  0  0  0  0
   10.4917   -5.1883    3.8020 C   0  0  0  0  0  0  0  0  0  0  0  0
   10.3482   -6.5974    3.4960 C   0  0  0  0  0  0  0  0  0  0  0  0
   10.4449   -7.1031    2.2129 C   0  0  0  0  0  0  0  0  0  0  0  0
    9.9454   -8.3793    2.2372 N   0  0  0  0  0  0  0  0  0  0  0  0
    9.2071   -8.5451    3.3872 C   0  0  0  0  0  0  0  0  0  0  0  0
    8.1798   -9.4421    3.6947 C   0  0  0  0  0  0  0  0  0  0  0  0
    7.6245   -9.3625    4.9756 C   0  0  0  0  0  0  0  0  0  0  0  0
    8.1438   -8.4944    5.9352 C   0  0  0  0  0  0  0  0  0  0  0  0
    9.1504   -7.5851    5.6005 C   0  0  0  0  0  0  0  0  0  0  0  0
    9.6298   -7.5578    4.2755 C   0  0  0  0  0  0  0  0  0  0  0  0
    9.5727   -4.4140    3.1964 N   0  0  0  0  0  0  0  0  0  0  0  0
    6.1758   -1.7417    2.4195 C   0  0  0  0  0  0  0  0  0  0  0  0
    2.4842    0.9840    0.8942 H   0  0  0  0  0  0  0  0  0  0  0  0
    3.8400   -3.5154    0.6646 H   0  0  0  0  0  0  0  0  0  0  0  0
    5.6596   -5.1450    0.6837 H   0  0  0  0  0  0  0  0  0  0  0  0
    7.7752   -4.6633    1.7720 H   0  0  0  0  0  0  0  0  0  0  0  0
    8.4073   -1.4887    3.6547 H   0  0  0  0  0  0  0  0  0  0  0  0
   11.8171   -2.9255    5.8244 H   0  0  0  0  0  0  0  0  0  0  0  0
   12.0575   -5.3658    5.2717 H   0  0  0  0  0  0  0  0  0  0  0  0
   10.7690   -6.6508    1.2848 H   0  0  0  0  0  0  0  0  0  0  0  0
    9.9523   -9.0248    1.4598 H   0  0  0  0  0  0  0  0  0  0  0  0
    7.7720  -10.1161    2.9491 H   0  0  0  0  0  0  0  0  0  0  0  0
    6.7677   -9.9829    5.2265 H   0  0  0  0  0  0  0  0  0  0  0  0
    7.7260   -8.4817    6.9378 H   0  0  0  0  0  0  0  0  0  0  0  0
    9.5019   -6.8659    6.3340 H   0  0  0  0  0  0  0  0  0  0  0  0
    6.3026   -0.7760    2.9024 H   0  0  0  0  0  0  0  0  0  0  0  0
  1  2  1  0  0  0  0
  2  3  1  0  0  0  0
  2  4  1  0  0  0  0
  2 30  1  0  0  0  0
  4  5  1  0  0  0  0
  4  6  1  0  0  0  0
  4  7  1  0  0  0  0
  7  8  1  0  0  0  0
  8  9  1  0  0  0  0
  8 29  2  0  0  0  0
  9 10  2  0  0  0  0
  9 31  1  0  0  0  0
 10 11  1  0  0  0  0
 10 32  1  0  0  0  0
 11 12  2  0  0  0  0
 11 33  1  0  0  0  0
 12 13  1  0  0  0  0
 12 29  1  0  0  0  0
 13 14  1  0  0  0  0
 13 34  1  0  0  0  0
 14 15  1  0  0  0  0
 14 28  2  0  0  0  0
 15 16  2  0  0  0  0
 16 17  1  0  0  0  0
 16 35  1  0  0  0  0
 17 18  2  0  0  0  0
 17 36  1  0  0  0  0
 18 19  1  0  0  0  0
 18 28  1  0  0  0  0
 19 20  2  0  0  0  0
 19 27  1  0  0  0  0
 20 21  1  0  0  0  0
 20 37  1  0  0  0  0
 21 22  1  0  0  0  0
 21 38  1  0  0  0  0
 22 23  1  0  0  0  0
 22 27  2  0  0  0  0
 23 24  2  0  0  0  0
 23 39  1  0  0  0  0
 24 25  1  0  0  0  0
 24 40  1  0  0  0  0
 25 26  2  0  0  0  0
 25 41  1  0  0  0  0
 26 27  1  0  0  0  0
 26 42  1  0  0  0  0
 29 43  1  0  0  0  0
M  END
$$$$
