REMARK  Name = 
REMARK  6 active torsions:
REMARK  status: ('A' for Active; 'I' for Inactive)
REMARK    1  A    between atoms: C_1  and  N_2
REMARK    2  A    between atoms: C_12  and  C_13
REMARK    3  A    between atoms: C_13  and  C_14
REMARK    4  A    between atoms: C_14  and  N_15
REMARK    5  A    between atoms: C_19  and  C_20
REMARK    6  A    between atoms: C_20  and  O_21
REMARK                            x       y       z     vdW  Elec       q    Type
REMARK                         _______ _______ _______ _____ _____    ______ ____
ROOT
ATOM      1  N   UNL     1      -5.219   3.074  -1.078  0.00  0.00    +0.000 N 
ATOM      2  C   UNL     1      -5.928   2.553  -2.173  0.00  0.00    +0.000 A 
ATOM      3  C   UNL     1      -4.910   2.230  -3.041  0.00  0.00    +0.000 A 
ATOM      4  C   UNL     1      -4.083   1.532  -2.117  0.00  0.00    +0.000 A 
ATOM      5  C   UNL     1      -3.289   0.395  -2.281  0.00  0.00    +0.000 A 
ATOM      6  C   UNL     1      -2.342   0.116  -1.329  0.00  0.00    +0.000 A 
ATOM      7  C   UNL     1      -2.078   1.106  -0.384  0.00  0.00    +0.000 A 
ATOM      8  C   UNL     1      -0.822   1.058   0.202  0.00  0.00    +0.000 A 
ATOM      9  N   UNL     1       0.090   0.059   0.332  0.00  0.00    +0.000 N 
ATOM     10  C   UNL     1       1.017   0.394   1.290  0.00  0.00    +0.000 A 
ATOM     11  C   UNL     1       1.961  -0.475   1.913  0.00  0.00    +0.000 A 
ATOM     12  C   UNL     1       2.741   0.119   2.916  0.00  0.00    +0.000 A 
ATOM     13  C   UNL     1       2.636   1.473   3.222  0.00  0.00    +0.000 A 
ATOM     14  C   UNL     1       1.734   2.301   2.549  0.00  0.00    +0.000 A 
ATOM     15  C   UNL     1       0.895   1.753   1.591  0.00  0.00    +0.000 A 
ATOM     16  C   UNL     1      -0.230   2.121   0.822  0.00  0.00    +0.000 A 
ATOM     17  C   UNL     1      -1.008   3.279   1.103  0.00  0.00    +0.000 A 
ATOM     18  C   UNL     1      -2.411   3.037   0.958  0.00  0.00    +0.000 A 
ATOM     19  C   UNL     1      -2.943   2.192  -0.054  0.00  0.00    +0.000 A 
ATOM     20  C   UNL     1      -4.055   2.324  -0.929  0.00  0.00    +0.000 A 
ATOM     21  C   UNL     1      -2.853   3.269   2.325  0.00  0.00    +0.000 C 
ATOM     22  O   UNL     1      -3.635   2.666   3.051  0.00  0.00    +0.000 OA
ATOM     23  N   UNL     1      -1.921   4.164   2.835  0.00  0.00    +0.000 N 
ATOM     24  C   UNL     1      -0.775   4.275   2.091  0.00  0.00    +0.000 C 
ATOM     25  O   UNL     1       0.147   5.034   2.341  0.00  0.00    +0.000 OA
ATOM     26  H   UNL     1      -6.797   1.952  -1.919  0.00  0.00    +0.000 HD
ATOM     27  H   UNL     1      -4.443   3.018  -3.641  0.00  0.00    +0.000 HD
ATOM     28  H   UNL     1      -3.379  -0.225  -3.167  0.00  0.00    +0.000 HD
ATOM     29  H   UNL     1      -1.714  -0.757  -1.466  0.00  0.00    +0.000 HD
ATOM     30  H   UNL     1      -0.068  -0.888  -0.001  0.00  0.00    +0.000 HD
ATOM     31  H   UNL     1       3.429  -0.499   3.486  0.00  0.00    +0.000 HD
ATOM     32  H   UNL     1       3.250   1.895   4.020  0.00  0.00    +0.000 HD
ATOM     33  H   UNL     1       1.696   3.355   2.822  0.00  0.00    +0.000 HD
ATOM     34  H   UNL     1      -1.830   4.318   3.824  0.00  0.00    +0.000 HD
ENDROOT
BRANCH   1  35
ATOM     35  C   UNL     1      -5.906   3.985  -0.195  0.00  0.00    +0.000 C 
ATOM     36  H   UNL     1      -5.327   4.905  -0.123  0.00  0.00    +0.000 HD
ATOM     37  H   UNL     1      -6.083   3.504   0.765  0.00  0.00    +0.000 HD
ATOM     38  H   UNL     1      -6.875   4.226  -0.656  0.00  0.00    +0.000 HD
ENDBRANCH   1  35
BRANCH  11  39
ATOM     39  C   UNL     1       2.076  -1.921   1.534  0.00  0.00    +0.000 C 
ATOM     40  H   UNL     1       1.102  -2.411   1.670  0.00  0.00    +0.000 HD
ATOM     41  H   UNL     1       2.779  -2.410   2.211  0.00  0.00    +0.000 HD
BRANCH  39  42
ATOM     42  C   UNL     1       2.543  -2.054   0.065  0.00  0.00    +0.000 C 
ATOM     43  H   UNL     1       3.506  -1.543  -0.049  0.00  0.00    +0.000 HD
ATOM     44  H   UNL     1       1.843  -1.503  -0.573  0.00  0.00    +0.000 HD
BRANCH  42  45
ATOM     45  N   UNL     1       2.575  -3.422  -0.495  0.00  0.00    +0.000 NA
ATOM     46  C   UNL     1       3.558  -4.279   0.192  0.00  0.00    +0.000 C 
ATOM     47  C   UNL     1       4.887  -3.951  -0.457  0.00  0.00    +0.000 C 
ATOM     48  C   UNL     1       4.513  -3.825  -1.922  0.00  0.00    +0.000 C 
ATOM     49  C   UNL     1       3.063  -3.336  -1.914  0.00  0.00    +0.000 C 
ATOM     50  H   UNL     1       3.299  -5.327  -0.002  0.00  0.00    +0.000 HD
ATOM     51  H   UNL     1       3.581  -4.163   1.278  0.00  0.00    +0.000 HD
ATOM     52  H   UNL     1       5.640  -4.725  -0.287  0.00  0.00    +0.000 HD
ATOM     53  H   UNL     1       5.283  -3.002  -0.079  0.00  0.00    +0.000 HD
ATOM     54  H   UNL     1       4.606  -4.801  -2.413  0.00  0.00    +0.000 HD
ATOM     55  H   UNL     1       5.177  -3.121  -2.436  0.00  0.00    +0.000 HD
ATOM     56  H   UNL     1       3.029  -2.296  -2.267  0.00  0.00    +0.000 HD
BRANCH  49  57
ATOM     57  C   UNL     1       2.163  -4.151  -2.858  0.00  0.00    +0.000 C 
ATOM     58  H   UNL     1       2.155  -5.215  -2.600  0.00  0.00    +0.000 HD
ATOM     59  H   UNL     1       2.504  -4.050  -3.894  0.00  0.00    +0.000 HD
BRANCH  57  60
ATOM     60  O   UNL     1       0.823  -3.665  -2.783  0.00  0.00    +0.000 OA
ATOM     61  H   UNL     1       0.620  -3.669  -1.828  0.00  0.00    +0.000 HD
ENDBRANCH  57  60
ENDBRANCH  49  57
ENDBRANCH  42  45
ENDBRANCH  39  42
ENDBRANCH  11  39
TORSDOF 6
