
 OpenBabel01112422453D

 27 29  0  0  0  0  0  0  0  0999 V2000
   -1.9758    0.0078    1.3280 N   0  0  0  0  0  0  0  0  0  0  0  0
   -0.7402   -0.0011    0.7123 C   0  0  0  0  0  0  0  0  0  0  0  0
   -0.3261   -1.1696    0.2160 N   0  0  0  0  0  0  0  0  0  0  0  0
    0.8940   -1.1779   -0.3420 C   0  0  0  0  0  0  0  0  0  0  0  0
    1.6897   -0.0650   -0.4258 C   0  0  0  0  0  0  0  0  0  0  0  0
    1.1395    1.1095    0.0342 C   0  0  0  0  0  0  0  0  0  0  0  0
    1.8598    2.3755   -0.0831 C   0  0  0  0  0  0  0  0  0  0  0  0
    1.7373    3.3841    0.8569 C   0  0  0  0  0  0  0  0  0  0  0  0
    2.5554    4.4172    0.4970 N   0  0  0  0  0  0  0  0  0  0  0  0
    3.2110    4.1204   -0.6755 C   0  0  0  0  0  0  0  0  0  0  0  0
    4.1415    4.8834   -1.3961 C   0  0  0  0  0  0  0  0  0  0  0  0
    4.6449    4.3398   -2.5795 C   0  0  0  0  0  0  0  0  0  0  0  0
    5.9159    5.3218   -3.5831 Br  0  0  0  0  0  0  0  0  0  0  0  0
    4.2288    3.0983   -3.0446 C   0  0  0  0  0  0  0  0  0  0  0  0
    3.2905    2.3608   -2.3163 C   0  0  0  0  0  0  0  0  0  0  0  0
    2.8667    1.1542   -2.8224 O   0  0  0  0  0  0  0  0  0  0  0  0
    2.7778    2.8536   -1.0883 C   0  0  0  0  0  0  0  0  0  0  0  0
   -0.0750    1.1531    0.6264 N   0  0  0  0  0  0  0  0  0  0  0  0
   -2.5296   -0.7542    0.9679 H   0  0  0  0  0  0  0  0  0  0  0  0
   -2.3706    0.9367    1.2801 H   0  0  0  0  0  0  0  0  0  0  0  0
    1.2256   -2.1322   -0.7339 H   0  0  0  0  0  0  0  0  0  0  0  0
    2.6831   -0.1242   -0.8443 H   0  0  0  0  0  0  0  0  0  0  0  0
    1.1389    3.4409    1.7571 H   0  0  0  0  0  0  0  0  0  0  0  0
    2.6630    5.2803    1.0143 H   0  0  0  0  0  0  0  0  0  0  0  0
    4.4582    5.8605   -1.0449 H   0  0  0  0  0  0  0  0  0  0  0  0
    4.6330    2.7078   -3.9732 H   0  0  0  0  0  0  0  0  0  0  0  0
    3.2749    1.0124   -3.6922 H   0  0  0  0  0  0  0  0  0  0  0  0
  1  2  1  0  0  0  0
  1 19  1  0  0  0  0
  1 20  1  0  0  0  0
  2  3  1  0  0  0  0
  2 18  2  0  0  0  0
  3  4  2  0  0  0  0
  4  5  1  0  0  0  0
  4 21  1  0  0  0  0
  5  6  2  0  0  0  0
  5 22  1  0  0  0  0
  6  7  1  0  0  0  0
  6 18  1  0  0  0  0
  7  8  2  0  0  0  0
  7 17  1  0  0  0  0
  8  9  1  0  0  0  0
  8 23  1  0  0  0  0
  9 10  1  0  0  0  0
  9 24  1  0  0  0  0
 10 11  1  0  0  0  0
 10 17  2  0  0  0  0
 11 12  2  0  0  0  0
 11 25  1  0  0  0  0
 12 13  1  0  0  0  0
 12 14  1  0  0  0  0
 14 15  2  0  0  0  0
 14 26  1  0  0  0  0
 15 16  1  0  0  0  0
 15 17  1  0  0  0  0
 16 27  1  0  0  0  0
M  END
$$$$
