REMARK  Name = 
REMARK  7 active torsions:
REMARK  status: ('A' for Active; 'I' for Inactive)
REMARK    1  A    between atoms: N_1  and  C_2
REMARK    2  A    between atoms: C_2  and  C_3
REMARK    3  A    between atoms: C_2  and  C_21
REMARK    4  A    between atoms: C_3  and  O_4
REMARK    5  A    between atoms: O_4  and  C_5
REMARK    6  A    between atoms: C_9  and  C_10
REMARK    7  A    between atoms: C_21  and  C_22
REMARK                            x       y       z     vdW  Elec       q    Type
REMARK                         _______ _______ _______ _____ _____    ______ ____
ROOT
ATOM      1  C   UNL     1       0.260   0.391  -0.904  0.00  0.00    +0.000 C 
ATOM      2  H   UNL     1      -0.222   0.538  -1.879  0.00  0.00    +0.000 HD
ATOM      3  H   UNL     1      -0.000  -0.601  -0.518  0.00  0.00    +0.000 HD
ENDROOT
BRANCH   1   4
ATOM      4  C   UNL     1       1.793   0.424  -1.070  0.00  0.00    +0.000 C 
ATOM      5  H   UNL     1       2.061  -0.366  -1.784  0.00  0.00    +0.000 HD
BRANCH   4   6
ATOM      6  N   UNL     1       2.214   1.707  -1.662  0.00  0.00    +0.000 NA
ATOM      7  H   UNL     1       3.235   1.731  -1.694  0.00  0.00    +0.000 HD
ATOM      8  H   UNL     1       1.937   2.461  -1.032  0.00  0.00    +0.000 HD
ENDBRANCH   4   6
BRANCH   4   9
ATOM      9  C   UNL     1       2.476   0.125   0.282  0.00  0.00    +0.000 C 
ATOM     10  H   UNL     1       2.048  -0.798   0.700  0.00  0.00    +0.000 HD
ATOM     11  H   UNL     1       2.251   0.914   1.010  0.00  0.00    +0.000 HD
BRANCH   9  12
ATOM     12  C   UNL     1       3.961  -0.065   0.190  0.00  0.00    +0.000 A 
ATOM     13  C   UNL     1       4.620  -1.243  -0.104  0.00  0.00    +0.000 A 
ATOM     14  N   UNL     1       5.967  -1.014  -0.024  0.00  0.00    +0.000 N 
ATOM     15  C   UNL     1       6.208   0.292   0.330  0.00  0.00    +0.000 A 
ATOM     16  C   UNL     1       7.418   0.954   0.569  0.00  0.00    +0.000 A 
ATOM     17  C   UNL     1       7.360   2.307   0.913  0.00  0.00    +0.000 A 
ATOM     18  C   UNL     1       6.141   2.974   0.996  0.00  0.00    +0.000 A 
ATOM     19  C   UNL     1       4.940   2.295   0.762  0.00  0.00    +0.000 A 
ATOM     20  C   UNL     1       4.968   0.923   0.436  0.00  0.00    +0.000 A 
ATOM     21  H   UNL     1       4.246  -2.229  -0.345  0.00  0.00    +0.000 HD
ATOM     22  H   UNL     1       6.688  -1.706  -0.179  0.00  0.00    +0.000 HD
ATOM     23  H   UNL     1       8.370   0.438   0.503  0.00  0.00    +0.000 HD
ATOM     24  H   UNL     1       8.282   2.847   1.119  0.00  0.00    +0.000 HD
ATOM     25  H   UNL     1       6.118   4.030   1.256  0.00  0.00    +0.000 HD
ATOM     26  H   UNL     1       3.995   2.825   0.841  0.00  0.00    +0.000 HD
ENDBRANCH   9  12
ENDBRANCH   4   9
ENDBRANCH   1   4
BRANCH   1  27
ATOM     27  O   UNL     1      -0.187   1.411   0.007  0.00  0.00    +0.000 OA
BRANCH  27  28
ATOM     28  C   UNL     1      -1.546   1.480   0.160  0.00  0.00    +0.000 A 
ATOM     29  C   UNL     1      -2.100   2.698   0.520  0.00  0.00    +0.000 A 
ATOM     30  N   UNL     1      -3.426   2.901   0.705  0.00  0.00    +0.000 NA
ATOM     31  C   UNL     1      -4.235   1.823   0.539  0.00  0.00    +0.000 A 
ATOM     32  C   UNL     1      -3.801   0.541   0.200  0.00  0.00    +0.000 A 
ATOM     33  C   UNL     1      -2.416   0.401   0.014  0.00  0.00    +0.000 A 
ATOM     34  H   UNL     1      -1.476   3.576   0.660  0.00  0.00    +0.000 HD
ATOM     35  H   UNL     1      -5.287   2.038   0.709  0.00  0.00    +0.000 HD
ATOM     36  H   UNL     1      -2.029  -0.575  -0.250  0.00  0.00    +0.000 HD
BRANCH  32  37
ATOM     37  C   UNL     1      -4.712  -0.614   0.034  0.00  0.00    +0.000 A 
ATOM     38  C   UNL     1      -6.005  -0.460  -0.498  0.00  0.00    +0.000 A 
ATOM     39  C   UNL     1      -6.877  -1.543  -0.694  0.00  0.00    +0.000 A 
ATOM     40  C   UNL     1      -6.404  -2.811  -0.353  0.00  0.00    +0.000 A 
ATOM     41  N   UNL     1      -6.978  -4.053  -0.430  0.00  0.00    +0.000 N 
ATOM     42  N   UNL     1      -6.184  -5.054  -0.014  0.00  0.00    +0.000 NA
ATOM     43  C   UNL     1      -5.065  -4.426   0.352  0.00  0.00    +0.000 A 
ATOM     44 CL   UNL     1      -3.734  -5.296   0.940  0.00  0.00    +0.000 Cl
ATOM     45  C   UNL     1      -5.138  -3.025   0.172  0.00  0.00    +0.000 A 
ATOM     46  C   UNL     1      -4.292  -1.919   0.380  0.00  0.00    +0.000 A 
ATOM     47  H   UNL     1      -6.359   0.526  -0.799  0.00  0.00    +0.000 HD
ATOM     48  H   UNL     1      -7.867  -1.392  -1.112  0.00  0.00    +0.000 HD
ATOM     49  H   UNL     1      -7.906  -4.284  -0.764  0.00  0.00    +0.000 HD
ATOM     50  H   UNL     1      -3.309  -2.097   0.809  0.00  0.00    +0.000 HD
ENDBRANCH  32  37
ENDBRANCH  27  28
ENDBRANCH   1  27
TORSDOF 7
