MODEL 1
REMARK VINA RESULT:    -9.725      0.000      0.000
REMARK INTER + INTRA:         -15.734
REMARK INTER:                 -14.557
REMARK INTRA:                  -1.176
REMARK UNBOUND:                -1.176
REMARK  Name = 
REMARK  9 active torsions:
REMARK  status: ('A' for Active; 'I' for Inactive)
REMARK    1  A    between atoms: C_1  and  C_2
REMARK    2  A    between atoms: C_2  and  C_3
REMARK    3  A    between atoms: C_3  and  C_4
REMARK    4  A    between atoms: C_8  and  C_9
REMARK    5  A    between atoms: C_9  and  N_10
REMARK    6  A    between atoms: N_10  and  C_11
REMARK    7  A    between atoms: C_18  and  C_19
REMARK    8  A    between atoms: C_21  and  N_22
REMARK    9  A    between atoms: N_22  and  C_23
REMARK                            x       y       z     vdW  Elec       q    Type
REMARK                         _______ _______ _______ _____ _____    ______ ____
ROOT
ATOM      1  C   UNL     1      -9.542  -6.334  16.163  0.00  0.00    +0.000 A 
ATOM      2  C   UNL     1     -10.197  -5.728  15.098  0.00  0.00    +0.000 A 
ATOM      3  C   UNL     1     -10.843  -4.503  15.268  0.00  0.00    +0.000 A 
ATOM      4 CL   UNL     1     -11.681  -3.853  13.893  0.00  0.00    +0.000 Cl
ATOM      5  C   UNL     1     -10.822  -3.807  16.484  0.00  0.00    +0.000 A 
ATOM      6  N   UNL     1     -11.459  -2.623  16.596  0.00  0.00    +0.000 NA
ATOM      7  C   UNL     1     -11.372  -1.936  17.748  0.00  0.00    +0.000 A 
ATOM      8  C   UNL     1     -10.685  -2.379  18.859  0.00  0.00    +0.000 A 
ATOM      9  C   UNL     1     -10.087  -3.649  18.810  0.00  0.00    +0.000 A 
ATOM     10  C   UNL     1     -10.118  -4.373  17.571  0.00  0.00    +0.000 A 
ATOM     11  C   UNL     1      -9.489  -5.634  17.379  0.00  0.00    +0.000 A 
ATOM     12  H   UNL     1     -10.223  -6.216  14.126  0.00  0.00    +0.000 HD
ATOM     13  H   UNL     1     -11.885  -0.976  17.739  0.00  0.00    +0.000 HD
ATOM     14  H   UNL     1      -8.933  -6.071  18.205  0.00  0.00    +0.000 HD
ENDROOT
BRANCH   1  15
ATOM     15  N   UNL     1      -8.869  -7.536  15.949  0.00  0.00    +0.000 N 
ATOM     16  H   UNL     1      -8.220  -7.531  15.158  0.00  0.00    +0.000 HD
BRANCH  15  17
ATOM     17  C   UNL     1      -9.649  -8.772  15.916  0.00  0.00    +0.000 C 
ATOM     18  H   UNL     1     -10.696  -8.524  16.129  0.00  0.00    +0.000 HD
ATOM     19  H   UNL     1      -9.607  -9.217  14.913  0.00  0.00    +0.000 HD
BRANCH  17  24
ATOM     20  C   UNL     1      -8.969 -11.181  16.589  0.00  0.00    +0.000 A 
ATOM     21  N   UNL     1      -8.586 -11.728  17.789  0.00  0.00    +0.000 N 
ATOM     22  C   UNL     1      -8.616 -10.737  18.728  0.00  0.00    +0.000 A 
ATOM     23  N   UNL     1      -8.981  -9.588  18.207  0.00  0.00    +0.000 NA
ATOM     24  C   UNL     1      -9.220  -9.850  16.872  0.00  0.00    +0.000 A 
ATOM     25  H   UNL     1      -8.336 -12.694  17.957  0.00  0.00    +0.000 HD
ATOM     26  H   UNL     1      -8.369 -10.914  19.765  0.00  0.00    +0.000 HD
BRANCH  20  27
ATOM     27  C   UNL     1      -9.050 -11.951  15.318  0.00  0.00    +0.000 C 
ATOM     28  H   UNL     1     -10.087 -12.265  15.146  0.00  0.00    +0.000 HD
ATOM     29  H   UNL     1      -8.779 -11.298  14.479  0.00  0.00    +0.000 HD
BRANCH  27  30
ATOM     30  C   UNL     1      -8.150 -13.185  15.345  0.00  0.00    +0.000 C 
ATOM     31  H   UNL     1      -7.282 -13.033  14.692  0.00  0.00    +0.000 HD
ATOM     32  H   UNL     1      -7.761 -13.344  16.359  0.00  0.00    +0.000 HD
BRANCH  30  33
ATOM     33  C   UNL     1      -8.897 -14.428  14.892  0.00  0.00    +0.000 C 
ATOM     34  H   UNL     1      -9.312 -14.953  15.758  0.00  0.00    +0.000 HD
ATOM     35  H   UNL     1      -8.230 -15.116  14.364  0.00  0.00    +0.000 HD
ATOM     36  H   UNL     1      -9.724 -14.167  14.224  0.00  0.00    +0.000 HD
ENDBRANCH  30  33
ENDBRANCH  27  30
ENDBRANCH  20  27
ENDBRANCH  17  24
ENDBRANCH  15  17
ENDBRANCH   1  15
BRANCH   8  37
ATOM     37  C   UNL     1     -10.581  -1.485  19.969  0.00  0.00    +0.000 C 
ATOM     38  N   UNL     1     -10.537  -0.774  20.883  0.00  0.00    +0.000 NA
ENDBRANCH   8  37
BRANCH   9  39
ATOM     39  N   UNL     1      -9.428  -4.223  19.939  0.00  0.00    +0.000 N 
ATOM     40  H   UNL     1      -9.893  -5.063  20.282  0.00  0.00    +0.000 HD
BRANCH  39  41
ATOM     41  C   UNL     1      -8.095  -4.061  20.385  0.00  0.00    +0.000 A 
ATOM     42  C   UNL     1      -7.749  -3.114  21.363  0.00  0.00    +0.000 A 
ATOM     43  C   UNL     1      -6.435  -2.993  21.828  0.00  0.00    +0.000 A 
ATOM     44  C   UNL     1      -5.456  -3.847  21.345  0.00  0.00    +0.000 A 
ATOM     45  F   UNL     1      -4.211  -3.747  21.835  0.00  0.00    +0.000 F 
ATOM     46  C   UNL     1      -5.775  -4.804  20.386  0.00  0.00    +0.000 A 
ATOM     47 CL   UNL     1      -4.564  -5.881  19.795  0.00  0.00    +0.000 Cl
ATOM     48  C   UNL     1      -7.086  -4.910  19.904  0.00  0.00    +0.000 A 
ATOM     49  H   UNL     1      -8.498  -2.451  21.789  0.00  0.00    +0.000 HD
ATOM     50  H   UNL     1      -6.180  -2.245  22.572  0.00  0.00    +0.000 HD
ATOM     51  H   UNL     1      -7.311  -5.664  19.154  0.00  0.00    +0.000 HD
ENDBRANCH  39  41
ENDBRANCH   9  39
TORSDOF 9
ENDMDL
MODEL 2
REMARK VINA RESULT:    -9.636      1.207      1.546
REMARK INTER + INTRA:         -15.600
REMARK INTER:                 -14.256
REMARK INTRA:                  -1.344
REMARK UNBOUND:                -1.176
REMARK  Name = 
REMARK  9 active torsions:
REMARK  status: ('A' for Active; 'I' for Inactive)
REMARK    1  A    between atoms: C_1  and  C_2
REMARK    2  A    between atoms: C_2  and  C_3
REMARK    3  A    between atoms: C_3  and  C_4
REMARK    4  A    between atoms: C_8  and  C_9
REMARK    5  A    between atoms: C_9  and  N_10
REMARK    6  A    between atoms: N_10  and  C_11
REMARK    7  A    between atoms: C_18  and  C_19
REMARK    8  A    between atoms: C_21  and  N_22
REMARK    9  A    between atoms: N_22  and  C_23
REMARK                            x       y       z     vdW  Elec       q    Type
REMARK                         _______ _______ _______ _____ _____    ______ ____
ROOT
ATOM      1  C   UNL     1     -10.788  -6.049  16.106  0.00  0.00    +0.000 A 
ATOM      2  C   UNL     1     -11.351  -5.185  15.174  0.00  0.00    +0.000 A 
ATOM      3  C   UNL     1     -11.463  -3.822  15.450  0.00  0.00    +0.000 A 
ATOM      4 CL   UNL     1     -12.232  -2.833  14.246  0.00  0.00    +0.000 Cl
ATOM      5  C   UNL     1     -10.977  -3.254  16.634  0.00  0.00    +0.000 A 
ATOM      6  N   UNL     1     -11.106  -1.928  16.851  0.00  0.00    +0.000 NA
ATOM      7  C   UNL     1     -10.574  -1.388  17.961  0.00  0.00    +0.000 A 
ATOM      8  C   UNL     1      -9.913  -2.115  18.930  0.00  0.00    +0.000 A 
ATOM      9  C   UNL     1      -9.840  -3.510  18.783  0.00  0.00    +0.000 A 
ATOM     10  C   UNL     1     -10.350  -4.099  17.578  0.00  0.00    +0.000 A 
ATOM     11  C   UNL     1     -10.270  -5.488  17.284  0.00  0.00    +0.000 A 
ATOM     12  H   UNL     1     -11.723  -5.573  14.228  0.00  0.00    +0.000 HD
ATOM     13  H   UNL     1     -10.692  -0.309  18.037  0.00  0.00    +0.000 HD
ATOM     14  H   UNL     1      -9.777  -6.145  17.998  0.00  0.00    +0.000 HD
ENDROOT
BRANCH   1  15
ATOM     15  N   UNL     1     -10.649  -7.398  15.782  0.00  0.00    +0.000 N 
ATOM     16  H   UNL     1     -11.317  -8.022  16.241  0.00  0.00    +0.000 HD
BRANCH  15  17
ATOM     17  C   UNL     1      -9.316  -7.994  15.851  0.00  0.00    +0.000 C 
ATOM     18  H   UNL     1      -9.069  -8.401  14.864  0.00  0.00    +0.000 HD
ATOM     19  H   UNL     1      -8.572  -7.224  16.093  0.00  0.00    +0.000 HD
BRANCH  17  24
ATOM     20  C   UNL     1      -9.088 -10.452  16.642  0.00  0.00    +0.000 A 
ATOM     21  N   UNL     1      -8.879 -11.004  17.882  0.00  0.00    +0.000 N 
ATOM     22  C   UNL     1      -8.809  -9.984  18.787  0.00  0.00    +0.000 A 
ATOM     23  N   UNL     1      -8.944  -8.814  18.207  0.00  0.00    +0.000 NA
ATOM     24  C   UNL     1      -9.134  -9.087  16.867  0.00  0.00    +0.000 A 
ATOM     25  H   UNL     1      -8.804 -11.991  18.095  0.00  0.00    +0.000 HD
ATOM     26  H   UNL     1      -8.664 -10.156  19.844  0.00  0.00    +0.000 HD
BRANCH  20  27
ATOM     27  C   UNL     1      -9.209 -11.250  15.391  0.00  0.00    +0.000 C 
ATOM     28  H   UNL     1     -10.198 -11.723  15.355  0.00  0.00    +0.000 HD
ATOM     29  H   UNL     1      -9.153 -10.580  14.525  0.00  0.00    +0.000 HD
BRANCH  27  30
ATOM     30  C   UNL     1      -8.132 -12.329  15.301  0.00  0.00    +0.000 C 
ATOM     31  H   UNL     1      -7.406 -12.073  14.522  0.00  0.00    +0.000 HD
ATOM     32  H   UNL     1      -7.578 -12.387  16.247  0.00  0.00    +0.000 HD
BRANCH  30  33
ATOM     33  C   UNL     1      -8.734 -13.689  14.988  0.00  0.00    +0.000 C 
ATOM     34  H   UNL     1      -8.654 -14.345  15.861  0.00  0.00    +0.000 HD
ATOM     35  H   UNL     1      -8.211 -14.167  14.155  0.00  0.00    +0.000 HD
ATOM     36  H   UNL     1      -9.792 -13.599  14.726  0.00  0.00    +0.000 HD
ENDBRANCH  30  33
ENDBRANCH  27  30
ENDBRANCH  20  27
ENDBRANCH  17  24
ENDBRANCH  15  17
ENDBRANCH   1  15
BRANCH   8  37
ATOM     37  C   UNL     1      -9.297  -1.385  19.993  0.00  0.00    +0.000 C 
ATOM     38  N   UNL     1      -8.828  -0.811  20.883  0.00  0.00    +0.000 NA
ENDBRANCH   8  37
BRANCH   9  39
ATOM     39  N   UNL     1      -9.250  -4.348  19.776  0.00  0.00    +0.000 N 
ATOM     40  H   UNL     1      -9.935  -4.923  20.264  0.00  0.00    +0.000 HD
BRANCH  39  41
ATOM     41  C   UNL     1      -7.911  -4.783  19.912  0.00  0.00    +0.000 A 
ATOM     42  C   UNL     1      -7.386  -5.826  19.130  0.00  0.00    +0.000 A 
ATOM     43  C   UNL     1      -6.047  -6.218  19.241  0.00  0.00    +0.000 A 
ATOM     44  C   UNL     1      -5.207  -5.546  20.114  0.00  0.00    +0.000 A 
ATOM     45  F   UNL     1      -3.916  -5.906  20.176  0.00  0.00    +0.000 F 
ATOM     46  C   UNL     1      -5.698  -4.500  20.891  0.00  0.00    +0.000 A 
ATOM     47 CL   UNL     1      -4.651  -3.647  21.964  0.00  0.00    +0.000 Cl
ATOM     48  C   UNL     1      -7.043  -4.121  20.794  0.00  0.00    +0.000 A 
ATOM     49  H   UNL     1      -8.008  -6.353  18.411  0.00  0.00    +0.000 HD
ATOM     50  H   UNL     1      -5.660  -7.037  18.642  0.00  0.00    +0.000 HD
ATOM     51  H   UNL     1      -7.404  -3.303  21.412  0.00  0.00    +0.000 HD
ENDBRANCH  39  41
ENDBRANCH   9  39
TORSDOF 9
ENDMDL
MODEL 3
REMARK VINA RESULT:    -9.611      2.708      5.125
REMARK INTER + INTRA:         -15.563
REMARK INTER:                 -14.254
REMARK INTRA:                  -1.310
REMARK UNBOUND:                -1.176
REMARK  Name = 
REMARK  9 active torsions:
REMARK  status: ('A' for Active; 'I' for Inactive)
REMARK    1  A    between atoms: C_1  and  C_2
REMARK    2  A    between atoms: C_2  and  C_3
REMARK    3  A    between atoms: C_3  and  C_4
REMARK    4  A    between atoms: C_8  and  C_9
REMARK    5  A    between atoms: C_9  and  N_10
REMARK    6  A    between atoms: N_10  and  C_11
REMARK    7  A    between atoms: C_18  and  C_19
REMARK    8  A    between atoms: C_21  and  N_22
REMARK    9  A    between atoms: N_22  and  C_23
REMARK                            x       y       z     vdW  Elec       q    Type
REMARK                         _______ _______ _______ _____ _____    ______ ____
ROOT
ATOM      1  C   UNL     1      -8.048  -5.765  18.718  0.00  0.00    +0.000 A 
ATOM      2  C   UNL     1      -6.720  -6.095  18.957  0.00  0.00    +0.000 A 
ATOM      3  C   UNL     1      -5.970  -5.381  19.892  0.00  0.00    +0.000 A 
ATOM      4 CL   UNL     1      -4.303  -5.832  20.079  0.00  0.00    +0.000 Cl
ATOM      5  C   UNL     1      -6.518  -4.348  20.662  0.00  0.00    +0.000 A 
ATOM      6  N   UNL     1      -5.752  -3.690  21.556  0.00  0.00    +0.000 NA
ATOM      7  C   UNL     1      -6.310  -2.747  22.335  0.00  0.00    +0.000 A 
ATOM      8  C   UNL     1      -7.638  -2.377  22.264  0.00  0.00    +0.000 A 
ATOM      9  C   UNL     1      -8.444  -2.975  21.281  0.00  0.00    +0.000 A 
ATOM     10  C   UNL     1      -7.883  -4.024  20.480  0.00  0.00    +0.000 A 
ATOM     11  C   UNL     1      -8.619  -4.751  19.504  0.00  0.00    +0.000 A 
ATOM     12  H   UNL     1      -6.253  -6.906  18.402  0.00  0.00    +0.000 HD
ATOM     13  H   UNL     1      -5.628  -2.295  23.052  0.00  0.00    +0.000 HD
ATOM     14  H   UNL     1      -9.673  -4.519  19.366  0.00  0.00    +0.000 HD
ENDROOT
BRANCH   1  15
ATOM     15  N   UNL     1      -8.783  -6.526  17.810  0.00  0.00    +0.000 N 
ATOM     16  H   UNL     1      -9.204  -5.996  17.044  0.00  0.00    +0.000 HD
BRANCH  15  17
ATOM     17  C   UNL     1      -9.770  -7.469  18.335  0.00  0.00    +0.000 C 
ATOM     18  H   UNL     1     -10.379  -6.949  19.084  0.00  0.00    +0.000 HD
ATOM     19  H   UNL     1     -10.440  -7.800  17.530  0.00  0.00    +0.000 HD
BRANCH  17  24
ATOM     20  C   UNL     1      -8.978  -9.937  18.356  0.00  0.00    +0.000 A 
ATOM     21  N   UNL     1      -8.458 -10.728  19.350  0.00  0.00    +0.000 N 
ATOM     22  C   UNL     1      -8.405  -9.982  20.492  0.00  0.00    +0.000 A 
ATOM     23  N   UNL     1      -8.845  -8.761  20.293  0.00  0.00    +0.000 NA
ATOM     24  C   UNL     1      -9.221  -8.718  18.965  0.00  0.00    +0.000 A 
ATOM     25  H   UNL     1      -8.174 -11.696  19.261  0.00  0.00    +0.000 HD
ATOM     26  H   UNL     1      -8.045 -10.383  21.430  0.00  0.00    +0.000 HD
BRANCH  20  27
ATOM     27  C   UNL     1      -9.181 -10.396  16.954  0.00  0.00    +0.000 C 
ATOM     28  H   UNL     1     -10.236 -10.276  16.679  0.00  0.00    +0.000 HD
ATOM     29  H   UNL     1      -8.607  -9.754  16.274  0.00  0.00    +0.000 HD
BRANCH  27  30
ATOM     30  C   UNL     1      -8.777 -11.858  16.773  0.00  0.00    +0.000 C 
ATOM     31  H   UNL     1      -7.909 -12.090  17.400  0.00  0.00    +0.000 HD
ATOM     32  H   UNL     1      -9.592 -12.516  17.102  0.00  0.00    +0.000 HD
BRANCH  30  33
ATOM     33  C   UNL     1      -8.438 -12.165  15.324  0.00  0.00    +0.000 C 
ATOM     34  H   UNL     1      -8.913 -11.434  14.664  0.00  0.00    +0.000 HD
ATOM     35  H   UNL     1      -8.793 -13.161  15.041  0.00  0.00    +0.000 HD
ATOM     36  H   UNL     1      -7.357 -12.124  15.157  0.00  0.00    +0.000 HD
ENDBRANCH  30  33
ENDBRANCH  27  30
ENDBRANCH  20  27
ENDBRANCH  17  24
ENDBRANCH  15  17
ENDBRANCH   1  15
BRANCH   8  37
ATOM     37  C   UNL     1      -8.114  -1.447  23.238  0.00  0.00    +0.000 C 
ATOM     38  N   UNL     1      -8.515  -0.666  23.995  0.00  0.00    +0.000 NA
ENDBRANCH   8  37
BRANCH   9  39
ATOM     39  N   UNL     1      -9.805  -2.593  21.081  0.00  0.00    +0.000 N 
ATOM     40  H   UNL     1     -10.397  -2.809  21.881  0.00  0.00    +0.000 HD
BRANCH  39  41
ATOM     41  C   UNL     1     -10.357  -1.657  20.174  0.00  0.00    +0.000 A 
ATOM     42  C   UNL     1     -10.212  -0.271  20.358  0.00  0.00    +0.000 A 
ATOM     43  C   UNL     1     -10.724   0.644  19.431  0.00  0.00    +0.000 A 
ATOM     44  C   UNL     1     -11.358   0.180  18.289  0.00  0.00    +0.000 A 
ATOM     45  F   UNL     1     -11.803   1.071  17.389  0.00  0.00    +0.000 F 
ATOM     46  C   UNL     1     -11.503  -1.188  18.076  0.00  0.00    +0.000 A 
ATOM     47 CL   UNL     1     -12.273  -1.770  16.647  0.00  0.00    +0.000 Cl
ATOM     48  C   UNL     1     -11.008  -2.104  19.014  0.00  0.00    +0.000 A 
ATOM     49  H   UNL     1      -9.691   0.126  21.224  0.00  0.00    +0.000 HD
ATOM     50  H   UNL     1     -10.619   1.712  19.595  0.00  0.00    +0.000 HD
ATOM     51  H   UNL     1     -11.135  -3.166  18.828  0.00  0.00    +0.000 HD
ENDBRANCH  39  41
ENDBRANCH   9  39
TORSDOF 9
ENDMDL
MODEL 4
REMARK VINA RESULT:    -9.409      2.793      5.182
REMARK INTER + INTRA:         -15.260
REMARK INTER:                 -14.108
REMARK INTRA:                  -1.153
REMARK UNBOUND:                -1.176
REMARK  Name = 
REMARK  9 active torsions:
REMARK  status: ('A' for Active; 'I' for Inactive)
REMARK    1  A    between atoms: C_1  and  C_2
REMARK    2  A    between atoms: C_2  and  C_3
REMARK    3  A    between atoms: C_3  and  C_4
REMARK    4  A    between atoms: C_8  and  C_9
REMARK    5  A    between atoms: C_9  and  N_10
REMARK    6  A    between atoms: N_10  and  C_11
REMARK    7  A    between atoms: C_18  and  C_19
REMARK    8  A    between atoms: C_21  and  N_22
REMARK    9  A    between atoms: N_22  and  C_23
REMARK                            x       y       z     vdW  Elec       q    Type
REMARK                         _______ _______ _______ _____ _____    ______ ____
ROOT
ATOM      1  C   UNL     1      -7.955  -5.950  18.835  0.00  0.00    +0.000 A 
ATOM      2  C   UNL     1      -6.621  -6.255  19.072  0.00  0.00    +0.000 A 
ATOM      3  C   UNL     1      -5.865  -5.484  19.956  0.00  0.00    +0.000 A 
ATOM      4 CL   UNL     1      -4.191  -5.910  20.144  0.00  0.00    +0.000 Cl
ATOM      5  C   UNL     1      -6.413  -4.416  20.677  0.00  0.00    +0.000 A 
ATOM      6  N   UNL     1      -5.640  -3.704  21.523  0.00  0.00    +0.000 NA
ATOM      7  C   UNL     1      -6.197  -2.725  22.258  0.00  0.00    +0.000 A 
ATOM      8  C   UNL     1      -7.529  -2.371  22.185  0.00  0.00    +0.000 A 
ATOM      9  C   UNL     1      -8.343  -3.028  21.248  0.00  0.00    +0.000 A 
ATOM     10  C   UNL     1      -7.783  -4.115  20.497  0.00  0.00    +0.000 A 
ATOM     11  C   UNL     1      -8.525  -4.900  19.572  0.00  0.00    +0.000 A 
ATOM     12  H   UNL     1      -6.153  -7.091  18.556  0.00  0.00    +0.000 HD
ATOM     13  H   UNL     1      -5.510  -2.227  22.939  0.00  0.00    +0.000 HD
ATOM     14  H   UNL     1      -9.583  -4.686  19.437  0.00  0.00    +0.000 HD
ENDROOT
BRANCH   1  15
ATOM     15  N   UNL     1      -8.695  -6.767  17.980  0.00  0.00    +0.000 N 
ATOM     16  H   UNL     1      -9.583  -6.369  17.667  0.00  0.00    +0.000 HD
BRANCH  15  17
ATOM     17  C   UNL     1      -8.907  -8.161  18.365  0.00  0.00    +0.000 C 
ATOM     18  H   UNL     1      -7.990  -8.531  18.840  0.00  0.00    +0.000 HD
ATOM     19  H   UNL     1      -9.718  -8.230  19.102  0.00  0.00    +0.000 HD
BRANCH  17  24
ATOM     20  C   UNL     1      -9.134 -10.482  17.232  0.00  0.00    +0.000 A 
ATOM     21  N   UNL     1      -9.632 -10.865  16.011  0.00  0.00    +0.000 N 
ATOM     22  C   UNL     1     -10.040  -9.740  15.355  0.00  0.00    +0.000 A 
ATOM     23  N   UNL     1      -9.850  -8.662  16.080  0.00  0.00    +0.000 NA
ATOM     24  C   UNL     1      -9.270  -9.105  17.253  0.00  0.00    +0.000 A 
ATOM     25  H   UNL     1      -9.678 -11.810  15.651  0.00  0.00    +0.000 HD
ATOM     26  H   UNL     1     -10.459  -9.770  14.359  0.00  0.00    +0.000 HD
BRANCH  20  27
ATOM     27  C   UNL     1      -8.599 -11.435  18.243  0.00  0.00    +0.000 C 
ATOM     28  H   UNL     1      -7.605 -11.103  18.568  0.00  0.00    +0.000 HD
ATOM     29  H   UNL     1      -9.239 -11.417  19.134  0.00  0.00    +0.000 HD
BRANCH  27  30
ATOM     30  C   UNL     1      -8.499 -12.854  17.687  0.00  0.00    +0.000 C 
ATOM     31  H   UNL     1      -9.164 -12.968  16.824  0.00  0.00    +0.000 HD
ATOM     32  H   UNL     1      -7.478 -13.047  17.331  0.00  0.00    +0.000 HD
BRANCH  30  33
ATOM     33  C   UNL     1      -8.868 -13.889  18.737  0.00  0.00    +0.000 C 
ATOM     34  H   UNL     1      -7.973 -14.214  19.276  0.00  0.00    +0.000 HD
ATOM     35  H   UNL     1      -9.326 -14.769  18.276  0.00  0.00    +0.000 HD
ATOM     36  H   UNL     1      -9.572 -13.475  19.465  0.00  0.00    +0.000 HD
ENDBRANCH  30  33
ENDBRANCH  27  30
ENDBRANCH  20  27
ENDBRANCH  17  24
ENDBRANCH  15  17
ENDBRANCH   1  15
BRANCH   8  37
ATOM     37  C   UNL     1      -8.001  -1.393  23.114  0.00  0.00    +0.000 C 
ATOM     38  N   UNL     1      -8.425  -0.605  23.850  0.00  0.00    +0.000 NA
ENDBRANCH   8  37
BRANCH   9  39
ATOM     39  N   UNL     1      -9.710  -2.670  21.046  0.00  0.00    +0.000 N 
ATOM     40  H   UNL     1     -10.287  -2.836  21.870  0.00  0.00    +0.000 HD
BRANCH  39  41
ATOM     41  C   UNL     1     -10.285  -1.802  20.088  0.00  0.00    +0.000 A 
ATOM     42  C   UNL     1     -10.109  -0.409  20.148  0.00  0.00    +0.000 A 
ATOM     43  C   UNL     1     -10.646   0.436  19.171  0.00  0.00    +0.000 A 
ATOM     44  C   UNL     1     -11.336  -0.107  18.098  0.00  0.00    +0.000 A 
ATOM     45  F   UNL     1     -11.804   0.715  17.147  0.00  0.00    +0.000 F 
ATOM     46  C   UNL     1     -11.512  -1.485  18.008  0.00  0.00    +0.000 A 
ATOM     47 CL   UNL     1     -12.353  -2.167  16.666  0.00  0.00    +0.000 Cl
ATOM     48  C   UNL     1     -10.994  -2.330  18.997  0.00  0.00    +0.000 A 
ATOM     49  H   UNL     1      -9.545   0.049  20.956  0.00  0.00    +0.000 HD
ATOM     50  H   UNL     1     -10.516   1.512  19.240  0.00  0.00    +0.000 HD
ATOM     51  H   UNL     1     -11.145  -3.401  18.906  0.00  0.00    +0.000 HD
ENDBRANCH  39  41
ENDBRANCH   9  39
TORSDOF 9
ENDMDL
MODEL 5
REMARK VINA RESULT:    -9.374      2.488      3.034
REMARK INTER + INTRA:         -15.209
REMARK INTER:                 -14.049
REMARK INTRA:                  -1.160
REMARK UNBOUND:                -1.176
REMARK  Name = 
REMARK  9 active torsions:
REMARK  status: ('A' for Active; 'I' for Inactive)
REMARK    1  A    between atoms: C_1  and  C_2
REMARK    2  A    between atoms: C_2  and  C_3
REMARK    3  A    between atoms: C_3  and  C_4
REMARK    4  A    between atoms: C_8  and  C_9
REMARK    5  A    between atoms: C_9  and  N_10
REMARK    6  A    between atoms: N_10  and  C_11
REMARK    7  A    between atoms: C_18  and  C_19
REMARK    8  A    between atoms: C_21  and  N_22
REMARK    9  A    between atoms: N_22  and  C_23
REMARK                            x       y       z     vdW  Elec       q    Type
REMARK                         _______ _______ _______ _____ _____    ______ ____
ROOT
ATOM      1  C   UNL     1      -9.598  -5.613  17.842  0.00  0.00    +0.000 A 
ATOM      2  C   UNL     1     -10.312  -5.564  16.652  0.00  0.00    +0.000 A 
ATOM      3  C   UNL     1     -10.933  -4.381  16.246  0.00  0.00    +0.000 A 
ATOM      4 CL   UNL     1     -11.849  -4.435  14.772  0.00  0.00    +0.000 Cl
ATOM      5  C   UNL     1     -10.827  -3.191  16.976  0.00  0.00    +0.000 A 
ATOM      6  N   UNL     1     -11.442  -2.072  16.538  0.00  0.00    +0.000 NA
ATOM      7  C   UNL     1     -11.274  -0.922  17.214  0.00  0.00    +0.000 A 
ATOM      8  C   UNL     1     -10.522  -0.807  18.365  0.00  0.00    +0.000 A 
ATOM      9  C   UNL     1      -9.944  -1.969  18.901  0.00  0.00    +0.000 A 
ATOM     10  C   UNL     1     -10.061  -3.195  18.164  0.00  0.00    +0.000 A 
ATOM     11  C   UNL     1      -9.460  -4.419  18.569  0.00  0.00    +0.000 A 
ATOM     12  H   UNL     1     -10.405  -6.455  16.035  0.00  0.00    +0.000 HD
ATOM     13  H   UNL     1     -11.776  -0.063  16.771  0.00  0.00    +0.000 HD
ATOM     14  H   UNL     1      -8.857  -4.430  19.474  0.00  0.00    +0.000 HD
ENDROOT
BRANCH   1  15
ATOM     15  N   UNL     1      -8.953  -6.797  18.197  0.00  0.00    +0.000 N 
ATOM     16  H   UNL     1      -7.960  -6.696  18.421  0.00  0.00    +0.000 HD
BRANCH  15  17
ATOM     17  C   UNL     1      -9.131  -7.967  17.339  0.00  0.00    +0.000 C 
ATOM     18  H   UNL     1     -10.142  -7.933  16.915  0.00  0.00    +0.000 HD
ATOM     19  H   UNL     1      -8.417  -7.936  16.506  0.00  0.00    +0.000 HD
BRANCH  17  24
ATOM     20  C   UNL     1      -9.142 -10.557  17.446  0.00  0.00    +0.000 A 
ATOM     21  N   UNL     1      -8.814 -11.438  18.447  0.00  0.00    +0.000 N 
ATOM     22  C   UNL     1      -8.442 -10.709  19.540  0.00  0.00    +0.000 A 
ATOM     23  N   UNL     1      -8.497  -9.419  19.302  0.00  0.00    +0.000 NA
ATOM     24  C   UNL     1      -8.946  -9.305  18.001  0.00  0.00    +0.000 A 
ATOM     25  H   UNL     1      -8.851 -12.449  18.394  0.00  0.00    +0.000 HD
ATOM     26  H   UNL     1      -8.150 -11.171  20.472  0.00  0.00    +0.000 HD
BRANCH  20  27
ATOM     27  C   UNL     1      -9.588 -10.976  16.089  0.00  0.00    +0.000 C 
ATOM     28  H   UNL     1     -10.383 -11.727  16.181  0.00  0.00    +0.000 HD
ATOM     29  H   UNL     1     -10.030 -10.117  15.570  0.00  0.00    +0.000 HD
BRANCH  27  30
ATOM     30  C   UNL     1      -8.438 -11.559  15.269  0.00  0.00    +0.000 C 
ATOM     31  H   UNL     1      -8.460 -11.157  14.250  0.00  0.00    +0.000 HD
ATOM     32  H   UNL     1      -7.476 -11.263  15.709  0.00  0.00    +0.000 HD
BRANCH  30  33
ATOM     33  C   UNL     1      -8.515 -13.075  15.205  0.00  0.00    +0.000 C 
ATOM     34  H   UNL     1      -9.232 -13.447  15.943  0.00  0.00    +0.000 HD
ATOM     35  H   UNL     1      -7.542 -13.526  15.418  0.00  0.00    +0.000 HD
ATOM     36  H   UNL     1      -8.841 -13.410  14.215  0.00  0.00    +0.000 HD
ENDBRANCH  30  33
ENDBRANCH  27  30
ENDBRANCH  20  27
ENDBRANCH  17  24
ENDBRANCH  15  17
ENDBRANCH   1  15
BRANCH   8  37
ATOM     37  C   UNL     1     -10.338   0.504  18.903  0.00  0.00    +0.000 C 
ATOM     38  N   UNL     1     -10.187   1.549  19.380  0.00  0.00    +0.000 NA
ENDBRANCH   8  37
BRANCH   9  39
ATOM     39  N   UNL     1      -9.220  -1.960  20.132  0.00  0.00    +0.000 N 
ATOM     40  H   UNL     1      -8.302  -1.527  20.045  0.00  0.00    +0.000 HD
BRANCH  39  41
ATOM     41  C   UNL     1      -9.694  -2.079  21.459  0.00  0.00    +0.000 A 
ATOM     42  C   UNL     1     -11.002  -1.713  21.817  0.00  0.00    +0.000 A 
ATOM     43  C   UNL     1     -11.473  -1.877  23.124  0.00  0.00    +0.000 A 
ATOM     44  C   UNL     1     -10.649  -2.445  24.083  0.00  0.00    +0.000 A 
ATOM     45  F   UNL     1     -11.133  -2.636  25.320  0.00  0.00    +0.000 F 
ATOM     46  C   UNL     1      -9.353  -2.829  23.752  0.00  0.00    +0.000 A 
ATOM     47 CL   UNL     1      -8.332  -3.554  24.937  0.00  0.00    +0.000 Cl
ATOM     48  C   UNL     1      -8.874  -2.646  22.449  0.00  0.00    +0.000 A 
ATOM     49  H   UNL     1     -11.686  -1.296  21.083  0.00  0.00    +0.000 HD
ATOM     50  H   UNL     1     -12.482  -1.573  23.390  0.00  0.00    +0.000 HD
ATOM     51  H   UNL     1      -7.859  -2.952  22.214  0.00  0.00    +0.000 HD
ENDBRANCH  39  41
ENDBRANCH   9  39
TORSDOF 9
ENDMDL
MODEL 6
REMARK VINA RESULT:    -9.295      2.505      6.498
REMARK INTER + INTRA:         -15.090
REMARK INTER:                 -13.345
REMARK INTRA:                  -1.745
REMARK UNBOUND:                -1.176
REMARK  Name = 
REMARK  9 active torsions:
REMARK  status: ('A' for Active; 'I' for Inactive)
REMARK    1  A    between atoms: C_1  and  C_2
REMARK    2  A    between atoms: C_2  and  C_3
REMARK    3  A    between atoms: C_3  and  C_4
REMARK    4  A    between atoms: C_8  and  C_9
REMARK    5  A    between atoms: C_9  and  N_10
REMARK    6  A    between atoms: N_10  and  C_11
REMARK    7  A    between atoms: C_18  and  C_19
REMARK    8  A    between atoms: C_21  and  N_22
REMARK    9  A    between atoms: N_22  and  C_23
REMARK                            x       y       z     vdW  Elec       q    Type
REMARK                         _______ _______ _______ _____ _____    ______ ____
ROOT
ATOM      1  C   UNL     1      -9.071  -6.440  15.459  0.00  0.00    +0.000 A 
ATOM      2  C   UNL     1      -9.205  -7.606  14.716  0.00  0.00    +0.000 A 
ATOM      3  C   UNL     1      -9.123  -8.854  15.334  0.00  0.00    +0.000 A 
ATOM      4 CL   UNL     1      -9.248 -10.252  14.311  0.00  0.00    +0.000 Cl
ATOM      5  C   UNL     1      -8.955  -8.996  16.717  0.00  0.00    +0.000 A 
ATOM      6  N   UNL     1      -8.886 -10.226  17.267  0.00  0.00    +0.000 NA
ATOM      7  C   UNL     1      -8.794 -10.345  18.603  0.00  0.00    +0.000 A 
ATOM      8  C   UNL     1      -8.736  -9.273  19.470  0.00  0.00    +0.000 A 
ATOM      9  C   UNL     1      -8.712  -7.978  18.927  0.00  0.00    +0.000 A 
ATOM     10  C   UNL     1      -8.869  -7.827  17.508  0.00  0.00    +0.000 A 
ATOM     11  C   UNL     1      -8.932  -6.568  16.851  0.00  0.00    +0.000 A 
ATOM     12  H   UNL     1      -9.361  -7.550  13.640  0.00  0.00    +0.000 HD
ATOM     13  H   UNL     1      -8.780 -11.372  18.963  0.00  0.00    +0.000 HD
ATOM     14  H   UNL     1      -8.880  -5.662  17.452  0.00  0.00    +0.000 HD
ENDROOT
BRANCH   1  15
ATOM     15  N   UNL     1      -9.203  -5.209  14.819  0.00  0.00    +0.000 N 
ATOM     16  H   UNL     1      -8.513  -4.505  15.093  0.00  0.00    +0.000 HD
BRANCH  15  17
ATOM     17  C   UNL     1     -10.525  -4.587  14.777  0.00  0.00    +0.000 C 
ATOM     18  H   UNL     1     -10.903  -4.651  13.750  0.00  0.00    +0.000 HD
ATOM     19  H   UNL     1     -11.221  -5.138  15.424  0.00  0.00    +0.000 HD
BRANCH  17  24
ATOM     20  C   UNL     1     -11.292  -2.624  16.285  0.00  0.00    +0.000 A 
ATOM     21  N   UNL     1     -11.006  -1.281  16.264  0.00  0.00    +0.000 N 
ATOM     22  C   UNL     1     -10.170  -1.049  15.211  0.00  0.00    +0.000 A 
ATOM     23  N   UNL     1      -9.889  -2.156  14.563  0.00  0.00    +0.000 NA
ATOM     24  C   UNL     1     -10.594  -3.150  15.213  0.00  0.00    +0.000 A 
ATOM     25  H   UNL     1     -11.360  -0.581  16.905  0.00  0.00    +0.000 HD
ATOM     26  H   UNL     1      -9.807  -0.061  14.966  0.00  0.00    +0.000 HD
BRANCH  20  27
ATOM     27  C   UNL     1     -12.170  -3.267  17.302  0.00  0.00    +0.000 C 
ATOM     28  H   UNL     1     -13.154  -2.781  17.294  0.00  0.00    +0.000 HD
ATOM     29  H   UNL     1     -12.339  -4.315  17.026  0.00  0.00    +0.000 HD
BRANCH  27  30
ATOM     30  C   UNL     1     -11.575  -3.174  18.705  0.00  0.00    +0.000 C 
ATOM     31  H   UNL     1     -11.637  -2.144  19.074  0.00  0.00    +0.000 HD
ATOM     32  H   UNL     1     -12.152  -3.797  19.400  0.00  0.00    +0.000 HD
BRANCH  30  33
ATOM     33  C   UNL     1     -10.121  -3.617  18.721  0.00  0.00    +0.000 C 
ATOM     34  H   UNL     1      -9.818  -3.872  19.741  0.00  0.00    +0.000 HD
ATOM     35  H   UNL     1      -9.464  -2.821  18.359  0.00  0.00    +0.000 HD
ATOM     36  H   UNL     1      -9.973  -4.500  18.092  0.00  0.00    +0.000 HD
ENDBRANCH  30  33
ENDBRANCH  27  30
ENDBRANCH  20  27
ENDBRANCH  17  24
ENDBRANCH  15  17
ENDBRANCH   1  15
BRANCH   8  37
ATOM     37  C   UNL     1      -8.761  -9.557  20.870  0.00  0.00    +0.000 C 
ATOM     38  N   UNL     1      -8.738  -9.797  22.003  0.00  0.00    +0.000 NA
ENDBRANCH   8  37
BRANCH   9  39
ATOM     39  N   UNL     1      -8.570  -6.815  19.742  0.00  0.00    +0.000 N 
ATOM     40  H   UNL     1      -9.338  -6.700  20.402  0.00  0.00    +0.000 HD
BRANCH  39  41
ATOM     41  C   UNL     1      -7.412  -6.060  20.046  0.00  0.00    +0.000 A 
ATOM     42  C   UNL     1      -6.161  -6.361  19.482  0.00  0.00    +0.000 A 
ATOM     43  C   UNL     1      -5.032  -5.580  19.755  0.00  0.00    +0.000 A 
ATOM     44  C   UNL     1      -5.151  -4.466  20.571  0.00  0.00    +0.000 A 
ATOM     45  F   UNL     1      -4.068  -3.704  20.787  0.00  0.00    +0.000 F 
ATOM     46  C   UNL     1      -6.382  -4.138  21.132  0.00  0.00    +0.000 A 
ATOM     47 CL   UNL     1      -6.539  -2.742  22.131  0.00  0.00    +0.000 Cl
ATOM     48  C   UNL     1      -7.508  -4.931  20.875  0.00  0.00    +0.000 A 
ATOM     49  H   UNL     1      -6.039  -7.207  18.811  0.00  0.00    +0.000 HD
ATOM     50  H   UNL     1      -4.068  -5.835  19.325  0.00  0.00    +0.000 HD
ATOM     51  H   UNL     1      -8.458  -4.657  21.325  0.00  0.00    +0.000 HD
ENDBRANCH  39  41
ENDBRANCH   9  39
TORSDOF 9
ENDMDL
MODEL 7
REMARK VINA RESULT:    -9.216      2.517      5.025
REMARK INTER + INTRA:         -14.972
REMARK INTER:                 -13.727
REMARK INTRA:                  -1.246
REMARK UNBOUND:                -1.176
REMARK  Name = 
REMARK  9 active torsions:
REMARK  status: ('A' for Active; 'I' for Inactive)
REMARK    1  A    between atoms: C_1  and  C_2
REMARK    2  A    between atoms: C_2  and  C_3
REMARK    3  A    between atoms: C_3  and  C_4
REMARK    4  A    between atoms: C_8  and  C_9
REMARK    5  A    between atoms: C_9  and  N_10
REMARK    6  A    between atoms: N_10  and  C_11
REMARK    7  A    between atoms: C_18  and  C_19
REMARK    8  A    between atoms: C_21  and  N_22
REMARK    9  A    between atoms: N_22  and  C_23
REMARK                            x       y       z     vdW  Elec       q    Type
REMARK                         _______ _______ _______ _____ _____    ______ ____
ROOT
ATOM      1  C   UNL     1      -8.506  -6.441  17.518  0.00  0.00    +0.000 A 
ATOM      2  C   UNL     1      -7.377  -6.432  18.328  0.00  0.00    +0.000 A 
ATOM      3  C   UNL     1      -7.214  -5.448  19.305  0.00  0.00    +0.000 A 
ATOM      4 CL   UNL     1      -5.744  -5.488  20.229  0.00  0.00    +0.000 Cl
ATOM      5  C   UNL     1      -8.184  -4.469  19.551  0.00  0.00    +0.000 A 
ATOM      6  N   UNL     1      -7.981  -3.542  20.510  0.00  0.00    +0.000 NA
ATOM      7  C   UNL     1      -8.950  -2.650  20.780  0.00  0.00    +0.000 A 
ATOM      8  C   UNL     1     -10.156  -2.598  20.111  0.00  0.00    +0.000 A 
ATOM      9  C   UNL     1     -10.365  -3.488  19.045  0.00  0.00    +0.000 A 
ATOM     10  C   UNL     1      -9.369  -4.485  18.779  0.00  0.00    +0.000 A 
ATOM     11  C   UNL     1      -9.499  -5.483  17.774  0.00  0.00    +0.000 A 
ATOM     12  H   UNL     1      -6.604  -7.186  18.194  0.00  0.00    +0.000 HD
ATOM     13  H   UNL     1      -8.717  -1.964  21.592  0.00  0.00    +0.000 HD
ATOM     14  H   UNL     1     -10.413  -5.512  17.184  0.00  0.00    +0.000 HD
ENDROOT
BRANCH   1  15
ATOM     15  N   UNL     1      -8.660  -7.463  16.582  0.00  0.00    +0.000 N 
ATOM     16  H   UNL     1      -8.751  -7.150  15.613  0.00  0.00    +0.000 HD
BRANCH  15  17
ATOM     17  C   UNL     1      -9.660  -8.498  16.844  0.00  0.00    +0.000 C 
ATOM     18  H   UNL     1     -10.439  -8.070  17.485  0.00  0.00    +0.000 HD
ATOM     19  H   UNL     1     -10.133  -8.810  15.903  0.00  0.00    +0.000 HD
BRANCH  17  24
ATOM     20  C   UNL     1      -8.945 -10.989  16.907  0.00  0.00    +0.000 A 
ATOM     21  N   UNL     1      -8.458 -11.781  17.917  0.00  0.00    +0.000 N 
ATOM     22  C   UNL     1      -8.392 -11.021  19.048  0.00  0.00    +0.000 A 
ATOM     23  N   UNL     1      -8.791  -9.790  18.828  0.00  0.00    +0.000 NA
ATOM     24  C   UNL     1      -9.155  -9.754  17.496  0.00  0.00    +0.000 A 
ATOM     25  H   UNL     1      -8.204 -12.758  17.844  0.00  0.00    +0.000 HD
ATOM     26  H   UNL     1      -8.052 -11.419  19.995  0.00  0.00    +0.000 HD
BRANCH  20  27
ATOM     27  C   UNL     1      -9.150 -11.462  15.510  0.00  0.00    +0.000 C 
ATOM     28  H   UNL     1     -10.154 -11.895  15.415  0.00  0.00    +0.000 HD
ATOM     29  H   UNL     1      -9.116 -10.605  14.826  0.00  0.00    +0.000 HD
BRANCH  27  30
ATOM     30  C   UNL     1      -8.111 -12.506  15.107  0.00  0.00    +0.000 C 
ATOM     31  H   UNL     1      -7.649 -12.230  14.153  0.00  0.00    +0.000 HD
ATOM     32  H   UNL     1      -7.306 -12.542  15.853  0.00  0.00    +0.000 HD
BRANCH  30  33
ATOM     33  C   UNL     1      -8.734 -13.886  14.974  0.00  0.00    +0.000 C 
ATOM     34  H   UNL     1      -9.351 -13.935  14.072  0.00  0.00    +0.000 HD
ATOM     35  H   UNL     1      -9.369 -14.114  15.835  0.00  0.00    +0.000 HD
ATOM     36  H   UNL     1      -7.962 -14.659  14.900  0.00  0.00    +0.000 HD
ENDBRANCH  30  33
ENDBRANCH  27  30
ENDBRANCH  20  27
ENDBRANCH  17  24
ENDBRANCH  15  17
ENDBRANCH   1  15
BRANCH   8  37
ATOM     37  C   UNL     1     -11.134  -1.673  20.591  0.00  0.00    +0.000 C 
ATOM     38  N   UNL     1     -11.898  -0.890  20.973  0.00  0.00    +0.000 NA
ENDBRANCH   8  37
BRANCH   9  39
ATOM     39  N   UNL     1     -11.547  -3.449  18.244  0.00  0.00    +0.000 N 
ATOM     40  H   UNL     1     -12.391  -3.655  18.778  0.00  0.00    +0.000 HD
BRANCH  39  41
ATOM     41  C   UNL     1     -11.775  -2.818  16.999  0.00  0.00    +0.000 A 
ATOM     42  C   UNL     1     -12.009  -1.436  16.899  0.00  0.00    +0.000 A 
ATOM     43  C   UNL     1     -12.189  -0.816  15.658  0.00  0.00    +0.000 A 
ATOM     44  C   UNL     1     -12.101  -1.568  14.496  0.00  0.00    +0.000 A 
ATOM     45  F   UNL     1     -12.233  -0.949  13.313  0.00  0.00    +0.000 F 
ATOM     46  C   UNL     1     -11.857  -2.936  14.567  0.00  0.00    +0.000 A 
ATOM     47 CL   UNL     1     -11.728  -3.873  13.125  0.00  0.00    +0.000 Cl
ATOM     48  C   UNL     1     -11.697  -3.561  15.811  0.00  0.00    +0.000 A 
ATOM     49  H   UNL     1     -12.050  -0.810  17.786  0.00  0.00    +0.000 HD
ATOM     50  H   UNL     1     -12.386   0.250  15.597  0.00  0.00    +0.000 HD
ATOM     51  H   UNL     1     -11.509  -4.631  15.841  0.00  0.00    +0.000 HD
ENDBRANCH  39  41
ENDBRANCH   9  39
TORSDOF 9
ENDMDL
MODEL 8
REMARK VINA RESULT:    -9.003      3.101      5.399
REMARK INTER + INTRA:         -14.653
REMARK INTER:                 -13.483
REMARK INTRA:                  -1.170
REMARK UNBOUND:                -1.176
REMARK  Name = 
REMARK  9 active torsions:
REMARK  status: ('A' for Active; 'I' for Inactive)
REMARK    1  A    between atoms: C_1  and  C_2
REMARK    2  A    between atoms: C_2  and  C_3
REMARK    3  A    between atoms: C_3  and  C_4
REMARK    4  A    between atoms: C_8  and  C_9
REMARK    5  A    between atoms: C_9  and  N_10
REMARK    6  A    between atoms: N_10  and  C_11
REMARK    7  A    between atoms: C_18  and  C_19
REMARK    8  A    between atoms: C_21  and  N_22
REMARK    9  A    between atoms: N_22  and  C_23
REMARK                            x       y       z     vdW  Elec       q    Type
REMARK                         _______ _______ _______ _____ _____    ______ ____
ROOT
ATOM      1  C   UNL     1     -10.336  -6.888  16.836  0.00  0.00    +0.000 A 
ATOM      2  C   UNL     1      -9.228  -7.181  17.622  0.00  0.00    +0.000 A 
ATOM      3  C   UNL     1      -8.704  -6.225  18.493  0.00  0.00    +0.000 A 
ATOM      4 CL   UNL     1      -7.285  -6.667  19.391  0.00  0.00    +0.000 Cl
ATOM      5  C   UNL     1      -9.287  -4.962  18.657  0.00  0.00    +0.000 A 
ATOM      6  N   UNL     1      -8.744  -4.074  19.516  0.00  0.00    +0.000 NA
ATOM      7  C   UNL     1      -9.354  -2.891  19.713  0.00  0.00    +0.000 A 
ATOM      8  C   UNL     1     -10.507  -2.502  19.063  0.00  0.00    +0.000 A 
ATOM      9  C   UNL     1     -11.048  -3.363  18.094  0.00  0.00    +0.000 A 
ATOM     10  C   UNL     1     -10.447  -4.653  17.911  0.00  0.00    +0.000 A 
ATOM     11  C   UNL     1     -10.947  -5.636  17.013  0.00  0.00    +0.000 A 
ATOM     12  H   UNL     1      -8.753  -8.157  17.550  0.00  0.00    +0.000 HD
ATOM     13  H   UNL     1      -8.869  -2.252  20.448  0.00  0.00    +0.000 HD
ATOM     14  H   UNL     1     -11.848  -5.414  16.444  0.00  0.00    +0.000 HD
ENDROOT
BRANCH   1  15
ATOM     15  N   UNL     1     -10.862  -7.880  16.010  0.00  0.00    +0.000 N 
ATOM     16  H   UNL     1     -11.781  -7.668  15.614  0.00  0.00    +0.000 HD
BRANCH  15  17
ATOM     17  C   UNL     1     -10.859  -9.259  16.493  0.00  0.00    +0.000 C 
ATOM     18  H   UNL     1     -10.736  -9.242  17.583  0.00  0.00    +0.000 HD
ATOM     19  H   UNL     1     -11.822  -9.738  16.272  0.00  0.00    +0.000 HD
BRANCH  17  24
ATOM     20  C   UNL     1      -9.095 -11.157  16.563  0.00  0.00    +0.000 A 
ATOM     21  N   UNL     1      -8.280 -11.692  15.597  0.00  0.00    +0.000 N 
ATOM     22  C   UNL     1      -8.515 -11.018  14.433  0.00  0.00    +0.000 A 
ATOM     23  N   UNL     1      -9.437 -10.096  14.586  0.00  0.00    +0.000 NA
ATOM     24  C   UNL     1      -9.802 -10.159  15.917  0.00  0.00    +0.000 A 
ATOM     25  H   UNL     1      -7.612 -12.443  15.722  0.00  0.00    +0.000 HD
ATOM     26  H   UNL     1      -7.984 -11.240  13.518  0.00  0.00    +0.000 HD
BRANCH  20  27
ATOM     27  C   UNL     1      -9.134 -11.640  17.972  0.00  0.00    +0.000 C 
ATOM     28  H   UNL     1      -8.868 -10.817  18.647  0.00  0.00    +0.000 HD
ATOM     29  H   UNL     1     -10.160 -11.932  18.228  0.00  0.00    +0.000 HD
BRANCH  27  30
ATOM     30  C   UNL     1      -8.176 -12.807  18.198  0.00  0.00    +0.000 C 
ATOM     31  H   UNL     1      -7.689 -13.083  17.255  0.00  0.00    +0.000 HD
ATOM     32  H   UNL     1      -7.379 -12.509  18.892  0.00  0.00    +0.000 HD
BRANCH  30  33
ATOM     33  C   UNL     1      -8.900 -14.020  18.756  0.00  0.00    +0.000 C 
ATOM     34  H   UNL     1      -9.944 -13.771  18.965  0.00  0.00    +0.000 HD
ATOM     35  H   UNL     1      -8.437 -14.358  19.688  0.00  0.00    +0.000 HD
ATOM     36  H   UNL     1      -8.884 -14.849  18.042  0.00  0.00    +0.000 HD
ENDBRANCH  30  33
ENDBRANCH  27  30
ENDBRANCH  20  27
ENDBRANCH  17  24
ENDBRANCH  15  17
ENDBRANCH   1  15
BRANCH   8  37
ATOM     37  C   UNL     1     -11.104  -1.268  19.465  0.00  0.00    +0.000 C 
ATOM     38  N   UNL     1     -11.548  -0.246  19.783  0.00  0.00    +0.000 NA
ENDBRANCH   8  37
BRANCH   9  39
ATOM     39  N   UNL     1     -12.190  -3.007  17.314  0.00  0.00    +0.000 N 
ATOM     40  H   UNL     1     -13.056  -3.027  17.852  0.00  0.00    +0.000 HD
BRANCH  39  41
ATOM     41  C   UNL     1     -12.265  -2.285  16.100  0.00  0.00    +0.000 A 
ATOM     42  C   UNL     1     -13.052  -1.128  15.970  0.00  0.00    +0.000 A 
ATOM     43  C   UNL     1     -13.084  -0.398  14.777  0.00  0.00    +0.000 A 
ATOM     44  C   UNL     1     -12.299  -0.799  13.707  0.00  0.00    +0.000 A 
ATOM     45  F   UNL     1     -12.308  -0.061  12.587  0.00  0.00    +0.000 F 
ATOM     46  C   UNL     1     -11.500  -1.934  13.813  0.00  0.00    +0.000 A 
ATOM     47 CL   UNL     1     -10.507  -2.425  12.492  0.00  0.00    +0.000 Cl
ATOM     48  C   UNL     1     -11.484  -2.677  15.001  0.00  0.00    +0.000 A 
ATOM     49  H   UNL     1     -13.654  -0.766  16.800  0.00  0.00    +0.000 HD
ATOM     50  H   UNL     1     -13.710   0.485  14.687  0.00  0.00    +0.000 HD
ATOM     51  H   UNL     1     -10.854  -3.560  15.060  0.00  0.00    +0.000 HD
ENDBRANCH  39  41
ENDBRANCH   9  39
TORSDOF 9
ENDMDL
MODEL 9
REMARK VINA RESULT:    -8.987      3.832      7.954
REMARK INTER + INTRA:         -14.629
REMARK INTER:                 -13.147
REMARK INTRA:                  -1.482
REMARK UNBOUND:                -1.176
REMARK  Name = 
REMARK  9 active torsions:
REMARK  status: ('A' for Active; 'I' for Inactive)
REMARK    1  A    between atoms: C_1  and  C_2
REMARK    2  A    between atoms: C_2  and  C_3
REMARK    3  A    between atoms: C_3  and  C_4
REMARK    4  A    between atoms: C_8  and  C_9
REMARK    5  A    between atoms: C_9  and  N_10
REMARK    6  A    between atoms: N_10  and  C_11
REMARK    7  A    between atoms: C_18  and  C_19
REMARK    8  A    between atoms: C_21  and  N_22
REMARK    9  A    between atoms: N_22  and  C_23
REMARK                            x       y       z     vdW  Elec       q    Type
REMARK                         _______ _______ _______ _____ _____    ______ ____
ROOT
ATOM      1  C   UNL     1     -11.253  -4.851  15.501  0.00  0.00    +0.000 A 
ATOM      2  C   UNL     1     -10.735  -3.701  16.083  0.00  0.00    +0.000 A 
ATOM      3  C   UNL     1     -10.062  -3.766  17.304  0.00  0.00    +0.000 A 
ATOM      4 CL   UNL     1      -9.501  -2.266  17.977  0.00  0.00    +0.000 Cl
ATOM      5  C   UNL     1      -9.832  -4.976  17.969  0.00  0.00    +0.000 A 
ATOM      6  N   UNL     1      -9.172  -4.986  19.146  0.00  0.00    +0.000 NA
ATOM      7  C   UNL     1      -8.899  -6.162  19.738  0.00  0.00    +0.000 A 
ATOM      8  C   UNL     1      -9.280  -7.387  19.229  0.00  0.00    +0.000 A 
ATOM      9  C   UNL     1     -10.048  -7.410  18.054  0.00  0.00    +0.000 A 
ATOM     10  C   UNL     1     -10.299  -6.171  17.375  0.00  0.00    +0.000 A 
ATOM     11  C   UNL     1     -11.003  -6.075  16.143  0.00  0.00    +0.000 A 
ATOM     12  H   UNL     1     -10.866  -2.737  15.594  0.00  0.00    +0.000 HD
ATOM     13  H   UNL     1      -8.333  -6.079  20.663  0.00  0.00    +0.000 HD
ATOM     14  H   UNL     1     -11.355  -6.990  15.670  0.00  0.00    +0.000 HD
ENDROOT
BRANCH   1  15
ATOM     15  N   UNL     1     -11.880  -4.759  14.259  0.00  0.00    +0.000 N 
ATOM     16  H   UNL     1     -11.483  -5.358  13.531  0.00  0.00    +0.000 HD
BRANCH  15  17
ATOM     17  C   UNL     1     -12.124  -3.430  13.702  0.00  0.00    +0.000 C 
ATOM     18  H   UNL     1     -13.207  -3.263  13.671  0.00  0.00    +0.000 HD
ATOM     19  H   UNL     1     -11.685  -2.663  14.354  0.00  0.00    +0.000 HD
BRANCH  17  24
ATOM     20  C   UNL     1     -10.331  -2.664  11.994  0.00  0.00    +0.000 A 
ATOM     21  N   UNL     1     -10.310  -2.660  10.621  0.00  0.00    +0.000 N 
ATOM     22  C   UNL     1     -11.504  -3.157  10.185  0.00  0.00    +0.000 A 
ATOM     23  N   UNL     1     -12.284  -3.493  11.186  0.00  0.00    +0.000 NA
ATOM     24  C   UNL     1     -11.572  -3.178  12.327  0.00  0.00    +0.000 A 
ATOM     25  H   UNL     1      -9.554  -2.335  10.033  0.00  0.00    +0.000 HD
ATOM     26  H   UNL     1     -11.746  -3.245   9.134  0.00  0.00    +0.000 HD
BRANCH  20  27
ATOM     27  C   UNL     1      -9.196  -2.201  12.840  0.00  0.00    +0.000 C 
ATOM     28  H   UNL     1      -8.979  -2.956  13.605  0.00  0.00    +0.000 HD
ATOM     29  H   UNL     1      -8.294  -2.116  12.222  0.00  0.00    +0.000 HD
BRANCH  27  30
ATOM     30  C   UNL     1      -9.503  -0.869  13.520  0.00  0.00    +0.000 C 
ATOM     31  H   UNL     1      -9.313  -0.039  12.830  0.00  0.00    +0.000 HD
ATOM     32  H   UNL     1     -10.567  -0.821  13.790  0.00  0.00    +0.000 HD
BRANCH  30  33
ATOM     33  C   UNL     1      -8.660  -0.676  14.770  0.00  0.00    +0.000 C 
ATOM     34  H   UNL     1      -7.600  -0.631  14.504  0.00  0.00    +0.000 HD
ATOM     35  H   UNL     1      -8.801  -1.505  15.469  0.00  0.00    +0.000 HD
ATOM     36  H   UNL     1      -8.923   0.255  15.281  0.00  0.00    +0.000 HD
ENDBRANCH  30  33
ENDBRANCH  27  30
ENDBRANCH  20  27
ENDBRANCH  17  24
ENDBRANCH  15  17
ENDBRANCH   1  15
BRANCH   8  37
ATOM     37  C   UNL     1      -8.813  -8.555  19.908  0.00  0.00    +0.000 C 
ATOM     38  N   UNL     1      -8.475  -9.503  20.480  0.00  0.00    +0.000 NA
ENDBRANCH   8  37
BRANCH   9  39
ATOM     39  N   UNL     1     -10.556  -8.625  17.502  0.00  0.00    +0.000 N 
ATOM     40  H   UNL     1     -11.570  -8.620  17.405  0.00  0.00    +0.000 HD
BRANCH  39  41
ATOM     41  C   UNL     1      -9.894  -9.617  16.740  0.00  0.00    +0.000 A 
ATOM     42  C   UNL     1      -9.479  -9.384  15.418  0.00  0.00    +0.000 A 
ATOM     43  C   UNL     1      -8.787 -10.357  14.689  0.00  0.00    +0.000 A 
ATOM     44  C   UNL     1      -8.470 -11.566  15.289  0.00  0.00    +0.000 A 
ATOM     45  F   UNL     1      -7.767 -12.470  14.591  0.00  0.00    +0.000 F 
ATOM     46  C   UNL     1      -8.858 -11.817  16.602  0.00  0.00    +0.000 A 
ATOM     47 CL   UNL     1      -8.449 -13.312  17.359  0.00  0.00    +0.000 Cl
ATOM     48  C   UNL     1      -9.569 -10.851  17.325  0.00  0.00    +0.000 A 
ATOM     49  H   UNL     1      -9.680  -8.435  14.928  0.00  0.00    +0.000 HD
ATOM     50  H   UNL     1      -8.487 -10.169  13.663  0.00  0.00    +0.000 HD
ATOM     51  H   UNL     1      -9.863 -11.070  18.348  0.00  0.00    +0.000 HD
ENDBRANCH  39  41
ENDBRANCH   9  39
TORSDOF 9
ENDMDL
