
 OpenBabel01112422333D

 59 65  0  0  0  0  0  0  0  0999 V2000
    1.6170    0.1937   -0.6277 C   0  0  0  0  0  0  0  0  0  0  0  0
    2.3543    0.6520    0.5251 N   0  0  0  0  0  0  0  0  0  0  0  0
    1.7570    0.6922    1.7660 C   0  0  0  0  0  0  0  0  0  0  0  0
    2.7819    0.8492    2.6616 C   0  0  0  0  0  0  0  0  0  0  0  0
    3.6744    1.6777    1.9441 C   0  0  0  0  0  0  0  0  0  0  0  0
    4.5125    2.7349    2.3275 C   0  0  0  0  0  0  0  0  0  0  0  0
    5.1214    3.4778    1.3205 C   0  0  0  0  0  0  0  0  0  0  0  0
    5.1134    3.0062   -0.0026 C   0  0  0  0  0  0  0  0  0  0  0  0
    5.7603    3.7050   -1.0376 C   0  0  0  0  0  0  0  0  0  0  0  0
    6.5946    4.7979   -1.0126 N   0  0  0  0  0  0  0  0  0  0  0  0
    7.4362    4.7673   -2.1104 C   0  0  0  0  0  0  0  0  0  0  0  0
    8.6746    5.4253   -2.2742 C   0  0  0  0  0  0  0  0  0  0  0  0
    9.2238    6.3559   -1.2153 C   0  0  0  0  0  0  0  0  0  0  0  0
   10.0550    7.4902   -1.8176 C   0  0  0  0  0  0  0  0  0  0  0  0
   10.5338    8.5253   -0.8835 N   0  0  0  0  0  0  0  0  0  0  0  0
    9.4495    9.2504   -0.1894 C   0  0  0  0  0  0  0  0  0  0  0  0
    8.5803   10.1338   -1.1115 C   0  0  0  0  0  0  0  0  0  0  0  0
    9.3667   11.0998   -1.8998 N   0  0  0  0  0  0  0  0  0  0  0  0
   10.4747   10.4156   -2.5899 C   0  0  0  0  0  0  0  0  0  0  0  0
   11.3246    9.5197   -1.6529 C   0  0  0  0  0  0  0  0  0  0  0  0
    9.3721    5.1029   -3.4561 C   0  0  0  0  0  0  0  0  0  0  0  0
    8.8379    4.2664   -4.4314 C   0  0  0  0  0  0  0  0  0  0  0  0
    7.6039    3.6575   -4.2434 C   0  0  0  0  0  0  0  0  0  0  0  0
    6.9036    3.8677   -3.0402 C   0  0  0  0  0  0  0  0  0  0  0  0
    5.8119    3.3142   -2.3504 C   0  0  0  0  0  0  0  0  0  0  0  0
    5.3154    2.0284   -2.7226 C   0  0  0  0  0  0  0  0  0  0  0  0
    4.9322    1.2450   -1.5887 C   0  0  0  0  0  0  0  0  0  0  0  0
    4.5168    1.7755   -0.3551 C   0  0  0  0  0  0  0  0  0  0  0  0
    3.5834    1.2985    0.5899 C   0  0  0  0  0  0  0  0  0  0  0  0
    5.7600    0.0520   -1.7783 C   0  0  0  0  0  0  0  0  0  0  0  0
    6.3973   -0.6453   -0.9959 O   0  0  0  0  0  0  0  0  0  0  0  0
    5.9811    0.0246   -3.1471 N   0  0  0  0  0  0  0  0  0  0  0  0
    5.6825    1.2013   -3.8069 C   0  0  0  0  0  0  0  0  0  0  0  0
    5.7562    1.3156   -5.0283 O   0  0  0  0  0  0  0  0  0  0  0  0
    2.1607   -0.6451   -1.0596 H   0  0  0  0  0  0  0  0  0  0  0  0
    1.4715    1.0142   -1.3314 H   0  0  0  0  0  0  0  0  0  0  0  0
    0.6345   -0.1618   -0.2886 H   0  0  0  0  0  0  0  0  0  0  0  0
    0.6961    0.5261    1.9093 H   0  0  0  0  0  0  0  0  0  0  0  0
    2.7094    0.7042    3.7290 H   0  0  0  0  0  0  0  0  0  0  0  0
    4.5243    3.0799    3.3580 H   0  0  0  0  0  0  0  0  0  0  0  0
    5.6026    4.4125    1.5865 H   0  0  0  0  0  0  0  0  0  0  0  0
    6.7899    5.3258   -0.1763 H   0  0  0  0  0  0  0  0  0  0  0  0
    9.8114    5.7773   -0.4964 H   0  0  0  0  0  0  0  0  0  0  0  0
    8.3735    6.7834   -0.6696 H   0  0  0  0  0  0  0  0  0  0  0  0
    9.4813    7.9280   -2.6425 H   0  0  0  0  0  0  0  0  0  0  0  0
   10.9511    7.0375   -2.2598 H   0  0  0  0  0  0  0  0  0  0  0  0
    9.9127    9.8944    0.5716 H   0  0  0  0  0  0  0  0  0  0  0  0
    8.8161    8.5646    0.3829 H   0  0  0  0  0  0  0  0  0  0  0  0
    7.8662   10.6927   -0.4961 H   0  0  0  0  0  0  0  0  0  0  0  0
    7.9820    9.5081   -1.7844 H   0  0  0  0  0  0  0  0  0  0  0  0
    9.7769   11.7702   -1.2499 H   0  0  0  0  0  0  0  0  0  0  0  0
   11.1242   11.1715   -3.0438 H   0  0  0  0  0  0  0  0  0  0  0  0
   10.0713    9.8300   -3.4247 H   0  0  0  0  0  0  0  0  0  0  0  0
   11.8601   10.1586   -0.9391 H   0  0  0  0  0  0  0  0  0  0  0  0
   12.1035    9.0112   -2.2353 H   0  0  0  0  0  0  0  0  0  0  0  0
   10.3615    5.5127   -3.6322 H   0  0  0  0  0  0  0  0  0  0  0  0
    9.4237    4.0381   -5.3266 H   0  0  0  0  0  0  0  0  0  0  0  0
    7.2431    2.9952   -5.0140 H   0  0  0  0  0  0  0  0  0  0  0  0
    6.7157   -0.5585   -3.5273 H   0  0  0  0  0  0  0  0  0  0  0  0
  1  2  1  0  0  0  0
  1 35  1  0  0  0  0
  1 36  1  0  0  0  0
  1 37  1  0  0  0  0
  2  3  1  0  0  0  0
  2 29  1  0  0  0  0
  3  4  2  0  0  0  0
  3 38  1  0  0  0  0
  4  5  1  0  0  0  0
  4 39  1  0  0  0  0
  5  6  1  0  0  0  0
  5 29  2  0  0  0  0
  6  7  2  0  0  0  0
  6 40  1  0  0  0  0
  7  8  1  0  0  0  0
  7 41  1  0  0  0  0
  8  9  1  0  0  0  0
  8 28  2  0  0  0  0
  9 10  1  0  0  0  0
  9 25  2  0  0  0  0
 10 11  1  0  0  0  0
 10 42  1  0  0  0  0
 11 12  1  0  0  0  0
 11 24  2  0  0  0  0
 12 13  1  0  0  0  0
 12 21  2  0  0  0  0
 13 14  1  0  0  0  0
 13 43  1  0  0  0  0
 13 44  1  0  0  0  0
 14 15  1  0  0  0  0
 14 45  1  0  0  0  0
 14 46  1  0  0  0  0
 15 16  1  0  0  0  0
 15 20  1  0  0  0  0
 16 17  1  0  0  0  0
 16 47  1  0  0  0  0
 16 48  1  0  0  0  0
 17 18  1  0  0  0  0
 17 49  1  0  0  0  0
 17 50  1  0  0  0  0
 18 19  1  0  0  0  0
 18 51  1  0  0  0  0
 19 20  1  0  0  0  0
 19 52  1  0  0  0  0
 19 53  1  0  0  0  0
 20 54  1  0  0  0  0
 20 55  1  0  0  0  0
 21 22  1  0  0  0  0
 21 56  1  0  0  0  0
 22 23  2  0  0  0  0
 22 57  1  0  0  0  0
 23 24  1  0  0  0  0
 23 58  1  0  0  0  0
 24 25  1  0  0  0  0
 25 26  1  0  0  0  0
 26 27  2  0  0  0  0
 26 33  1  0  0  0  0
 27 28  1  0  0  0  0
 27 30  1  0  0  0  0
 28 29  1  0  0  0  0
 30 31  2  0  0  0  0
 30 32  1  0  0  0  0
 32 33  1  0  0  0  0
 32 59  1  0  0  0  0
 33 34  2  0  0  0  0
M  END
$$$$
