REMARK  Name = 
REMARK  6 active torsions:
REMARK  status: ('A' for Active; 'I' for Inactive)
REMARK    1  A    between atoms: C_2  and  C_3
REMARK    2  A    between atoms: C_6  and  C_7
REMARK    3  A    between atoms: C_18  and  O_19
REMARK    4  A    between atoms: C_20  and  O_21
REMARK    5  A    between atoms: C_27  and  O_28
REMARK    6  A    between atoms: C_29  and  O_30
REMARK                            x       y       z     vdW  Elec       q    Type
REMARK                         _______ _______ _______ _____ _____    ______ ____
ROOT
ATOM      1  O   UNL     1      -1.216   0.624  -3.489  0.00  0.00    +0.000 OA
ATOM      2  C   UNL     1      -0.947   0.248  -2.343  0.00  0.00    +0.000 C 
ATOM      3  N   UNL     1       0.280  -0.430  -2.092  0.00  0.00    +0.000 N 
ATOM      4  C   UNL     1       0.726  -0.865  -0.834  0.00  0.00    +0.000 A 
ATOM      5  C   UNL     1       0.444  -0.603   0.503  0.00  0.00    +0.000 A 
ATOM      6  C   UNL     1       0.287  -1.751   1.281  0.00  0.00    +0.000 A 
ATOM      7  C   UNL     1       0.547  -3.015   0.749  0.00  0.00    +0.000 A 
ATOM      8  C   UNL     1       1.300  -3.152  -0.416  0.00  0.00    +0.000 A 
ATOM      9  C   UNL     1       1.475  -1.982  -1.165  0.00  0.00    +0.000 A 
ATOM     10  C   UNL     1       2.258  -1.418  -2.182  0.00  0.00    +0.000 A 
ATOM     11  C   UNL     1       3.619  -1.334  -2.538  0.00  0.00    +0.000 A 
ATOM     12  C   UNL     1       3.944  -0.802  -3.786  0.00  0.00    +0.000 A 
ATOM     13  C   UNL     1       2.928  -0.578  -4.706  0.00  0.00    +0.000 A 
ATOM     14  C   UNL     1       1.582  -0.583  -4.329  0.00  0.00    +0.000 A 
ATOM     15  C   UNL     1       1.310  -0.769  -2.975  0.00  0.00    +0.000 A 
ATOM     16  H   UNL     1       0.153   0.381   0.856  0.00  0.00    +0.000 HD
ATOM     17  H   UNL     1       1.592  -4.118  -0.793  0.00  0.00    +0.000 HD
ATOM     18  H   UNL     1       4.392  -1.571  -1.809  0.00  0.00    +0.000 HD
ATOM     19  H   UNL     1       4.983  -0.624  -4.034  0.00  0.00    +0.000 HD
ENDROOT
BRANCH   2  20
ATOM     20  C   UNL     1      -1.861   0.645  -1.259  0.00  0.00    +0.000 A 
ATOM     21  C   UNL     1      -2.371  -0.280  -0.352  0.00  0.00    +0.000 A 
ATOM     22  C   UNL     1      -2.575   0.126   0.982  0.00  0.00    +0.000 A 
ATOM     23  C   UNL     1      -2.269   1.439   1.406  0.00  0.00    +0.000 A 
ATOM     24  C   UNL     1      -2.047   2.384   0.378  0.00  0.00    +0.000 A 
ATOM     25  C   UNL     1      -1.838   1.997  -0.945  0.00  0.00    +0.000 A 
ATOM     26  H   UNL     1      -2.407  -1.339  -0.598  0.00  0.00    +0.000 HD
ATOM     27  H   UNL     1      -2.795  -0.665   1.697  0.00  0.00    +0.000 HD
ATOM     28  H   UNL     1      -1.890   3.437   0.588  0.00  0.00    +0.000 HD
ATOM     29  H   UNL     1      -1.501   2.726  -1.677  0.00  0.00    +0.000 HD
BRANCH  23  30
ATOM     30  C   UNL     1      -1.976   1.787   2.839  0.00  0.00    +0.000 A 
ATOM     31  C   UNL     1      -1.961   0.827   3.872  0.00  0.00    +0.000 A 
ATOM     32  C   UNL     1      -1.564   1.143   5.183  0.00  0.00    +0.000 A 
ATOM     33  C   UNL     1      -1.180   2.437   5.508  0.00  0.00    +0.000 A 
ATOM     34  C   UNL     1      -1.177   3.409   4.522  0.00  0.00    +0.000 A 
ATOM     35  C   UNL     1      -1.559   3.083   3.215  0.00  0.00    +0.000 A 
ATOM     36  H   UNL     1      -2.234  -0.209   3.689  0.00  0.00    +0.000 HD
ATOM     37  H   UNL     1      -1.551   0.371   5.949  0.00  0.00    +0.000 HD
ATOM     38  H   UNL     1      -0.883   2.689   6.523  0.00  0.00    +0.000 HD
ATOM     39  H   UNL     1      -0.869   4.426   4.754  0.00  0.00    +0.000 HD
ATOM     40  H   UNL     1      -1.495   3.892   2.494  0.00  0.00    +0.000 HD
ENDBRANCH  23  30
ENDBRANCH   2  20
BRANCH   6  41
ATOM     41  O   UNL     1      -0.224  -1.681   2.542  0.00  0.00    +0.000 OA
ATOM     42  H   UNL     1      -0.021  -0.786   2.874  0.00  0.00    +0.000 HD
ENDBRANCH   6  41
BRANCH   7  43
ATOM     43  O   UNL     1       0.059  -4.123   1.382  0.00  0.00    +0.000 OA
ATOM     44  H   UNL     1      -0.524  -3.765   2.083  0.00  0.00    +0.000 HD
ENDBRANCH   7  43
BRANCH  13  45
ATOM     45  O   UNL     1       3.209  -0.318  -6.022  0.00  0.00    +0.000 OA
ATOM     46  H   UNL     1       4.175  -0.355  -6.132  0.00  0.00    +0.000 HD
ENDBRANCH  13  45
BRANCH  14  47
ATOM     47  O   UNL     1       0.603  -0.451  -5.270  0.00  0.00    +0.000 OA
ATOM     48  H   UNL     1       1.071  -0.503  -6.126  0.00  0.00    +0.000 HD
ENDBRANCH  14  47
TORSDOF 6
