
 OpenBabel01112422503D

 54 58  0  0  1  0  0  0  0  0999 V2000
    1.2711   -0.1071   -0.1543 C   0  0  0  0  0  0  0  0  0  0  0  0
    2.4574    0.0558   -0.2559 C   0  0  0  0  0  0  0  0  0  0  0  0
    3.8800    0.2304   -0.3578 C   0  0  0  0  0  0  0  0  0  0  0  0
    4.5281   -0.9717   -0.3490 N   0  0  0  0  0  0  0  0  0  0  0  0
    5.8885   -0.9409   -0.3298 C   0  0  0  0  0  0  0  0  0  0  0  0
    6.6302    0.2229   -0.3801 C   0  0  0  0  0  0  0  0  0  0  0  0
    7.9894    0.3282   -0.3487 O   0  0  0  0  0  0  0  0  0  0  0  0
    8.7260   -0.8437   -0.7196 C   0  0  0  0  0  0  0  0  0  0  0  0
   10.1661   -0.4347   -1.1116 C   0  0  1  0  0  0  0  0  0  0  0  0
   10.1318    0.5519   -2.2133 N   0  0  0  0  0  0  0  0  0  0  0  0
   10.9353    0.0947    0.1261 C   0  0  0  0  0  0  0  0  0  0  0  0
   12.4111    0.2894   -0.0622 C   0  0  0  0  0  0  0  0  0  0  0  0
   13.2586   -0.5329   -0.7844 C   0  0  0  0  0  0  0  0  0  0  0  0
   14.4557    0.1213   -0.8299 N   0  0  0  0  0  0  0  0  0  0  0  0
   14.5754    0.8677    0.3128 C   0  0  0  0  0  0  0  0  0  0  0  0
   15.6938    1.2805    1.0392 C   0  0  0  0  0  0  0  0  0  0  0  0
   15.4577    2.1380    2.1143 C   0  0  0  0  0  0  0  0  0  0  0  0
   14.1844    2.6619    2.3432 C   0  0  0  0  0  0  0  0  0  0  0  0
   13.0777    2.2315    1.5945 C   0  0  0  0  0  0  0  0  0  0  0  0
   13.2655    1.2172    0.6373 C   0  0  0  0  0  0  0  0  0  0  0  0
    5.9291    1.4312   -0.4005 C   0  0  0  0  0  0  0  0  0  0  0  0
    4.5014    1.4756   -0.3545 C   0  0  0  0  0  0  0  0  0  0  0  0
    3.8249    2.7708   -0.0927 C   0  0  0  0  0  0  0  0  0  0  0  0
    4.3371    3.6131    0.9096 C   0  0  0  0  0  0  0  0  0  0  0  0
    3.5845    4.6591    1.4367 C   0  0  0  0  0  0  0  0  0  0  0  0
    2.3239    4.9477    0.9133 C   0  0  0  0  0  0  0  0  0  0  0  0
    1.4891    5.8998    1.4998 C   0  0  0  0  0  0  0  0  0  0  0  0
    0.3484    6.3540    0.9417 N   0  0  0  0  0  0  0  0  0  0  0  0
    0.0129    5.8088   -0.2462 C   0  0  0  0  0  0  0  0  0  0  0  0
    0.6984    4.7585   -0.8435 C   0  0  0  0  0  0  0  0  0  0  0  0
    1.8744    4.2808   -0.2374 C   0  0  0  0  0  0  0  0  0  0  0  0
    2.6181    3.1674   -0.7100 C   0  0  0  0  0  0  0  0  0  0  0  0
    0.2170   -0.2555   -0.0723 H   0  0  0  0  0  0  0  0  0  0  0  0
    6.3419   -1.9244   -0.2420 H   0  0  0  0  0  0  0  0  0  0  0  0
    8.2566   -1.3336   -1.5822 H   0  0  0  0  0  0  0  0  0  0  0  0
    8.7500   -1.5493    0.1201 H   0  0  0  0  0  0  0  0  0  0  0  0
   10.6648   -1.3337   -1.4921 H   0  0  0  0  0  0  0  0  0  0  0  0
    9.6839    1.4019   -1.8652 H   0  0  0  0  0  0  0  0  0  0  0  0
    9.5173    0.2123   -2.9530 H   0  0  0  0  0  0  0  0  0  0  0  0
   10.8313   -0.6405    0.9354 H   0  0  0  0  0  0  0  0  0  0  0  0
   10.4813    1.0254    0.4856 H   0  0  0  0  0  0  0  0  0  0  0  0
   13.0908   -1.4372   -1.3526 H   0  0  0  0  0  0  0  0  0  0  0  0
   15.0067    0.2578   -1.6652 H   0  0  0  0  0  0  0  0  0  0  0  0
   16.6836    0.8853    0.8356 H   0  0  0  0  0  0  0  0  0  0  0  0
   16.2792    2.4050    2.7753 H   0  0  0  0  0  0  0  0  0  0  0  0
   14.0384    3.3764    3.1493 H   0  0  0  0  0  0  0  0  0  0  0  0
   12.0879    2.6180    1.8113 H   0  0  0  0  0  0  0  0  0  0  0  0
    6.5069    2.3528   -0.4095 H   0  0  0  0  0  0  0  0  0  0  0  0
    5.3122    3.4207    1.3523 H   0  0  0  0  0  0  0  0  0  0  0  0
    3.9957    5.2465    2.2523 H   0  0  0  0  0  0  0  0  0  0  0  0
    1.7205    6.3220    2.4744 H   0  0  0  0  0  0  0  0  0  0  0  0
   -0.8541    6.2634   -0.7206 H   0  0  0  0  0  0  0  0  0  0  0  0
    0.3298    4.3449   -1.7752 H   0  0  0  0  0  0  0  0  0  0  0  0
    2.2141    2.5824   -1.5338 H   0  0  0  0  0  0  0  0  0  0  0  0
  1  2  3  0  0  0  0
  1 33  1  0  0  0  0
  2  3  1  0  0  0  0
  3  4  1  0  0  0  0
  3 22  2  0  0  0  0
  4  5  2  0  0  0  0
  5  6  1  0  0  0  0
  5 34  1  0  0  0  0
  6  7  1  0  0  0  0
  6 21  2  0  0  0  0
  7  8  1  0  0  0  0
  8  9  1  0  0  0  0
  8 35  1  0  0  0  0
  8 36  1  0  0  0  0
  9 10  1  0  0  0  0
  9 11  1  0  0  0  0
  9 37  1  6  0  0  0
 10 38  1  0  0  0  0
 10 39  1  0  0  0  0
 11 12  1  0  0  0  0
 11 40  1  0  0  0  0
 11 41  1  0  0  0  0
 12 13  2  0  0  0  0
 12 20  1  0  0  0  0
 13 14  1  0  0  0  0
 13 42  1  0  0  0  0
 14 15  1  0  0  0  0
 14 43  1  0  0  0  0
 15 16  1  0  0  0  0
 15 20  2  0  0  0  0
 16 17  2  0  0  0  0
 16 44  1  0  0  0  0
 17 18  1  0  0  0  0
 17 45  1  0  0  0  0
 18 19  2  0  0  0  0
 18 46  1  0  0  0  0
 19 20  1  0  0  0  0
 19 47  1  0  0  0  0
 21 22  1  0  0  0  0
 21 48  1  0  0  0  0
 22 23  1  0  0  0  0
 23 24  1  0  0  0  0
 23 32  2  0  0  0  0
 24 25  2  0  0  0  0
 24 49  1  0  0  0  0
 25 26  1  0  0  0  0
 25 50  1  0  0  0  0
 26 27  1  0  0  0  0
 26 31  2  0  0  0  0
 27 28  2  0  0  0  0
 27 51  1  0  0  0  0
 28 29  1  0  0  0  0
 29 30  2  0  0  0  0
 29 52  1  0  0  0  0
 30 31  1  0  0  0  0
 30 53  1  0  0  0  0
 31 32  1  0  0  0  0
 32 54  1  0  0  0  0
M  END
$$$$
