MODEL 1
REMARK VINA RESULT:    -7.293      0.000      0.000
REMARK INTER + INTRA:          -9.826
REMARK INTER:                  -9.638
REMARK INTRA:                  -0.188
REMARK UNBOUND:                -0.188
REMARK  Name = 
REMARK  8 active torsions:
REMARK  status: ('A' for Active; 'I' for Inactive)
REMARK    1  A    between atoms: C_1  and  C_2
REMARK    2  A    between atoms: C_2  and  N_3
REMARK    3  A    between atoms: N_3  and  C_4
REMARK    4  A    between atoms: N_3  and  C_5
REMARK    5  A    between atoms: N_3  and  C_6
REMARK    6  A    between atoms: C_10  and  C_11
REMARK    7  A    between atoms: C_12  and  O_13
REMARK    8  A    between atoms: O_13  and  C_14
REMARK                            x       y       z     vdW  Elec       q    Type
REMARK                         _______ _______ _______ _____ _____    ______ ____
ROOT
ATOM      1  C   UNL     1     -10.307  -0.400  17.983  0.00  0.00    +0.000 C 
ATOM      2  C   UNL     1      -9.666  -1.628  18.563  0.00  0.00    +0.000 C 
ATOM      3  C   UNL     1     -10.538  -2.157  19.694  0.00  0.00    +0.000 C 
ATOM      4  O   UNL     1     -11.586  -1.292  20.106  0.00  0.00    +0.000 OA
ATOM      5  C   UNL     1     -11.270   0.096  20.317  0.00  0.00    +0.000 C 
ATOM      6  C   UNL     1     -10.486   0.698  19.077  0.00  0.00    +0.000 C 
ATOM      7  N   UNL     1     -10.642   0.246  21.612  0.00  0.00    +0.000 N 
ATOM      8  C   UNL     1     -10.500   1.411  22.417  0.00  0.00    +0.000 A 
ATOM      9  C   UNL     1     -11.073   2.691  22.289  0.00  0.00    +0.000 A 
ATOM     10  C   UNL     1     -10.543   3.765  23.012  0.00  0.00    +0.000 A 
ATOM     11  C   UNL     1      -9.461   3.589  23.860  0.00  0.00    +0.000 A 
ATOM     12  C   UNL     1      -8.985   2.304  24.135  0.00  0.00    +0.000 A 
ATOM     13  C   UNL     1      -9.541   1.183  23.476  0.00  0.00    +0.000 A 
ATOM     14  C   UNL     1      -9.314  -0.199  23.519  0.00  0.00    +0.000 A 
ATOM     15  C   UNL     1      -8.653  -0.924  24.528  0.00  0.00    +0.000 A 
ATOM     16  C   UNL     1      -8.119  -2.158  24.064  0.00  0.00    +0.000 A 
ATOM     17  C   UNL     1      -8.387  -2.381  22.709  0.00  0.00    +0.000 A 
ATOM     18  C   UNL     1      -7.716  -3.213  21.780  0.00  0.00    +0.000 A 
ATOM     19  C   UNL     1      -6.400  -3.681  21.580  0.00  0.00    +0.000 A 
ATOM     20  C   UNL     1      -6.102  -4.448  20.443  0.00  0.00    +0.000 A 
ATOM     21  C   UNL     1      -7.112  -4.896  19.598  0.00  0.00    +0.000 A 
ATOM     22  C   UNL     1      -8.418  -4.444  19.752  0.00  0.00    +0.000 A 
ATOM     23  C   UNL     1      -8.662  -3.463  20.729  0.00  0.00    +0.000 A 
ATOM     24  N   UNL     1      -9.716  -2.536  20.799  0.00  0.00    +0.000 N 
ATOM     25  C   UNL     1      -9.404  -1.864  21.918  0.00  0.00    +0.000 A 
ATOM     26  C   UNL     1      -9.873  -0.628  22.314  0.00  0.00    +0.000 A 
ATOM     27  C   UNL     1      -8.301  -3.163  25.089  0.00  0.00    +0.000 C 
ATOM     28  O   UNL     1      -8.175  -4.380  25.083  0.00  0.00    +0.000 OA
ATOM     29  N   UNL     1      -8.937  -2.477  26.124  0.00  0.00    +0.000 N 
ATOM     30  C   UNL     1      -9.183  -1.058  25.901  0.00  0.00    +0.000 C 
ATOM     31  H   UNL     1     -11.313  -0.702  17.664  0.00  0.00    +0.000 HD
ATOM     32  H   UNL     1      -8.654  -1.400  18.915  0.00  0.00    +0.000 HD
ATOM     33  H   UNL     1      -9.538  -2.430  17.830  0.00  0.00    +0.000 HD
ATOM     34  H   UNL     1     -11.041  -3.070  19.358  0.00  0.00    +0.000 HD
ATOM     35  H   UNL     1     -11.197   1.397  18.634  0.00  0.00    +0.000 HD
ATOM     36  H   UNL     1     -11.904   2.895  21.628  0.00  0.00    +0.000 HD
ATOM     37  H   UNL     1     -10.967   4.759  22.878  0.00  0.00    +0.000 HD
ATOM     38  H   UNL     1      -8.994   4.455  24.325  0.00  0.00    +0.000 HD
ATOM     39  H   UNL     1      -8.131   2.186  24.800  0.00  0.00    +0.000 HD
ATOM     40  H   UNL     1      -5.592  -3.334  22.219  0.00  0.00    +0.000 HD
ATOM     41  H   UNL     1      -5.070  -4.710  20.222  0.00  0.00    +0.000 HD
ATOM     42  H   UNL     1      -6.877  -5.580  18.786  0.00  0.00    +0.000 HD
ATOM     43  H   UNL     1      -9.200  -4.784  19.080  0.00  0.00    +0.000 HD
ATOM     44  H   UNL     1      -9.514  -3.034  26.742  0.00  0.00    +0.000 HD
ATOM     45  H   UNL     1     -10.264  -0.879  25.928  0.00  0.00    +0.000 HD
ATOM     46  H   UNL     1      -8.651  -0.471  26.647  0.00  0.00    +0.000 HD
ENDROOT
BRANCH   5  47
ATOM     47  C   UNL     1     -12.706   0.684  20.329  0.00  0.00    +0.000 C 
ATOM     48  H   UNL     1     -13.284   0.338  19.462  0.00  0.00    +0.000 HD
ATOM     49  H   UNL     1     -12.679   1.781  20.267  0.00  0.00    +0.000 HD
ATOM     50  H   UNL     1     -13.263   0.439  21.236  0.00  0.00    +0.000 HD
ENDBRANCH   5  47
BRANCH   1  51
ATOM     51  N   UNL     1      -9.612   0.047  16.645  0.00  0.00    +0.000 N 
BRANCH  51  52
ATOM     52  C   UNL     1      -9.642  -1.026  15.543  0.00  0.00    +0.000 C 
ATOM     53  H   UNL     1      -9.760  -0.519  14.581  0.00  0.00    +0.000 HD
ATOM     54  H   UNL     1      -8.704  -1.571  15.536  0.00  0.00    +0.000 HD
ATOM     55  H   UNL     1     -10.493  -1.693  15.708  0.00  0.00    +0.000 HD
ENDBRANCH  51  52
BRANCH  51  56
ATOM     56  C   UNL     1     -10.342   1.273  16.058  0.00  0.00    +0.000 C 
ATOM     57  H   UNL     1      -9.841   1.563  15.130  0.00  0.00    +0.000 HD
ATOM     58  H   UNL     1     -10.315   2.085  16.788  0.00  0.00    +0.000 HD
ATOM     59  H   UNL     1     -11.378   0.998  15.841  0.00  0.00    +0.000 HD
ENDBRANCH  51  56
BRANCH  51  60
ATOM     60  C   UNL     1      -8.129   0.412  16.897  0.00  0.00    +0.000 C 
ATOM     61  H   UNL     1      -8.103   1.393  17.381  0.00  0.00    +0.000 HD
ATOM     62  H   UNL     1      -7.735  -0.323  17.607  0.00  0.00    +0.000 HD
BRANCH  60  63
ATOM     63  C   UNL     1      -7.294   0.407  15.622  0.00  0.00    +0.000 C 
ATOM     64  H   UNL     1      -6.226   0.497  15.833  0.00  0.00    +0.000 HD
ATOM     65  H   UNL     1      -7.583   1.257  14.996  0.00  0.00    +0.000 HD
ATOM     66  H   UNL     1      -7.440  -0.491  15.015  0.00  0.00    +0.000 HD
ENDBRANCH  60  63
ENDBRANCH  51  60
ENDBRANCH   1  51
BRANCH   6  67
ATOM     67  O   UNL     1      -9.366   1.577  19.245  0.00  0.00    +0.000 OA
BRANCH  67  68
ATOM     68  C   UNL     1      -9.482   2.984  19.123  0.00  0.00    +0.000 C 
ATOM     69  H   UNL     1      -9.766   3.485  20.044  0.00  0.00    +0.000 HD
ATOM     70  H   UNL     1     -10.166   3.228  18.308  0.00  0.00    +0.000 HD
ATOM     71  H   UNL     1      -8.511   3.382  18.811  0.00  0.00    +0.000 HD
ENDBRANCH  67  68
ENDBRANCH   6  67
TORSDOF 8
ENDMDL
MODEL 2
REMARK VINA RESULT:    -7.166      2.140      3.264
REMARK INTER + INTRA:          -9.658
REMARK INTER:                  -9.362
REMARK INTRA:                  -0.296
REMARK UNBOUND:                -0.188
REMARK  Name = 
REMARK  8 active torsions:
REMARK  status: ('A' for Active; 'I' for Inactive)
REMARK    1  A    between atoms: C_1  and  C_2
REMARK    2  A    between atoms: C_2  and  N_3
REMARK    3  A    between atoms: N_3  and  C_4
REMARK    4  A    between atoms: N_3  and  C_5
REMARK    5  A    between atoms: N_3  and  C_6
REMARK    6  A    between atoms: C_10  and  C_11
REMARK    7  A    between atoms: C_12  and  O_13
REMARK    8  A    between atoms: O_13  and  C_14
REMARK                            x       y       z     vdW  Elec       q    Type
REMARK                         _______ _______ _______ _____ _____    ______ ____
ROOT
ATOM      1  C   UNL     1     -11.983   2.743  19.764  0.00  0.00    +0.000 C 
ATOM      2  C   UNL     1     -11.747   1.261  19.800  0.00  0.00    +0.000 C 
ATOM      3  C   UNL     1     -12.350   0.693  21.078  0.00  0.00    +0.000 C 
ATOM      4  O   UNL     1     -12.767   1.658  22.032  0.00  0.00    +0.000 OA
ATOM      5  C   UNL     1     -11.868   2.739  22.335  0.00  0.00    +0.000 C 
ATOM      6  C   UNL     1     -11.345   3.435  21.009  0.00  0.00    +0.000 C 
ATOM      7  N   UNL     1     -10.858   2.269  23.258  0.00  0.00    +0.000 N 
ATOM      8  C   UNL     1     -10.009   3.014  24.124  0.00  0.00    +0.000 A 
ATOM      9  C   UNL     1     -10.022   4.378  24.473  0.00  0.00    +0.000 A 
ATOM     10  C   UNL     1      -8.904   4.949  25.088  0.00  0.00    +0.000 A 
ATOM     11  C   UNL     1      -7.778   4.190  25.367  0.00  0.00    +0.000 A 
ATOM     12  C   UNL     1      -7.803   2.804  25.190  0.00  0.00    +0.000 A 
ATOM     13  C   UNL     1      -8.944   2.179  24.633  0.00  0.00    +0.000 A 
ATOM     14  C   UNL     1      -9.295   0.855  24.334  0.00  0.00    +0.000 A 
ATOM     15  C   UNL     1      -8.702  -0.319  24.834  0.00  0.00    +0.000 A 
ATOM     16  C   UNL     1      -8.891  -1.441  23.981  0.00  0.00    +0.000 A 
ATOM     17  C   UNL     1      -9.641  -1.127  22.843  0.00  0.00    +0.000 A 
ATOM     18  C   UNL     1      -9.697  -1.783  21.589  0.00  0.00    +0.000 A 
ATOM     19  C   UNL     1      -8.821  -2.542  20.783  0.00  0.00    +0.000 A 
ATOM     20  C   UNL     1      -9.237  -2.959  19.509  0.00  0.00    +0.000 A 
ATOM     21  C   UNL     1     -10.552  -2.782  19.092  0.00  0.00    +0.000 A 
ATOM     22  C   UNL     1     -11.439  -2.026  19.850  0.00  0.00    +0.000 A 
ATOM     23  C   UNL     1     -10.942  -1.384  20.997  0.00  0.00    +0.000 A 
ATOM     24  N   UNL     1     -11.449  -0.251  21.659  0.00  0.00    +0.000 N 
ATOM     25  C   UNL     1     -10.554  -0.100  22.648  0.00  0.00    +0.000 A 
ATOM     26  C   UNL     1     -10.330   1.026  23.413  0.00  0.00    +0.000 A 
ATOM     27  C   UNL     1      -9.129  -2.614  24.795  0.00  0.00    +0.000 C 
ATOM     28  O   UNL     1      -9.516  -3.743  24.523  0.00  0.00    +0.000 OA
ATOM     29  N   UNL     1      -9.068  -2.134  26.104  0.00  0.00    +0.000 N 
ATOM     30  C   UNL     1      -8.775  -0.715  26.256  0.00  0.00    +0.000 C 
ATOM     31  H   UNL     1     -13.068   2.882  19.842  0.00  0.00    +0.000 HD
ATOM     32  H   UNL     1     -10.675   1.043  19.737  0.00  0.00    +0.000 HD
ATOM     33  H   UNL     1     -12.194   0.736  18.951  0.00  0.00    +0.000 HD
ATOM     34  H   UNL     1     -13.258   0.135  20.825  0.00  0.00    +0.000 HD
ATOM     35  H   UNL     1     -11.812   4.421  21.030  0.00  0.00    +0.000 HD
ATOM     36  H   UNL     1     -10.862   5.026  24.261  0.00  0.00    +0.000 HD
ATOM     37  H   UNL     1      -8.907   6.013  25.319  0.00  0.00    +0.000 HD
ATOM     38  H   UNL     1      -6.879   4.676  25.742  0.00  0.00    +0.000 HD
ATOM     39  H   UNL     1      -6.908   2.225  25.409  0.00  0.00    +0.000 HD
ATOM     40  H   UNL     1      -7.785  -2.681  21.081  0.00  0.00    +0.000 HD
ATOM     41  H   UNL     1      -8.527  -3.439  18.838  0.00  0.00    +0.000 HD
ATOM     42  H   UNL     1     -10.885  -3.209  18.150  0.00  0.00    +0.000 HD
ATOM     43  H   UNL     1     -12.462  -1.878  19.513  0.00  0.00    +0.000 HD
ATOM     44  H   UNL     1      -9.594  -2.654  26.796  0.00  0.00    +0.000 HD
ATOM     45  H   UNL     1      -9.622  -0.231  26.759  0.00  0.00    +0.000 HD
ATOM     46  H   UNL     1      -7.845  -0.588  26.806  0.00  0.00    +0.000 HD
ENDROOT
BRANCH   5  47
ATOM     47  C   UNL     1     -12.858   3.702  23.042  0.00  0.00    +0.000 C 
ATOM     48  H   UNL     1     -13.828   3.219  23.214  0.00  0.00    +0.000 HD
ATOM     49  H   UNL     1     -13.055   4.586  22.419  0.00  0.00    +0.000 HD
ATOM     50  H   UNL     1     -12.484   4.076  23.998  0.00  0.00    +0.000 HD
ENDBRANCH   5  47
BRANCH   1  51
ATOM     51  N   UNL     1     -11.629   3.359  18.360  0.00  0.00    +0.000 N 
BRANCH  51  52
ATOM     52  C   UNL     1     -10.163   3.151  17.945  0.00  0.00    +0.000 C 
ATOM     53  H   UNL     1      -9.528   3.512  18.759  0.00  0.00    +0.000 HD
ATOM     54  H   UNL     1      -9.970   2.095  17.796  0.00  0.00    +0.000 HD
ATOM     55  H   UNL     1      -9.956   3.729  17.040  0.00  0.00    +0.000 HD
ENDBRANCH  51  52
BRANCH  51  56
ATOM     56  C   UNL     1     -12.477   2.682  17.262  0.00  0.00    +0.000 C 
ATOM     57  H   UNL     1     -13.501   2.580  17.630  0.00  0.00    +0.000 HD
ATOM     58  H   UNL     1     -12.044   1.706  17.032  0.00  0.00    +0.000 HD
ATOM     59  H   UNL     1     -12.472   3.314  16.370  0.00  0.00    +0.000 HD
ENDBRANCH  51  56
BRANCH  51  60
ATOM     60  C   UNL     1     -11.905   4.882  18.348  0.00  0.00    +0.000 C 
ATOM     61  H   UNL     1     -11.329   5.332  19.161  0.00  0.00    +0.000 HD
ATOM     62  H   UNL     1     -11.512   5.271  17.402  0.00  0.00    +0.000 HD
BRANCH  60  63
ATOM     63  C   UNL     1     -13.387   5.215  18.475  0.00  0.00    +0.000 C 
ATOM     64  H   UNL     1     -13.951   4.396  18.928  0.00  0.00    +0.000 HD
ATOM     65  H   UNL     1     -13.804   5.397  17.480  0.00  0.00    +0.000 HD
ATOM     66  H   UNL     1     -13.577   6.117  19.063  0.00  0.00    +0.000 HD
ENDBRANCH  60  63
ENDBRANCH  51  60
ENDBRANCH   1  51
BRANCH   6  67
ATOM     67  O   UNL     1      -9.975   3.826  20.851  0.00  0.00    +0.000 OA
BRANCH  67  68
ATOM     68  C   UNL     1      -9.542   5.163  21.040  0.00  0.00    +0.000 C 
ATOM     69  H   UNL     1      -9.456   5.456  22.082  0.00  0.00    +0.000 HD
ATOM     70  H   UNL     1     -10.195   5.842  20.487  0.00  0.00    +0.000 HD
ATOM     71  H   UNL     1      -8.556   5.273  20.578  0.00  0.00    +0.000 HD
ENDBRANCH  67  68
ENDBRANCH   6  67
TORSDOF 8
ENDMDL
MODEL 3
REMARK VINA RESULT:    -6.822      2.777      6.924
REMARK INTER + INTRA:          -9.204
REMARK INTER:                  -8.997
REMARK INTRA:                  -0.207
REMARK UNBOUND:                -0.188
REMARK  Name = 
REMARK  8 active torsions:
REMARK  status: ('A' for Active; 'I' for Inactive)
REMARK    1  A    between atoms: C_1  and  C_2
REMARK    2  A    between atoms: C_2  and  N_3
REMARK    3  A    between atoms: N_3  and  C_4
REMARK    4  A    between atoms: N_3  and  C_5
REMARK    5  A    between atoms: N_3  and  C_6
REMARK    6  A    between atoms: C_10  and  C_11
REMARK    7  A    between atoms: C_12  and  O_13
REMARK    8  A    between atoms: O_13  and  C_14
REMARK                            x       y       z     vdW  Elec       q    Type
REMARK                         _______ _______ _______ _____ _____    ______ ____
ROOT
ATOM      1  C   UNL     1      -9.810  -0.563  21.165  0.00  0.00    +0.000 C 
ATOM      2  C   UNL     1      -9.583  -1.838  20.405  0.00  0.00    +0.000 C 
ATOM      3  C   UNL     1      -8.977  -1.507  19.048  0.00  0.00    +0.000 C 
ATOM      4  O   UNL     1      -8.981  -0.129  18.703  0.00  0.00    +0.000 OA
ATOM      5  C   UNL     1     -10.196   0.614  18.909  0.00  0.00    +0.000 C 
ATOM      6  C   UNL     1     -10.760   0.390  20.374  0.00  0.00    +0.000 C 
ATOM      7  N   UNL     1     -11.107   0.342  17.818  0.00  0.00    +0.000 N 
ATOM      8  C   UNL     1     -12.232   1.091  17.373  0.00  0.00    +0.000 A 
ATOM      9  C   UNL     1     -12.674   2.380  17.727  0.00  0.00    +0.000 A 
ATOM     10  C   UNL     1     -13.973   2.783  17.401  0.00  0.00    +0.000 A 
ATOM     11  C   UNL     1     -14.836   1.931  16.727  0.00  0.00    +0.000 A 
ATOM     12  C   UNL     1     -14.368   0.718  16.216  0.00  0.00    +0.000 A 
ATOM     13  C   UNL     1     -13.038   0.306  16.465  0.00  0.00    +0.000 A 
ATOM     14  C   UNL     1     -12.268  -0.809  16.108  0.00  0.00    +0.000 A 
ATOM     15  C   UNL     1     -12.524  -1.726  15.070  0.00  0.00    +0.000 A 
ATOM     16  C   UNL     1     -11.909  -2.991  15.286  0.00  0.00    +0.000 A 
ATOM     17  C   UNL     1     -11.173  -3.032  16.475  0.00  0.00    +0.000 A 
ATOM     18  C   UNL     1     -10.783  -4.145  17.258  0.00  0.00    +0.000 A 
ATOM     19  C   UNL     1     -11.292  -5.430  17.547  0.00  0.00    +0.000 A 
ATOM     20  C   UNL     1     -10.633  -6.242  18.483  0.00  0.00    +0.000 A 
ATOM     21  C   UNL     1      -9.398  -5.874  19.006  0.00  0.00    +0.000 A 
ATOM     22  C   UNL     1      -8.872  -4.610  18.758  0.00  0.00    +0.000 A 
ATOM     23  C   UNL     1      -9.664  -3.700  18.038  0.00  0.00    +0.000 A 
ATOM     24  N   UNL     1      -9.603  -2.294  18.034  0.00  0.00    +0.000 N 
ATOM     25  C   UNL     1     -10.602  -1.989  17.192  0.00  0.00    +0.000 A 
ATOM     26  C   UNL     1     -11.242  -0.774  17.053  0.00  0.00    +0.000 A 
ATOM     27  C   UNL     1     -11.412  -3.492  14.022  0.00  0.00    +0.000 C 
ATOM     28  O   UNL     1     -10.671  -4.423  13.737  0.00  0.00    +0.000 OA
ATOM     29  N   UNL     1     -11.758  -2.497  13.106  0.00  0.00    +0.000 N 
ATOM     30  C   UNL     1     -12.486  -1.354  13.641  0.00  0.00    +0.000 C 
ATOM     31  H   UNL     1      -8.834  -0.065  21.224  0.00  0.00    +0.000 HD
ATOM     32  H   UNL     1     -10.523  -2.390  20.295  0.00  0.00    +0.000 HD
ATOM     33  H   UNL     1      -8.907  -2.528  20.919  0.00  0.00    +0.000 HD
ATOM     34  H   UNL     1      -7.920  -1.794  19.051  0.00  0.00    +0.000 HD
ATOM     35  H   UNL     1     -10.623   1.358  20.857  0.00  0.00    +0.000 HD
ATOM     36  H   UNL     1     -12.056   3.081  18.271  0.00  0.00    +0.000 HD
ATOM     37  H   UNL     1     -14.322   3.766  17.713  0.00  0.00    +0.000 HD
ATOM     38  H   UNL     1     -15.876   2.220  16.584  0.00  0.00    +0.000 HD
ATOM     39  H   UNL     1     -15.062   0.060  15.694  0.00  0.00    +0.000 HD
ATOM     40  H   UNL     1     -12.261  -5.735  17.161  0.00  0.00    +0.000 HD
ATOM     41  H   UNL     1     -11.084  -7.181  18.798  0.00  0.00    +0.000 HD
ATOM     42  H   UNL     1      -8.850  -6.563  19.643  0.00  0.00    +0.000 HD
ATOM     43  H   UNL     1      -7.914  -4.322  19.182  0.00  0.00    +0.000 HD
ATOM     44  H   UNL     1     -11.177  -2.429  12.280  0.00  0.00    +0.000 HD
ATOM     45  H   UNL     1     -11.889  -0.449  13.482  0.00  0.00    +0.000 HD
ATOM     46  H   UNL     1     -13.465  -1.288  13.169  0.00  0.00    +0.000 HD
ENDROOT
BRANCH   5  47
ATOM     47  C   UNL     1      -9.631   2.055  18.810  0.00  0.00    +0.000 C 
ATOM     48  H   UNL     1      -9.060   2.196  17.884  0.00  0.00    +0.000 HD
ATOM     49  H   UNL     1      -8.937   2.260  19.638  0.00  0.00    +0.000 HD
ATOM     50  H   UNL     1     -10.406   2.824  18.859  0.00  0.00    +0.000 HD
ENDBRANCH   5  47
BRANCH   1  51
ATOM     51  N   UNL     1     -10.181  -0.836  22.669  0.00  0.00    +0.000 N 
BRANCH  51  52
ATOM     52  C   UNL     1      -9.056  -1.511  23.470  0.00  0.00    +0.000 C 
ATOM     53  H   UNL     1      -8.880  -2.501  23.038  0.00  0.00    +0.000 HD
ATOM     54  H   UNL     1      -8.145  -0.929  23.387  0.00  0.00    +0.000 HD
ATOM     55  H   UNL     1      -9.367  -1.622  24.513  0.00  0.00    +0.000 HD
ENDBRANCH  51  52
BRANCH  51  56
ATOM     56  C   UNL     1     -10.468   0.498  23.389  0.00  0.00    +0.000 C 
ATOM     57  H   UNL     1     -11.489   0.468  23.779  0.00  0.00    +0.000 HD
ATOM     58  H   UNL     1     -10.344   1.318  22.678  0.00  0.00    +0.000 HD
ATOM     59  H   UNL     1      -9.766   0.611  24.219  0.00  0.00    +0.000 HD
ENDBRANCH  51  56
BRANCH  51  60
ATOM     60  C   UNL     1     -11.430  -1.745  22.766  0.00  0.00    +0.000 C 
ATOM     61  H   UNL     1     -12.315  -1.106  22.697  0.00  0.00    +0.000 HD
ATOM     62  H   UNL     1     -11.419  -2.399  21.886  0.00  0.00    +0.000 HD
BRANCH  60  63
ATOM     63  C   UNL     1     -11.454  -2.582  24.039  0.00  0.00    +0.000 C 
ATOM     64  H   UNL     1     -11.271  -1.975  24.929  0.00  0.00    +0.000 HD
ATOM     65  H   UNL     1     -10.671  -3.343  23.988  0.00  0.00    +0.000 HD
ATOM     66  H   UNL     1     -12.398  -3.115  24.187  0.00  0.00    +0.000 HD
ENDBRANCH  60  63
ENDBRANCH  51  60
ENDBRANCH   1  51
BRANCH   6  67
ATOM     67  O   UNL     1     -12.158   0.198  20.624  0.00  0.00    +0.000 OA
BRANCH  67  68
ATOM     68  C   UNL     1     -12.999   1.248  21.071  0.00  0.00    +0.000 C 
ATOM     69  H   UNL     1     -13.609   0.989  21.931  0.00  0.00    +0.000 HD
ATOM     70  H   UNL     1     -13.612   1.607  20.241  0.00  0.00    +0.000 HD
ATOM     71  H   UNL     1     -12.369   2.098  21.351  0.00  0.00    +0.000 HD
ENDBRANCH  67  68
ENDBRANCH   6  67
TORSDOF 8
ENDMDL
MODEL 4
REMARK VINA RESULT:    -6.820      3.101      6.002
REMARK INTER + INTRA:          -9.200
REMARK INTER:                  -9.003
REMARK INTRA:                  -0.197
REMARK UNBOUND:                -0.188
REMARK  Name = 
REMARK  8 active torsions:
REMARK  status: ('A' for Active; 'I' for Inactive)
REMARK    1  A    between atoms: C_1  and  C_2
REMARK    2  A    between atoms: C_2  and  N_3
REMARK    3  A    between atoms: N_3  and  C_4
REMARK    4  A    between atoms: N_3  and  C_5
REMARK    5  A    between atoms: N_3  and  C_6
REMARK    6  A    between atoms: C_10  and  C_11
REMARK    7  A    between atoms: C_12  and  O_13
REMARK    8  A    between atoms: O_13  and  C_14
REMARK                            x       y       z     vdW  Elec       q    Type
REMARK                         _______ _______ _______ _____ _____    ______ ____
ROOT
ATOM      1  C   UNL     1     -11.628  -0.581  17.536  0.00  0.00    +0.000 C 
ATOM      2  C   UNL     1     -11.637  -1.735  16.575  0.00  0.00    +0.000 C 
ATOM      3  C   UNL     1     -12.144  -2.977  17.295  0.00  0.00    +0.000 C 
ATOM      4  O   UNL     1     -12.261  -2.855  18.705  0.00  0.00    +0.000 OA
ATOM      5  C   UNL     1     -11.162  -2.267  19.424  0.00  0.00    +0.000 C 
ATOM      6  C   UNL     1     -10.719  -0.894  18.766  0.00  0.00    +0.000 C 
ATOM      7  N   UNL     1     -10.127  -3.262  19.600  0.00  0.00    +0.000 N 
ATOM      8  C   UNL     1      -9.055  -3.294  20.536  0.00  0.00    +0.000 A 
ATOM      9  C   UNL     1      -8.795  -2.490  21.661  0.00  0.00    +0.000 A 
ATOM     10  C   UNL     1      -7.524  -2.500  22.244  0.00  0.00    +0.000 A 
ATOM     11  C   UNL     1      -6.511  -3.297  21.733  0.00  0.00    +0.000 A 
ATOM     12  C   UNL     1      -6.789  -4.228  20.729  0.00  0.00    +0.000 A 
ATOM     13  C   UNL     1      -8.083  -4.297  20.160  0.00  0.00    +0.000 A 
ATOM     14  C   UNL     1      -8.686  -5.090  19.175  0.00  0.00    +0.000 A 
ATOM     15  C   UNL     1      -8.231  -6.327  18.678  0.00  0.00    +0.000 A 
ATOM     16  C   UNL     1      -8.719  -6.612  17.373  0.00  0.00    +0.000 A 
ATOM     17  C   UNL     1      -9.556  -5.604  16.883  0.00  0.00    +0.000 A 
ATOM     18  C   UNL     1      -9.892  -5.279  15.546  0.00  0.00    +0.000 A 
ATOM     19  C   UNL     1      -9.273  -5.359  14.281  0.00  0.00    +0.000 A 
ATOM     20  C   UNL     1      -9.923  -4.827  13.156  0.00  0.00    +0.000 A 
ATOM     21  C   UNL     1     -11.236  -4.374  13.236  0.00  0.00    +0.000 A 
ATOM     22  C   UNL     1     -11.873  -4.265  14.467  0.00  0.00    +0.000 A 
ATOM     23  C   UNL     1     -11.123  -4.546  15.622  0.00  0.00    +0.000 A 
ATOM     24  N   UNL     1     -11.340  -4.103  16.939  0.00  0.00    +0.000 N 
ATOM     25  C   UNL     1     -10.305  -4.667  17.581  0.00  0.00    +0.000 A 
ATOM     26  C   UNL     1      -9.795  -4.323  18.816  0.00  0.00    +0.000 A 
ATOM     27  C   UNL     1      -9.033  -8.022  17.288  0.00  0.00    +0.000 C 
ATOM     28  O   UNL     1      -9.635  -8.684  16.453  0.00  0.00    +0.000 OA
ATOM     29  N   UNL     1      -8.714  -8.515  18.553  0.00  0.00    +0.000 N 
ATOM     30  C   UNL     1      -8.173  -7.552  19.503  0.00  0.00    +0.000 C 
ATOM     31  H   UNL     1     -12.654  -0.488  17.912  0.00  0.00    +0.000 HD
ATOM     32  H   UNL     1     -10.636  -1.897  16.163  0.00  0.00    +0.000 HD
ATOM     33  H   UNL     1     -12.278  -1.561  15.705  0.00  0.00    +0.000 HD
ATOM     34  H   UNL     1     -13.158  -3.202  16.946  0.00  0.00    +0.000 HD
ATOM     35  H   UNL     1     -11.009  -0.145  19.504  0.00  0.00    +0.000 HD
ATOM     36  H   UNL     1      -9.537  -1.831  22.092  0.00  0.00    +0.000 HD
ATOM     37  H   UNL     1      -7.319  -1.845  23.090  0.00  0.00    +0.000 HD
ATOM     38  H   UNL     1      -5.501  -3.206  22.129  0.00  0.00    +0.000 HD
ATOM     39  H   UNL     1      -5.980  -4.842  20.336  0.00  0.00    +0.000 HD
ATOM     40  H   UNL     1      -8.243  -5.695  14.194  0.00  0.00    +0.000 HD
ATOM     41  H   UNL     1      -9.402  -4.778  12.202  0.00  0.00    +0.000 HD
ATOM     42  H   UNL     1     -11.762  -4.070  12.335  0.00  0.00    +0.000 HD
ATOM     43  H   UNL     1     -12.894  -3.897  14.526  0.00  0.00    +0.000 HD
ATOM     44  H   UNL     1      -9.218  -9.342  18.851  0.00  0.00    +0.000 HD
ATOM     45  H   UNL     1      -8.850  -7.484  20.362  0.00  0.00    +0.000 HD
ATOM     46  H   UNL     1      -7.168  -7.849  19.795  0.00  0.00    +0.000 HD
ENDROOT
BRANCH   5  47
ATOM     47  C   UNL     1     -11.872  -1.965  20.770  0.00  0.00    +0.000 C 
ATOM     48  H   UNL     1     -11.151  -1.668  21.542  0.00  0.00    +0.000 HD
ATOM     49  H   UNL     1     -12.384  -2.860  21.150  0.00  0.00    +0.000 HD
ATOM     50  H   UNL     1     -12.633  -1.185  20.689  0.00  0.00    +0.000 HD
ENDBRANCH   5  47
BRANCH   1  51
ATOM     51  N   UNL     1     -11.375   0.788  16.805  0.00  0.00    +0.000 N 
BRANCH  51  52
ATOM     52  C   UNL     1     -10.018   0.863  16.084  0.00  0.00    +0.000 C 
ATOM     53  H   UNL     1      -9.320   0.205  16.609  0.00  0.00    +0.000 HD
ATOM     54  H   UNL     1     -10.125   0.512  15.063  0.00  0.00    +0.000 HD
ATOM     55  H   UNL     1      -9.644   1.890  16.118  0.00  0.00    +0.000 HD
ENDBRANCH  51  52
BRANCH  51  56
ATOM     56  C   UNL     1     -12.443   1.006  15.714  0.00  0.00    +0.000 C 
ATOM     57  H   UNL     1     -11.936   1.149  14.756  0.00  0.00    +0.000 HD
ATOM     58  H   UNL     1     -13.042   1.882  15.974  0.00  0.00    +0.000 HD
ATOM     59  H   UNL     1     -13.080   0.119  15.659  0.00  0.00    +0.000 HD
ENDBRANCH  51  56
BRANCH  51  60
ATOM     60  C   UNL     1     -11.430   1.962  17.812  0.00  0.00    +0.000 C 
ATOM     61  H   UNL     1     -10.669   1.783  18.577  0.00  0.00    +0.000 HD
ATOM     62  H   UNL     1     -11.149   2.868  17.264  0.00  0.00    +0.000 HD
BRANCH  60  63
ATOM     63  C   UNL     1     -12.808   2.137  18.439  0.00  0.00    +0.000 C 
ATOM     64  H   UNL     1     -12.977   3.162  18.776  0.00  0.00    +0.000 HD
ATOM     65  H   UNL     1     -12.896   1.482  19.311  0.00  0.00    +0.000 HD
ATOM     66  H   UNL     1     -13.626   1.868  17.765  0.00  0.00    +0.000 HD
ENDBRANCH  60  63
ENDBRANCH  51  60
ENDBRANCH   1  51
BRANCH   6  67
ATOM     67  O   UNL     1      -9.339  -0.544  18.605  0.00  0.00    +0.000 OA
BRANCH  67  68
ATOM     68  C   UNL     1      -8.721   0.476  19.372  0.00  0.00    +0.000 C 
ATOM     69  H   UNL     1      -9.274   0.752  20.265  0.00  0.00    +0.000 HD
ATOM     70  H   UNL     1      -8.525   1.344  18.740  0.00  0.00    +0.000 HD
ATOM     71  H   UNL     1      -7.735   0.120  19.686  0.00  0.00    +0.000 HD
ENDBRANCH  67  68
ENDBRANCH   6  67
TORSDOF 8
ENDMDL
MODEL 5
REMARK VINA RESULT:    -6.788      2.766      6.833
REMARK INTER + INTRA:          -9.158
REMARK INTER:                  -9.090
REMARK INTRA:                  -0.068
REMARK UNBOUND:                -0.188
REMARK  Name = 
REMARK  8 active torsions:
REMARK  status: ('A' for Active; 'I' for Inactive)
REMARK    1  A    between atoms: C_1  and  C_2
REMARK    2  A    between atoms: C_2  and  N_3
REMARK    3  A    between atoms: N_3  and  C_4
REMARK    4  A    between atoms: N_3  and  C_5
REMARK    5  A    between atoms: N_3  and  C_6
REMARK    6  A    between atoms: C_10  and  C_11
REMARK    7  A    between atoms: C_12  and  O_13
REMARK    8  A    between atoms: O_13  and  C_14
REMARK                            x       y       z     vdW  Elec       q    Type
REMARK                         _______ _______ _______ _____ _____    ______ ____
ROOT
ATOM      1  C   UNL     1     -10.817   4.173  24.738  0.00  0.00    +0.000 C 
ATOM      2  C   UNL     1     -10.286   2.769  24.777  0.00  0.00    +0.000 C 
ATOM      3  C   UNL     1      -9.329   2.566  23.611  0.00  0.00    +0.000 C 
ATOM      4  O   UNL     1      -9.326   3.604  22.642  0.00  0.00    +0.000 OA
ATOM      5  C   UNL     1     -10.596   4.093  22.175  0.00  0.00    +0.000 C 
ATOM      6  C   UNL     1     -11.553   4.447  23.389  0.00  0.00    +0.000 C 
ATOM      7  N   UNL     1     -11.120   3.177  21.186  0.00  0.00    +0.000 N 
ATOM      8  C   UNL     1     -12.112   3.396  20.188  0.00  0.00    +0.000 A 
ATOM      9  C   UNL     1     -12.728   4.583  19.751  0.00  0.00    +0.000 A 
ATOM     10  C   UNL     1     -13.896   4.519  18.985  0.00  0.00    +0.000 A 
ATOM     11  C   UNL     1     -14.458   3.299  18.643  0.00  0.00    +0.000 A 
ATOM     12  C   UNL     1     -13.777   2.110  18.915  0.00  0.00    +0.000 A 
ATOM     13  C   UNL     1     -12.555   2.138  19.629  0.00  0.00    +0.000 A 
ATOM     14  C   UNL     1     -11.638   1.166  20.052  0.00  0.00    +0.000 A 
ATOM     15  C   UNL     1     -11.510  -0.152  19.573  0.00  0.00    +0.000 A 
ATOM     16  C   UNL     1     -10.900  -1.026  20.516  0.00  0.00    +0.000 A 
ATOM     17  C   UNL     1     -10.549  -0.372  21.702  0.00  0.00    +0.000 A 
ATOM     18  C   UNL     1     -10.333  -0.904  22.996  0.00  0.00    +0.000 A 
ATOM     19  C   UNL     1     -10.814  -1.992  23.756  0.00  0.00    +0.000 A 
ATOM     20  C   UNL     1     -10.408  -2.138  25.091  0.00  0.00    +0.000 A 
ATOM     21  C   UNL     1      -9.413  -1.329  25.629  0.00  0.00    +0.000 A 
ATOM     22  C   UNL     1      -8.927  -0.237  24.918  0.00  0.00    +0.000 A 
ATOM     23  C   UNL     1      -9.530   0.065  23.686  0.00  0.00    +0.000 A 
ATOM     24  N   UNL     1      -9.569   1.295  23.004  0.00  0.00    +0.000 N 
ATOM     25  C   UNL     1     -10.291   0.974  21.920  0.00  0.00    +0.000 A 
ATOM     26  C   UNL     1     -10.944   1.835  21.061  0.00  0.00    +0.000 A 
ATOM     27  C   UNL     1     -10.017  -1.931  19.812  0.00  0.00    +0.000 C 
ATOM     28  O   UNL     1      -9.162  -2.716  20.198  0.00  0.00    +0.000 OA
ATOM     29  N   UNL     1     -10.143  -1.554  18.475  0.00  0.00    +0.000 N 
ATOM     30  C   UNL     1     -11.075  -0.469  18.197  0.00  0.00    +0.000 C 
ATOM     31  H   UNL     1      -9.940   4.832  24.763  0.00  0.00    +0.000 HD
ATOM     32  H   UNL     1     -11.110   2.048  24.744  0.00  0.00    +0.000 HD
ATOM     33  H   UNL     1      -9.747   2.542  25.702  0.00  0.00    +0.000 HD
ATOM     34  H   UNL     1      -8.303   2.534  23.994  0.00  0.00    +0.000 HD
ATOM     35  H   UNL     1     -11.633   5.534  23.349  0.00  0.00    +0.000 HD
ATOM     36  H   UNL     1     -12.350   5.564  20.004  0.00  0.00    +0.000 HD
ATOM     37  H   UNL     1     -14.389   5.442  18.685  0.00  0.00    +0.000 HD
ATOM     38  H   UNL     1     -15.426   3.272  18.145  0.00  0.00    +0.000 HD
ATOM     39  H   UNL     1     -14.236   1.161  18.644  0.00  0.00    +0.000 HD
ATOM     40  H   UNL     1     -11.601  -2.630  23.363  0.00  0.00    +0.000 HD
ATOM     41  H   UNL     1     -10.866  -2.902  25.716  0.00  0.00    +0.000 HD
ATOM     42  H   UNL     1      -9.032  -1.527  26.628  0.00  0.00    +0.000 HD
ATOM     43  H   UNL     1      -8.160   0.401  25.349  0.00  0.00    +0.000 HD
ATOM     44  H   UNL     1      -9.349  -1.750  17.877  0.00  0.00    +0.000 HD
ATOM     45  H   UNL     1     -10.522   0.367  17.753  0.00  0.00    +0.000 HD
ATOM     46  H   UNL     1     -11.871  -0.825  17.546  0.00  0.00    +0.000 HD
ENDROOT
BRANCH   5  47
ATOM     47  C   UNL     1     -10.129   5.415  21.510  0.00  0.00    +0.000 C 
ATOM     48  H   UNL     1     -10.582   5.543  20.519  0.00  0.00    +0.000 HD
ATOM     49  H   UNL     1      -9.041   5.412  21.357  0.00  0.00    +0.000 HD
ATOM     50  H   UNL     1     -10.355   6.300  22.109  0.00  0.00    +0.000 HD
ENDBRANCH   5  47
BRANCH   1  51
ATOM     51  N   UNL     1     -11.597   4.541  26.052  0.00  0.00    +0.000 N 
BRANCH  51  52
ATOM     52  C   UNL     1     -12.018   6.019  26.128  0.00  0.00    +0.000 C 
ATOM     53  H   UNL     1     -12.881   6.159  25.470  0.00  0.00    +0.000 HD
ATOM     54  H   UNL     1     -12.312   6.265  27.143  0.00  0.00    +0.000 HD
ATOM     55  H   UNL     1     -11.194   6.650  25.784  0.00  0.00    +0.000 HD
ENDBRANCH  51  52
BRANCH  51  56
ATOM     56  C   UNL     1     -12.905   3.727  26.132  0.00  0.00    +0.000 C 
ATOM     57  H   UNL     1     -13.567   4.205  26.860  0.00  0.00    +0.000 HD
ATOM     58  H   UNL     1     -12.667   2.704  26.431  0.00  0.00    +0.000 HD
ATOM     59  H   UNL     1     -13.385   3.729  25.149  0.00  0.00    +0.000 HD
ENDBRANCH  51  56
BRANCH  51  60
ATOM     60  C   UNL     1     -10.734   4.239  27.301  0.00  0.00    +0.000 C 
ATOM     61  H   UNL     1      -9.857   3.675  26.973  0.00  0.00    +0.000 HD
ATOM     62  H   UNL     1     -10.387   5.203  27.691  0.00  0.00    +0.000 HD
BRANCH  60  63
ATOM     63  C   UNL     1     -11.501   3.485  28.380  0.00  0.00    +0.000 C 
ATOM     64  H   UNL     1     -11.827   2.500  28.036  0.00  0.00    +0.000 HD
ATOM     65  H   UNL     1     -12.393   4.053  28.657  0.00  0.00    +0.000 HD
ATOM     66  H   UNL     1     -10.925   3.343  29.299  0.00  0.00    +0.000 HD
ENDBRANCH  60  63
ENDBRANCH  51  60
ENDBRANCH   1  51
BRANCH   6  67
ATOM     67  O   UNL     1     -12.945   4.108  23.377  0.00  0.00    +0.000 OA
BRANCH  67  68
ATOM     68  C   UNL     1     -13.952   5.049  23.048  0.00  0.00    +0.000 C 
ATOM     69  H   UNL     1     -14.457   5.475  23.910  0.00  0.00    +0.000 HD
ATOM     70  H   UNL     1     -14.663   4.600  22.351  0.00  0.00    +0.000 HD
ATOM     71  H   UNL     1     -13.487   5.871  22.494  0.00  0.00    +0.000 HD
ENDBRANCH  67  68
ENDBRANCH   6  67
TORSDOF 8
ENDMDL
MODEL 6
REMARK VINA RESULT:    -6.536      2.606      4.551
REMARK INTER + INTRA:          -8.826
REMARK INTER:                  -8.542
REMARK INTRA:                  -0.284
REMARK UNBOUND:                -0.188
REMARK  Name = 
REMARK  8 active torsions:
REMARK  status: ('A' for Active; 'I' for Inactive)
REMARK    1  A    between atoms: C_1  and  C_2
REMARK    2  A    between atoms: C_2  and  N_3
REMARK    3  A    between atoms: N_3  and  C_4
REMARK    4  A    between atoms: N_3  and  C_5
REMARK    5  A    between atoms: N_3  and  C_6
REMARK    6  A    between atoms: C_10  and  C_11
REMARK    7  A    between atoms: C_12  and  O_13
REMARK    8  A    between atoms: O_13  and  C_14
REMARK                            x       y       z     vdW  Elec       q    Type
REMARK                         _______ _______ _______ _____ _____    ______ ____
ROOT
ATOM      1  C   UNL     1     -11.451  -2.442  14.446  0.00  0.00    +0.000 C 
ATOM      2  C   UNL     1     -11.096  -3.290  15.633  0.00  0.00    +0.000 C 
ATOM      3  C   UNL     1     -12.097  -3.027  16.749  0.00  0.00    +0.000 C 
ATOM      4  O   UNL     1     -12.960  -1.918  16.540  0.00  0.00    +0.000 OA
ATOM      5  C   UNL     1     -12.375  -0.685  16.084  0.00  0.00    +0.000 C 
ATOM      6  C   UNL     1     -11.440  -0.928  14.826  0.00  0.00    +0.000 C 
ATOM      7  N   UNL     1     -11.776  -0.002  17.210  0.00  0.00    +0.000 N 
ATOM      8  C   UNL     1     -11.427   1.371  17.351  0.00  0.00    +0.000 A 
ATOM      9  C   UNL     1     -11.721   2.481  16.538  0.00  0.00    +0.000 A 
ATOM     10  C   UNL     1     -11.009   3.673  16.705  0.00  0.00    +0.000 A 
ATOM     11  C   UNL     1     -10.016   3.782  17.666  0.00  0.00    +0.000 A 
ATOM     12  C   UNL     1      -9.823   2.758  18.597  0.00  0.00    +0.000 A 
ATOM     13  C   UNL     1     -10.573   1.562  18.504  0.00  0.00    +0.000 A 
ATOM     14  C   UNL     1     -10.636   0.376  19.249  0.00  0.00    +0.000 A 
ATOM     15  C   UNL     1     -10.173   0.168  20.562  0.00  0.00    +0.000 A 
ATOM     16  C   UNL     1      -9.886  -1.197  20.838  0.00  0.00    +0.000 A 
ATOM     17  C   UNL     1     -10.146  -2.030  19.744  0.00  0.00    +0.000 A 
ATOM     18  C   UNL     1      -9.627  -3.312  19.441  0.00  0.00    +0.000 A 
ATOM     19  C   UNL     1      -8.428  -4.019  19.675  0.00  0.00    +0.000 A 
ATOM     20  C   UNL     1      -8.253  -5.292  19.111  0.00  0.00    +0.000 A 
ATOM     21  C   UNL     1      -9.302  -5.940  18.467  0.00  0.00    +0.000 A 
ATOM     22  C   UNL     1     -10.493  -5.271  18.204  0.00  0.00    +0.000 A 
ATOM     23  C   UNL     1     -10.566  -3.907  18.533  0.00  0.00    +0.000 A 
ATOM     24  N   UNL     1     -11.410  -2.918  17.997  0.00  0.00    +0.000 N 
ATOM     25  C   UNL     1     -11.007  -1.831  18.674  0.00  0.00    +0.000 A 
ATOM     26  C   UNL     1     -11.227  -0.509  18.346  0.00  0.00    +0.000 A 
ATOM     27  C   UNL     1     -10.306  -1.500  22.189  0.00  0.00    +0.000 C 
ATOM     28  O   UNL     1     -10.432  -2.555  22.797  0.00  0.00    +0.000 OA
ATOM     29  N   UNL     1     -10.825  -0.293  22.659  0.00  0.00    +0.000 N 
ATOM     30  C   UNL     1     -10.768   0.835  21.739  0.00  0.00    +0.000 C 
ATOM     31  H   UNL     1     -12.485  -2.699  14.185  0.00  0.00    +0.000 HD
ATOM     32  H   UNL     1     -10.072  -3.079  15.960  0.00  0.00    +0.000 HD
ATOM     33  H   UNL     1     -11.109  -4.361  15.411  0.00  0.00    +0.000 HD
ATOM     34  H   UNL     1     -12.764  -3.891  16.840  0.00  0.00    +0.000 HD
ATOM     35  H   UNL     1     -11.977  -0.448  14.006  0.00  0.00    +0.000 HD
ATOM     36  H   UNL     1     -12.469   2.451  15.757  0.00  0.00    +0.000 HD
ATOM     37  H   UNL     1     -11.215   4.515  16.045  0.00  0.00    +0.000 HD
ATOM     38  H   UNL     1      -9.398   4.678  17.704  0.00  0.00    +0.000 HD
ATOM     39  H   UNL     1      -9.035   2.859  19.341  0.00  0.00    +0.000 HD
ATOM     40  H   UNL     1      -7.589  -3.530  20.163  0.00  0.00    +0.000 HD
ATOM     41  H   UNL     1      -7.289  -5.790  19.187  0.00  0.00    +0.000 HD
ATOM     42  H   UNL     1      -9.184  -6.968  18.135  0.00  0.00    +0.000 HD
ATOM     43  H   UNL     1     -11.304  -5.776  17.688  0.00  0.00    +0.000 HD
ATOM     44  H   UNL     1     -11.526  -0.361  23.387  0.00  0.00    +0.000 HD
ATOM     45  H   UNL     1     -11.790   1.172  21.529  0.00  0.00    +0.000 HD
ATOM     46  H   UNL     1     -10.154   1.626  22.165  0.00  0.00    +0.000 HD
ENDROOT
BRANCH   5  47
ATOM     47  C   UNL     1     -13.659   0.046  15.614  0.00  0.00    +0.000 C 
ATOM     48  H   UNL     1     -14.060  -0.403  14.697  0.00  0.00    +0.000 HD
ATOM     49  H   UNL     1     -13.445   1.098  15.377  0.00  0.00    +0.000 HD
ATOM     50  H   UNL     1     -14.450   0.054  16.368  0.00  0.00    +0.000 HD
ENDBRANCH   5  47
BRANCH   1  51
ATOM     51  N   UNL     1     -10.632  -2.851  13.167  0.00  0.00    +0.000 N 
BRANCH  51  52
ATOM     52  C   UNL     1      -9.115  -2.648  13.313  0.00  0.00    +0.000 C 
ATOM     53  H   UNL     1      -8.705  -2.433  12.321  0.00  0.00    +0.000 HD
ATOM     54  H   UNL     1      -8.918  -1.800  13.961  0.00  0.00    +0.000 HD
ATOM     55  H   UNL     1      -8.660  -3.564  13.701  0.00  0.00    +0.000 HD
ENDBRANCH  51  52
BRANCH  51  56
ATOM     56  C   UNL     1     -10.829  -4.353  12.876  0.00  0.00    +0.000 C 
ATOM     57  H   UNL     1     -11.319  -4.456  11.904  0.00  0.00    +0.000 HD
ATOM     58  H   UNL     1     -11.438  -4.791  13.670  0.00  0.00    +0.000 HD
ATOM     59  H   UNL     1      -9.850  -4.840  12.843  0.00  0.00    +0.000 HD
ENDBRANCH  51  56
BRANCH  51  60
ATOM     60  C   UNL     1     -11.094  -2.031  11.938  0.00  0.00    +0.000 C 
ATOM     61  H   UNL     1     -10.967  -0.971  12.177  0.00  0.00    +0.000 HD
ATOM     62  H   UNL     1     -10.412  -2.274  11.116  0.00  0.00    +0.000 HD
BRANCH  60  63
ATOM     63  C   UNL     1     -12.531  -2.334  11.533  0.00  0.00    +0.000 C 
ATOM     64  H   UNL     1     -13.064  -1.435  11.214  0.00  0.00    +0.000 HD
ATOM     65  H   UNL     1     -13.069  -2.753  12.389  0.00  0.00    +0.000 HD
ATOM     66  H   UNL     1     -12.606  -3.070  10.728  0.00  0.00    +0.000 HD
ENDBRANCH  60  63
ENDBRANCH  51  60
ENDBRANCH   1  51
BRANCH   6  67
ATOM     67  O   UNL     1     -10.171  -0.276  14.690  0.00  0.00    +0.000 OA
BRANCH  67  68
ATOM     68  C   UNL     1      -9.993   0.875  13.883  0.00  0.00    +0.000 C 
ATOM     69  H   UNL     1     -10.245   1.807  14.382  0.00  0.00    +0.000 HD
ATOM     70  H   UNL     1     -10.547   0.760  12.950  0.00  0.00    +0.000 HD
ATOM     71  H   UNL     1      -8.940   0.928  13.588  0.00  0.00    +0.000 HD
ENDBRANCH  67  68
ENDBRANCH   6  67
TORSDOF 8
ENDMDL
MODEL 7
REMARK VINA RESULT:    -6.469      2.507      4.411
REMARK INTER + INTRA:          -8.737
REMARK INTER:                  -8.470
REMARK INTRA:                  -0.267
REMARK UNBOUND:                -0.188
REMARK  Name = 
REMARK  8 active torsions:
REMARK  status: ('A' for Active; 'I' for Inactive)
REMARK    1  A    between atoms: C_1  and  C_2
REMARK    2  A    between atoms: C_2  and  N_3
REMARK    3  A    between atoms: N_3  and  C_4
REMARK    4  A    between atoms: N_3  and  C_5
REMARK    5  A    between atoms: N_3  and  C_6
REMARK    6  A    between atoms: C_10  and  C_11
REMARK    7  A    between atoms: C_12  and  O_13
REMARK    8  A    between atoms: O_13  and  C_14
REMARK                            x       y       z     vdW  Elec       q    Type
REMARK                         _______ _______ _______ _____ _____    ______ ____
ROOT
ATOM      1  C   UNL     1     -11.698  -0.892  18.980  0.00  0.00    +0.000 C 
ATOM      2  C   UNL     1     -11.393  -1.158  20.427  0.00  0.00    +0.000 C 
ATOM      3  C   UNL     1     -12.202  -0.200  21.290  0.00  0.00    +0.000 C 
ATOM      4  O   UNL     1     -12.850   0.850  20.586  0.00  0.00    +0.000 OA
ATOM      5  C   UNL     1     -12.088   1.574  19.605  0.00  0.00    +0.000 C 
ATOM      6  C   UNL     1     -11.354   0.584  18.606  0.00  0.00    +0.000 C 
ATOM      7  N   UNL     1     -11.253   2.546  20.278  0.00  0.00    +0.000 N 
ATOM      8  C   UNL     1     -10.631   3.716  19.759  0.00  0.00    +0.000 A 
ATOM      9  C   UNL     1     -10.787   4.366  18.520  0.00  0.00    +0.000 A 
ATOM     10  C   UNL     1      -9.844   5.313  18.107  0.00  0.00    +0.000 A 
ATOM     11  C   UNL     1      -8.754   5.627  18.905  0.00  0.00    +0.000 A 
ATOM     12  C   UNL     1      -8.669   5.128  20.207  0.00  0.00    +0.000 A 
ATOM     13  C   UNL     1      -9.642   4.220  20.686  0.00  0.00    +0.000 A 
ATOM     14  C   UNL     1      -9.856   3.553  21.900  0.00  0.00    +0.000 A 
ATOM     15  C   UNL     1      -9.308   3.873  23.158  0.00  0.00    +0.000 A 
ATOM     16  C   UNL     1      -9.266   2.759  24.041  0.00  0.00    +0.000 A 
ATOM     17  C   UNL     1      -9.795   1.599  23.466  0.00  0.00    +0.000 A 
ATOM     18  C   UNL     1      -9.569   0.241  23.800  0.00  0.00    +0.000 A 
ATOM     19  C   UNL     1      -8.513  -0.525  24.337  0.00  0.00    +0.000 A 
ATOM     20  C   UNL     1      -8.648  -1.919  24.436  0.00  0.00    +0.000 A 
ATOM     21  C   UNL     1      -9.864  -2.540  24.172  0.00  0.00    +0.000 A 
ATOM     22  C   UNL     1     -10.923  -1.822  23.626  0.00  0.00    +0.000 A 
ATOM     23  C   UNL     1     -10.695  -0.480  23.277  0.00  0.00    +0.000 A 
ATOM     24  N   UNL     1     -11.382   0.314  22.341  0.00  0.00    +0.000 N 
ATOM     25  C   UNL     1     -10.707   1.470  22.428  0.00  0.00    +0.000 A 
ATOM     26  C   UNL     1     -10.699   2.508  21.519  0.00  0.00    +0.000 A 
ATOM     27  C   UNL     1      -9.594   3.208  25.377  0.00  0.00    +0.000 C 
ATOM     28  O   UNL     1      -9.858   2.606  26.409  0.00  0.00    +0.000 OA
ATOM     29  N   UNL     1      -9.817   4.578  25.227  0.00  0.00    +0.000 N 
ATOM     30  C   UNL     1      -9.637   5.116  23.885  0.00  0.00    +0.000 C 
ATOM     31  H   UNL     1     -12.784  -1.005  18.871  0.00  0.00    +0.000 HD
ATOM     32  H   UNL     1     -10.320  -1.052  20.616  0.00  0.00    +0.000 HD
ATOM     33  H   UNL     1     -11.637  -2.179  20.733  0.00  0.00    +0.000 HD
ATOM     34  H   UNL     1     -13.012  -0.755  21.776  0.00  0.00    +0.000 HD
ATOM     35  H   UNL     1     -11.869   0.742  17.658  0.00  0.00    +0.000 HD
ATOM     36  H   UNL     1     -11.604   4.148  17.845  0.00  0.00    +0.000 HD
ATOM     37  H   UNL     1      -9.950   5.782  17.131  0.00  0.00    +0.000 HD
ATOM     38  H   UNL     1      -7.974   6.280  18.518  0.00  0.00    +0.000 HD
ATOM     39  H   UNL     1      -7.803   5.381  20.817  0.00  0.00    +0.000 HD
ATOM     40  H   UNL     1      -7.549  -0.066  24.538  0.00  0.00    +0.000 HD
ATOM     41  H   UNL     1      -7.796  -2.526  24.736  0.00  0.00    +0.000 HD
ATOM     42  H   UNL     1      -9.984  -3.604  24.361  0.00  0.00    +0.000 HD
ATOM     43  H   UNL     1     -11.866  -2.314  23.408  0.00  0.00    +0.000 HD
ATOM     44  H   UNL     1     -10.438   5.007  25.902  0.00  0.00    +0.000 HD
ATOM     45  H   UNL     1     -10.590   5.536  23.542  0.00  0.00    +0.000 HD
ATOM     46  H   UNL     1      -8.840   5.857  23.890  0.00  0.00    +0.000 HD
ENDROOT
BRANCH   5  47
ATOM     47  C   UNL     1     -13.247   2.273  18.847  0.00  0.00    +0.000 C 
ATOM     48  H   UNL     1     -12.939   3.255  18.466  0.00  0.00    +0.000 HD
ATOM     49  H   UNL     1     -14.099   2.453  19.518  0.00  0.00    +0.000 HD
ATOM     50  H   UNL     1     -13.631   1.684  18.011  0.00  0.00    +0.000 HD
ENDBRANCH   5  47
BRANCH   1  51
ATOM     51  N   UNL     1     -11.111  -2.010  18.042  0.00  0.00    +0.000 N 
BRANCH  51  52
ATOM     52  C   UNL     1      -9.602  -2.240  18.224  0.00  0.00    +0.000 C 
ATOM     53  H   UNL     1      -9.254  -2.869  17.399  0.00  0.00    +0.000 HD
ATOM     54  H   UNL     1      -9.078  -1.291  18.181  0.00  0.00    +0.000 HD
ATOM     55  H   UNL     1      -9.423  -2.755  19.172  0.00  0.00    +0.000 HD
ENDBRANCH  51  52
BRANCH  51  56
ATOM     56  C   UNL     1     -11.783  -3.363  18.355  0.00  0.00    +0.000 C 
ATOM     57  H   UNL     1     -12.667  -3.465  17.720  0.00  0.00    +0.000 HD
ATOM     58  H   UNL     1     -12.056  -3.387  19.413  0.00  0.00    +0.000 HD
ATOM     59  H   UNL     1     -11.080  -4.169  18.130  0.00  0.00    +0.000 HD
ENDBRANCH  51  56
BRANCH  51  60
ATOM     60  C   UNL     1     -11.352  -1.654  16.555  0.00  0.00    +0.000 C 
ATOM     61  H   UNL     1     -10.963  -0.646  16.385  0.00  0.00    +0.000 HD
ATOM     62  H   UNL     1     -10.752  -2.351  15.959  0.00  0.00    +0.000 HD
BRANCH  60  63
ATOM     63  C   UNL     1     -12.819  -1.752  16.155  0.00  0.00    +0.000 C 
ATOM     64  H   UNL     1     -13.015  -2.628  15.533  0.00  0.00    +0.000 HD
ATOM     65  H   UNL     1     -13.098  -0.865  15.578  0.00  0.00    +0.000 HD
ATOM     66  H   UNL     1     -13.498  -1.793  17.011  0.00  0.00    +0.000 HD
ENDBRANCH  60  63
ENDBRANCH  51  60
ENDBRANCH   1  51
BRANCH   6  67
ATOM     67  O   UNL     1     -10.004   0.804  18.180  0.00  0.00    +0.000 OA
BRANCH  67  68
ATOM     68  C   UNL     1      -9.690   1.401  16.934  0.00  0.00    +0.000 C 
ATOM     69  H   UNL     1      -9.148   0.748  16.255  0.00  0.00    +0.000 HD
ATOM     70  H   UNL     1      -9.154   2.338  17.099  0.00  0.00    +0.000 HD
ATOM     71  H   UNL     1     -10.626   1.688  16.445  0.00  0.00    +0.000 HD
ENDBRANCH  67  68
ENDBRANCH   6  67
TORSDOF 8
ENDMDL
MODEL 8
REMARK VINA RESULT:    -6.432      2.124      6.609
REMARK INTER + INTRA:          -8.688
REMARK INTER:                  -8.402
REMARK INTRA:                  -0.286
REMARK UNBOUND:                -0.188
REMARK  Name = 
REMARK  8 active torsions:
REMARK  status: ('A' for Active; 'I' for Inactive)
REMARK    1  A    between atoms: C_1  and  C_2
REMARK    2  A    between atoms: C_2  and  N_3
REMARK    3  A    between atoms: N_3  and  C_4
REMARK    4  A    between atoms: N_3  and  C_5
REMARK    5  A    between atoms: N_3  and  C_6
REMARK    6  A    between atoms: C_10  and  C_11
REMARK    7  A    between atoms: C_12  and  O_13
REMARK    8  A    between atoms: O_13  and  C_14
REMARK                            x       y       z     vdW  Elec       q    Type
REMARK                         _______ _______ _______ _____ _____    ______ ____
ROOT
ATOM      1  C   UNL     1     -11.164   1.414  23.145  0.00  0.00    +0.000 C 
ATOM      2  C   UNL     1     -11.586   1.457  21.705  0.00  0.00    +0.000 C 
ATOM      3  C   UNL     1     -12.296   0.157  21.356  0.00  0.00    +0.000 C 
ATOM      4  O   UNL     1     -12.200  -0.868  22.334  0.00  0.00    +0.000 OA
ATOM      5  C   UNL     1     -10.907  -1.135  22.905  0.00  0.00    +0.000 C 
ATOM      6  C   UNL     1     -10.217   0.202  23.407  0.00  0.00    +0.000 C 
ATOM      7  N   UNL     1     -10.143  -1.949  21.984  0.00  0.00    +0.000 N 
ATOM      8  C   UNL     1      -9.005  -2.767  22.232  0.00  0.00    +0.000 A 
ATOM      9  C   UNL     1      -8.411  -3.170  23.443  0.00  0.00    +0.000 A 
ATOM     10  C   UNL     1      -7.121  -3.710  23.438  0.00  0.00    +0.000 A 
ATOM     11  C   UNL     1      -6.416  -3.860  22.253  0.00  0.00    +0.000 A 
ATOM     12  C   UNL     1      -7.044  -3.631  21.027  0.00  0.00    +0.000 A 
ATOM     13  C   UNL     1      -8.374  -3.149  20.988  0.00  0.00    +0.000 A 
ATOM     14  C   UNL     1      -9.277  -2.829  19.966  0.00  0.00    +0.000 A 
ATOM     15  C   UNL     1      -9.217  -3.229  18.617  0.00  0.00    +0.000 A 
ATOM     16  C   UNL     1      -9.921  -2.351  17.748  0.00  0.00    +0.000 A 
ATOM     17  C   UNL     1     -10.530  -1.294  18.433  0.00  0.00    +0.000 A 
ATOM     18  C   UNL     1     -10.938  -0.025  17.957  0.00  0.00    +0.000 A 
ATOM     19  C   UNL     1     -10.524   0.882  16.959  0.00  0.00    +0.000 A 
ATOM     20  C   UNL     1     -11.155   2.132  16.852  0.00  0.00    +0.000 A 
ATOM     21  C   UNL     1     -12.289   2.427  17.601  0.00  0.00    +0.000 A 
ATOM     22  C   UNL     1     -12.718   1.566  18.605  0.00  0.00    +0.000 A 
ATOM     23  C   UNL     1     -11.925   0.441  18.890  0.00  0.00    +0.000 A 
ATOM     24  N   UNL     1     -11.855  -0.307  20.079  0.00  0.00    +0.000 N 
ATOM     25  C   UNL     1     -10.924  -1.220  19.762  0.00  0.00    +0.000 A 
ATOM     26  C   UNL     1     -10.192  -2.008  20.627  0.00  0.00    +0.000 A 
ATOM     27  C   UNL     1     -10.590  -3.135  16.731  0.00  0.00    +0.000 C 
ATOM     28  O   UNL     1     -11.440  -2.852  15.898  0.00  0.00    +0.000 OA
ATOM     29  N   UNL     1     -10.250  -4.451  17.044  0.00  0.00    +0.000 N 
ATOM     30  C   UNL     1      -9.367  -4.635  18.188  0.00  0.00    +0.000 C 
ATOM     31  H   UNL     1     -12.078   1.238  23.726  0.00  0.00    +0.000 HD
ATOM     32  H   UNL     1     -10.718   1.621  21.058  0.00  0.00    +0.000 HD
ATOM     33  H   UNL     1     -12.266   2.285  21.484  0.00  0.00    +0.000 HD
ATOM     34  H   UNL     1     -13.370   0.353  21.257  0.00  0.00    +0.000 HD
ATOM     35  H   UNL     1     -10.213   0.101  24.493  0.00  0.00    +0.000 HD
ATOM     36  H   UNL     1      -8.902  -3.058  24.400  0.00  0.00    +0.000 HD
ATOM     37  H   UNL     1      -6.652  -3.982  24.382  0.00  0.00    +0.000 HD
ATOM     38  H   UNL     1      -5.374  -4.176  22.283  0.00  0.00    +0.000 HD
ATOM     39  H   UNL     1      -6.473  -3.749  20.108  0.00  0.00    +0.000 HD
ATOM     40  H   UNL     1      -9.632   0.681  16.370  0.00  0.00    +0.000 HD
ATOM     41  H   UNL     1     -10.763   2.880  16.166  0.00  0.00    +0.000 HD
ATOM     42  H   UNL     1     -12.830   3.353  17.426  0.00  0.00    +0.000 HD
ATOM     43  H   UNL     1     -13.596   1.807  19.198  0.00  0.00    +0.000 HD
ATOM     44  H   UNL     1     -10.905  -5.165  16.747  0.00  0.00    +0.000 HD
ATOM     45  H   UNL     1      -9.891  -5.227  18.947  0.00  0.00    +0.000 HD
ATOM     46  H   UNL     1      -8.441  -5.108  17.866  0.00  0.00    +0.000 HD
ENDROOT
BRANCH   5  47
ATOM     47  C   UNL     1     -11.342  -1.963  24.143  0.00  0.00    +0.000 C 
ATOM     48  H   UNL     1     -11.229  -3.039  23.961  0.00  0.00    +0.000 HD
ATOM     49  H   UNL     1     -12.404  -1.796  24.371  0.00  0.00    +0.000 HD
ATOM     50  H   UNL     1     -10.788  -1.706  25.048  0.00  0.00    +0.000 HD
ENDBRANCH   5  47
BRANCH   1  51
ATOM     51  N   UNL     1     -10.667   2.818  23.653  0.00  0.00    +0.000 N 
BRANCH  51  52
ATOM     52  C   UNL     1      -9.539   3.420  22.798  0.00  0.00    +0.000 C 
ATOM     53  H   UNL     1      -9.095   4.247  23.359  0.00  0.00    +0.000 HD
ATOM     54  H   UNL     1      -8.774   2.671  22.620  0.00  0.00    +0.000 HD
ATOM     55  H   UNL     1      -9.955   3.799  21.861  0.00  0.00    +0.000 HD
ENDBRANCH  51  52
BRANCH  51  56
ATOM     56  C   UNL     1     -11.824   3.836  23.599  0.00  0.00    +0.000 C 
ATOM     57  H   UNL     1     -12.691   3.402  24.105  0.00  0.00    +0.000 HD
ATOM     58  H   UNL     1     -12.051   4.058  22.553  0.00  0.00    +0.000 HD
ATOM     59  H   UNL     1     -11.519   4.748  24.119  0.00  0.00    +0.000 HD
ENDBRANCH  51  56
BRANCH  51  60
ATOM     60  C   UNL     1     -10.145   2.717  25.107  0.00  0.00    +0.000 C 
ATOM     61  H   UNL     1     -10.946   3.050  25.773  0.00  0.00    +0.000 HD
ATOM     62  H   UNL     1      -9.959   1.657  25.308  0.00  0.00    +0.000 HD
BRANCH  60  63
ATOM     63  C   UNL     1      -8.872   3.523  25.334  0.00  0.00    +0.000 C 
ATOM     64  H   UNL     1      -7.974   2.921  25.176  0.00  0.00    +0.000 HD
ATOM     65  H   UNL     1      -8.852   3.887  26.365  0.00  0.00    +0.000 HD
ATOM     66  H   UNL     1      -8.800   4.405  24.691  0.00  0.00    +0.000 HD
ENDBRANCH  60  63
ENDBRANCH  51  60
ENDBRANCH   1  51
BRANCH   6  67
ATOM     67  O   UNL     1      -8.824   0.461  23.189  0.00  0.00    +0.000 OA
BRANCH  67  68
ATOM     68  C   UNL     1      -7.840   0.187  24.172  0.00  0.00    +0.000 C 
ATOM     69  H   UNL     1      -7.061  -0.493  23.839  0.00  0.00    +0.000 HD
ATOM     70  H   UNL     1      -8.320  -0.172  25.084  0.00  0.00    +0.000 HD
ATOM     71  H   UNL     1      -7.362   1.131  24.451  0.00  0.00    +0.000 HD
ENDBRANCH  67  68
ENDBRANCH   6  67
TORSDOF 8
ENDMDL
MODEL 9
REMARK VINA RESULT:    -6.346      1.799      2.692
REMARK INTER + INTRA:          -8.575
REMARK INTER:                  -8.371
REMARK INTRA:                  -0.204
REMARK UNBOUND:                -0.188
REMARK  Name = 
REMARK  8 active torsions:
REMARK  status: ('A' for Active; 'I' for Inactive)
REMARK    1  A    between atoms: C_1  and  C_2
REMARK    2  A    between atoms: C_2  and  N_3
REMARK    3  A    between atoms: N_3  and  C_4
REMARK    4  A    between atoms: N_3  and  C_5
REMARK    5  A    between atoms: N_3  and  C_6
REMARK    6  A    between atoms: C_10  and  C_11
REMARK    7  A    between atoms: C_12  and  O_13
REMARK    8  A    between atoms: O_13  and  C_14
REMARK                            x       y       z     vdW  Elec       q    Type
REMARK                         _______ _______ _______ _____ _____    ______ ____
ROOT
ATOM      1  C   UNL     1     -11.092  -0.204  18.243  0.00  0.00    +0.000 C 
ATOM      2  C   UNL     1     -10.444  -0.988  19.348  0.00  0.00    +0.000 C 
ATOM      3  C   UNL     1     -11.283  -0.853  20.611  0.00  0.00    +0.000 C 
ATOM      4  O   UNL     1     -12.310   0.126  20.554  0.00  0.00    +0.000 OA
ATOM      5  C   UNL     1     -11.976   1.423  20.029  0.00  0.00    +0.000 C 
ATOM      6  C   UNL     1     -11.227   1.300  18.637  0.00  0.00    +0.000 C 
ATOM      7  N   UNL     1     -11.306   2.190  21.056  0.00  0.00    +0.000 N 
ATOM      8  C   UNL     1     -11.128   3.599  21.160  0.00  0.00    +0.000 A 
ATOM      9  C   UNL     1     -11.694   4.653  20.418  0.00  0.00    +0.000 A 
ATOM     10  C   UNL     1     -11.133   5.932  20.488  0.00  0.00    +0.000 A 
ATOM     11  C   UNL     1     -10.026   6.182  21.284  0.00  0.00    +0.000 A 
ATOM     12  C   UNL     1      -9.553   5.200  22.158  0.00  0.00    +0.000 A 
ATOM     13  C   UNL     1     -10.139   3.913  22.168  0.00  0.00    +0.000 A 
ATOM     14  C   UNL     1      -9.923   2.736  22.897  0.00  0.00    +0.000 A 
ATOM     15  C   UNL     1      -9.236   2.603  24.119  0.00  0.00    +0.000 A 
ATOM     16  C   UNL     1      -8.728   1.291  24.328  0.00  0.00    +0.000 A 
ATOM     17  C   UNL     1      -9.041   0.422  23.277  0.00  0.00    +0.000 A 
ATOM     18  C   UNL     1      -8.407  -0.780  22.880  0.00  0.00    +0.000 A 
ATOM     19  C   UNL     1      -7.102  -1.315  22.913  0.00  0.00    +0.000 A 
ATOM     20  C   UNL     1      -6.847  -2.558  22.312  0.00  0.00    +0.000 A 
ATOM     21  C   UNL     1      -7.886  -3.347  21.831  0.00  0.00    +0.000 A 
ATOM     22  C   UNL     1      -9.183  -2.848  21.766  0.00  0.00    +0.000 A 
ATOM     23  C   UNL     1      -9.387  -1.504  22.121  0.00  0.00    +0.000 A 
ATOM     24  N   UNL     1     -10.431  -0.643  21.738  0.00  0.00    +0.000 N 
ATOM     25  C   UNL     1     -10.078   0.494  22.357  0.00  0.00    +0.000 A 
ATOM     26  C   UNL     1     -10.523   1.772  22.086  0.00  0.00    +0.000 A 
ATOM     27  C   UNL     1      -8.886   0.945  25.724  0.00  0.00    +0.000 C 
ATOM     28  O   UNL     1      -8.771  -0.112  26.330  0.00  0.00    +0.000 OA
ATOM     29  N   UNL     1      -9.483   2.073  26.286  0.00  0.00    +0.000 N 
ATOM     30  C   UNL     1      -9.724   3.192  25.384  0.00  0.00    +0.000 C 
ATOM     31  H   UNL     1     -12.109  -0.602  18.143  0.00  0.00    +0.000 HD
ATOM     32  H   UNL     1      -9.419  -0.637  19.514  0.00  0.00    +0.000 HD
ATOM     33  H   UNL     1     -10.346  -2.052  19.117  0.00  0.00    +0.000 HD
ATOM     34  H   UNL     1     -11.805  -1.799  20.793  0.00  0.00    +0.000 HD
ATOM     35  H   UNL     1     -11.945   1.696  17.918  0.00  0.00    +0.000 HD
ATOM     36  H   UNL     1     -12.544   4.515  19.763  0.00  0.00    +0.000 HD
ATOM     37  H   UNL     1     -11.552   6.732  19.880  0.00  0.00    +0.000 HD
ATOM     38  H   UNL     1      -9.536   7.153  21.237  0.00  0.00    +0.000 HD
ATOM     39  H   UNL     1      -8.679   5.413  22.772  0.00  0.00    +0.000 HD
ATOM     40  H   UNL     1      -6.271  -0.713  23.271  0.00  0.00    +0.000 HD
ATOM     41  H   UNL     1      -5.824  -2.920  22.229  0.00  0.00    +0.000 HD
ATOM     42  H   UNL     1      -7.684  -4.352  21.471  0.00  0.00    +0.000 HD
ATOM     43  H   UNL     1      -9.989  -3.463  21.376  0.00  0.00    +0.000 HD
ATOM     44  H   UNL     1     -10.046   1.917  27.114  0.00  0.00    +0.000 HD
ATOM     45  H   UNL     1     -10.802   3.386  25.340  0.00  0.00    +0.000 HD
ATOM     46  H   UNL     1      -9.164   4.062  25.719  0.00  0.00    +0.000 HD
ENDROOT
BRANCH   5  47
ATOM     47  C   UNL     1     -13.406   1.970  19.775  0.00  0.00    +0.000 C 
ATOM     48  H   UNL     1     -14.063   1.191  19.370  0.00  0.00    +0.000 HD
ATOM     49  H   UNL     1     -13.388   2.780  19.033  0.00  0.00    +0.000 HD
ATOM     50  H   UNL     1     -13.873   2.384  20.672  0.00  0.00    +0.000 HD
ENDBRANCH   5  47
BRANCH   1  51
ATOM     51  N   UNL     1     -10.435  -0.509  16.846  0.00  0.00    +0.000 N 
BRANCH  51  52
ATOM     52  C   UNL     1     -10.578  -1.974  16.402  0.00  0.00    +0.000 C 
ATOM     53  H   UNL     1     -11.509  -2.366  16.824  0.00  0.00    +0.000 HD
ATOM     54  H   UNL     1     -10.639  -2.025  15.320  0.00  0.00    +0.000 HD
ATOM     55  H   UNL     1      -9.734  -2.554  16.784  0.00  0.00    +0.000 HD
ENDBRANCH  51  52
BRANCH  51  56
ATOM     56  C   UNL     1     -11.120   0.332  15.749  0.00  0.00    +0.000 C 
ATOM     57  H   UNL     1     -11.679   1.140  16.231  0.00  0.00    +0.000 HD
ATOM     58  H   UNL     1     -11.785  -0.314  15.171  0.00  0.00    +0.000 HD
ATOM     59  H   UNL     1     -10.353   0.760  15.098  0.00  0.00    +0.000 HD
ENDBRANCH  51  56
BRANCH  51  60
ATOM     60  C   UNL     1      -8.923  -0.177  16.871  0.00  0.00    +0.000 C 
ATOM     61  H   UNL     1      -8.806   0.813  17.320  0.00  0.00    +0.000 HD
ATOM     62  H   UNL     1      -8.447  -0.906  17.536  0.00  0.00    +0.000 HD
BRANCH  60  63
ATOM     63  C   UNL     1      -8.284  -0.233  15.489  0.00  0.00    +0.000 C 
ATOM     64  H   UNL     1      -7.856  -1.215  15.277  0.00  0.00    +0.000 HD
ATOM     65  H   UNL     1      -7.475   0.502  15.433  0.00  0.00    +0.000 HD
ATOM     66  H   UNL     1      -8.981   0.009  14.681  0.00  0.00    +0.000 HD
ENDBRANCH  60  63
ENDBRANCH  51  60
ENDBRANCH   1  51
BRANCH   6  67
ATOM     67  O   UNL     1     -10.094   2.117  18.314  0.00  0.00    +0.000 OA
BRANCH  67  68
ATOM     68  C   UNL     1     -10.204   3.281  17.513  0.00  0.00    +0.000 C 
ATOM     69  H   UNL     1      -9.534   3.293  16.658  0.00  0.00    +0.000 HD
ATOM     70  H   UNL     1     -10.073   4.169  18.135  0.00  0.00    +0.000 HD
ATOM     71  H   UNL     1     -11.229   3.344  17.136  0.00  0.00    +0.000 HD
ENDBRANCH  67  68
ENDBRANCH   6  67
TORSDOF 8
ENDMDL
