MODEL 1
REMARK VINA RESULT:    -9.004      0.000      0.000
REMARK INTER + INTRA:         -11.133
REMARK INTER:                 -10.847
REMARK INTRA:                  -0.286
REMARK UNBOUND:                -0.286
REMARK  Name = 
REMARK  5 active torsions:
REMARK  status: ('A' for Active; 'I' for Inactive)
REMARK    1  A    between atoms: C_1  and  N_2
REMARK    2  A    between atoms: N_2  and  C_3
REMARK    3  A    between atoms: C_7  and  C_8
REMARK    4  A    between atoms: C_9  and  O_10
REMARK    5  A    between atoms: O_10  and  C_11
REMARK                            x       y       z     vdW  Elec       q    Type
REMARK                         _______ _______ _______ _____ _____    ______ ____
ROOT
ATOM      1  C   UNL     1      -8.965  -7.487  16.285  0.00  0.00    +0.000 C 
ATOM      2  C   UNL     1      -7.813  -6.893  17.109  0.00  0.00    +0.000 C 
ATOM      3  C   UNL     1      -8.284  -6.672  18.533  0.00  0.00    +0.000 C 
ATOM      4  O   UNL     1      -9.704  -6.747  18.667  0.00  0.00    +0.000 OA
ATOM      5  C   UNL     1     -10.496  -5.985  17.713  0.00  0.00    +0.000 C 
ATOM      6  C   UNL     1     -10.105  -6.411  16.221  0.00  0.00    +0.000 C 
ATOM      7  N   UNL     1     -10.364  -4.543  17.946  0.00  0.00    +0.000 N 
ATOM      8  C   UNL     1     -11.096  -3.425  17.473  0.00  0.00    +0.000 A 
ATOM      9  C   UNL     1     -12.403  -3.287  16.986  0.00  0.00    +0.000 A 
ATOM     10  C   UNL     1     -12.783  -2.070  16.400  0.00  0.00    +0.000 A 
ATOM     11  C   UNL     1     -11.871  -1.042  16.215  0.00  0.00    +0.000 A 
ATOM     12  C   UNL     1     -10.636  -1.089  16.857  0.00  0.00    +0.000 A 
ATOM     13  C   UNL     1     -10.305  -2.217  17.634  0.00  0.00    +0.000 A 
ATOM     14  C   UNL     1      -9.375  -2.491  18.652  0.00  0.00    +0.000 A 
ATOM     15  C   UNL     1      -9.052  -1.625  19.713  0.00  0.00    +0.000 A 
ATOM     16  C   UNL     1      -8.590  -2.305  20.872  0.00  0.00    +0.000 A 
ATOM     17  C   UNL     1      -8.299  -3.685  20.699  0.00  0.00    +0.000 A 
ATOM     18  C   UNL     1      -6.935  -4.141  20.840  0.00  0.00    +0.000 A 
ATOM     19  C   UNL     1      -5.868  -3.797  21.694  0.00  0.00    +0.000 A 
ATOM     20  C   UNL     1      -4.577  -4.263  21.421  0.00  0.00    +0.000 A 
ATOM     21  C   UNL     1      -4.312  -5.019  20.283  0.00  0.00    +0.000 A 
ATOM     22  C   UNL     1      -5.347  -5.466  19.461  0.00  0.00    +0.000 A 
ATOM     23  C   UNL     1      -6.662  -5.100  19.786  0.00  0.00    +0.000 A 
ATOM     24  N   UNL     1      -7.851  -5.463  19.169  0.00  0.00    +0.000 N 
ATOM     25  C   UNL     1      -8.660  -4.479  19.615  0.00  0.00    +0.000 A 
ATOM     26  C   UNL     1      -9.448  -3.879  18.665  0.00  0.00    +0.000 A 
ATOM     27  C   UNL     1      -8.920  -1.517  22.004  0.00  0.00    +0.000 C 
ATOM     28  O   UNL     1      -9.069  -1.785  23.190  0.00  0.00    +0.000 OA
ATOM     29  N   UNL     1      -9.272  -0.312  21.437  0.00  0.00    +0.000 N 
ATOM     30  C   UNL     1      -9.429  -0.305  20.077  0.00  0.00    +0.000 C 
ATOM     31  O   UNL     1      -9.867   0.647  19.440  0.00  0.00    +0.000 OA
ATOM     32  H   UNL     1      -9.354  -8.374  16.804  0.00  0.00    +0.000 HD
ATOM     33  H   UNL     1      -7.453  -5.959  16.660  0.00  0.00    +0.000 HD
ATOM     34  H   UNL     1      -6.943  -7.562  17.128  0.00  0.00    +0.000 HD
ATOM     35  H   UNL     1      -7.888  -7.484  19.156  0.00  0.00    +0.000 HD
ATOM     36  H   UNL     1     -10.998  -6.811  15.724  0.00  0.00    +0.000 HD
ATOM     37  H   UNL     1     -13.145  -4.058  17.114  0.00  0.00    +0.000 HD
ATOM     38  H   UNL     1     -13.812  -1.937  16.067  0.00  0.00    +0.000 HD
ATOM     39  H   UNL     1     -12.140  -0.168  15.633  0.00  0.00    +0.000 HD
ATOM     40  H   UNL     1      -9.939  -0.256  16.762  0.00  0.00    +0.000 HD
ATOM     41  H   UNL     1      -6.050  -3.179  22.569  0.00  0.00    +0.000 HD
ATOM     42  H   UNL     1      -3.763  -4.002  22.092  0.00  0.00    +0.000 HD
ATOM     43  H   UNL     1      -3.285  -5.277  20.034  0.00  0.00    +0.000 HD
ATOM     44  H   UNL     1      -5.125  -6.036  18.563  0.00  0.00    +0.000 HD
ATOM     45  H   UNL     1      -9.686   0.417  21.992  0.00  0.00    +0.000 HD
ENDROOT
BRANCH   5  46
ATOM     46  C   UNL     1     -11.902  -6.446  18.135  0.00  0.00    +0.000 C 
ATOM     47  H   UNL     1     -12.250  -5.849  18.995  0.00  0.00    +0.000 HD
ATOM     48  H   UNL     1     -12.647  -6.362  17.348  0.00  0.00    +0.000 HD
ATOM     49  H   UNL     1     -11.890  -7.486  18.477  0.00  0.00    +0.000 HD
ENDBRANCH   5  46
BRANCH   1  50
ATOM     50  N   UNL     1      -8.359  -7.967  15.032  0.00  0.00    +0.000 NA
ATOM     51  H   UNL     1      -8.409  -7.247  14.313  0.00  0.00    +0.000 HD
BRANCH  50  52
ATOM     52  C   UNL     1      -8.863  -9.237  14.549  0.00  0.00    +0.000 C 
ATOM     53  H   UNL     1      -9.842  -9.489  14.958  0.00  0.00    +0.000 HD
ATOM     54  H   UNL     1      -8.168 -10.051  14.773  0.00  0.00    +0.000 HD
ATOM     55  H   UNL     1      -8.972  -9.182  13.461  0.00  0.00    +0.000 HD
ENDBRANCH  50  52
ENDBRANCH   1  50
BRANCH   6  56
ATOM     56  O   UNL     1      -9.639  -5.245  15.509  0.00  0.00    +0.000 OA
BRANCH  56  57
ATOM     57  C   UNL     1     -10.320  -4.905  14.315  0.00  0.00    +0.000 C 
ATOM     58  H   UNL     1      -9.621  -4.829  13.482  0.00  0.00    +0.000 HD
ATOM     59  H   UNL     1     -10.752  -3.909  14.443  0.00  0.00    +0.000 HD
ATOM     60  H   UNL     1     -11.126  -5.607  14.082  0.00  0.00    +0.000 HD
ENDBRANCH  56  57
ENDBRANCH   6  56
TORSDOF 5
ENDMDL
MODEL 2
REMARK VINA RESULT:    -8.526      2.166      7.713
REMARK INTER + INTRA:         -10.557
REMARK INTER:                 -10.167
REMARK INTRA:                  -0.390
REMARK UNBOUND:                -0.286
REMARK  Name = 
REMARK  5 active torsions:
REMARK  status: ('A' for Active; 'I' for Inactive)
REMARK    1  A    between atoms: C_1  and  N_2
REMARK    2  A    between atoms: N_2  and  C_3
REMARK    3  A    between atoms: C_7  and  C_8
REMARK    4  A    between atoms: C_9  and  O_10
REMARK    5  A    between atoms: O_10  and  C_11
REMARK                            x       y       z     vdW  Elec       q    Type
REMARK                         _______ _______ _______ _____ _____    ______ ____
ROOT
ATOM      1  C   UNL     1     -11.287   1.113  22.703  0.00  0.00    +0.000 C 
ATOM      2  C   UNL     1     -11.264   0.982  21.174  0.00  0.00    +0.000 C 
ATOM      3  C   UNL     1     -11.962  -0.304  20.775  0.00  0.00    +0.000 C 
ATOM      4  O   UNL     1     -12.158  -1.194  21.875  0.00  0.00    +0.000 OA
ATOM      5  C   UNL     1     -11.006  -1.448  22.729  0.00  0.00    +0.000 C 
ATOM      6  C   UNL     1     -10.435  -0.064  23.293  0.00  0.00    +0.000 C 
ATOM      7  N   UNL     1      -9.991  -2.240  22.028  0.00  0.00    +0.000 N 
ATOM      8  C   UNL     1      -8.843  -2.939  22.477  0.00  0.00    +0.000 A 
ATOM      9  C   UNL     1      -8.490  -3.479  23.722  0.00  0.00    +0.000 A 
ATOM     10  C   UNL     1      -7.182  -3.948  23.912  0.00  0.00    +0.000 A 
ATOM     11  C   UNL     1      -6.214  -3.807  22.928  0.00  0.00    +0.000 A 
ATOM     12  C   UNL     1      -6.589  -3.452  21.634  0.00  0.00    +0.000 A 
ATOM     13  C   UNL     1      -7.945  -3.177  21.360  0.00  0.00    +0.000 A 
ATOM     14  C   UNL     1      -8.739  -3.127  20.201  0.00  0.00    +0.000 A 
ATOM     15  C   UNL     1      -8.673  -4.037  19.131  0.00  0.00    +0.000 A 
ATOM     16  C   UNL     1      -9.894  -4.149  18.413  0.00  0.00    +0.000 A 
ATOM     17  C   UNL     1     -10.881  -3.175  18.724  0.00  0.00    +0.000 A 
ATOM     18  C   UNL     1     -11.276  -2.223  17.710  0.00  0.00    +0.000 A 
ATOM     19  C   UNL     1     -11.474  -2.298  16.317  0.00  0.00    +0.000 A 
ATOM     20  C   UNL     1     -11.631  -1.126  15.569  0.00  0.00    +0.000 A 
ATOM     21  C   UNL     1     -11.540   0.126  16.170  0.00  0.00    +0.000 A 
ATOM     22  C   UNL     1     -11.444   0.252  17.556  0.00  0.00    +0.000 A 
ATOM     23  C   UNL     1     -11.398  -0.917  18.330  0.00  0.00    +0.000 A 
ATOM     24  N   UNL     1     -11.362  -1.054  19.711  0.00  0.00    +0.000 N 
ATOM     25  C   UNL     1     -10.877  -2.308  19.814  0.00  0.00    +0.000 A 
ATOM     26  C   UNL     1      -9.858  -2.481  20.716  0.00  0.00    +0.000 A 
ATOM     27  C   UNL     1      -9.959  -5.452  17.857  0.00  0.00    +0.000 C 
ATOM     28  O   UNL     1     -10.892  -6.150  17.481  0.00  0.00    +0.000 OA
ATOM     29  N   UNL     1      -8.670  -5.910  18.019  0.00  0.00    +0.000 N 
ATOM     30  C   UNL     1      -7.853  -5.152  18.815  0.00  0.00    +0.000 C 
ATOM     31  O   UNL     1      -6.727  -5.490  19.164  0.00  0.00    +0.000 OA
ATOM     32  H   UNL     1     -12.322   1.001  23.055  0.00  0.00    +0.000 HD
ATOM     33  H   UNL     1     -10.234   1.009  20.795  0.00  0.00    +0.000 HD
ATOM     34  H   UNL     1     -11.776   1.822  20.687  0.00  0.00    +0.000 HD
ATOM     35  H   UNL     1     -12.970  -0.053  20.420  0.00  0.00    +0.000 HD
ATOM     36  H   UNL     1     -10.490  -0.081  24.390  0.00  0.00    +0.000 HD
ATOM     37  H   UNL     1      -9.212  -3.613  24.512  0.00  0.00    +0.000 HD
ATOM     38  H   UNL     1      -6.915  -4.417  24.859  0.00  0.00    +0.000 HD
ATOM     39  H   UNL     1      -5.178  -4.040  23.141  0.00  0.00    +0.000 HD
ATOM     40  H   UNL     1      -5.841  -3.397  20.844  0.00  0.00    +0.000 HD
ATOM     41  H   UNL     1     -11.513  -3.267  15.826  0.00  0.00    +0.000 HD
ATOM     42  H   UNL     1     -11.795  -1.195  14.497  0.00  0.00    +0.000 HD
ATOM     43  H   UNL     1     -11.556   1.022  15.554  0.00  0.00    +0.000 HD
ATOM     44  H   UNL     1     -11.349   1.234  18.011  0.00  0.00    +0.000 HD
ATOM     45  H   UNL     1      -8.438  -6.871  17.835  0.00  0.00    +0.000 HD
ENDROOT
BRANCH   5  46
ATOM     46  C   UNL     1     -11.683  -2.316  23.803  0.00  0.00    +0.000 C 
ATOM     47  H   UNL     1     -12.687  -1.917  24.031  0.00  0.00    +0.000 HD
ATOM     48  H   UNL     1     -11.797  -3.359  23.518  0.00  0.00    +0.000 HD
ATOM     49  H   UNL     1     -11.127  -2.284  24.746  0.00  0.00    +0.000 HD
ENDBRANCH   5  46
BRANCH   1  50
ATOM     50  N   UNL     1     -10.894   2.502  22.995  0.00  0.00    +0.000 NA
ATOM     51  H   UNL     1     -11.667   3.009  23.422  0.00  0.00    +0.000 HD
BRANCH  50  52
ATOM     52  C   UNL     1     -10.330   3.232  21.877  0.00  0.00    +0.000 C 
ATOM     53  H   UNL     1     -10.717   2.899  20.914  0.00  0.00    +0.000 HD
ATOM     54  H   UNL     1      -9.240   3.157  21.862  0.00  0.00    +0.000 HD
ATOM     55  H   UNL     1     -10.591   4.290  21.980  0.00  0.00    +0.000 HD
ENDBRANCH  50  52
ENDBRANCH   1  50
BRANCH   6  56
ATOM     56  O   UNL     1      -9.057   0.074  22.882  0.00  0.00    +0.000 OA
BRANCH  56  57
ATOM     57  C   UNL     1      -8.101   0.300  23.902  0.00  0.00    +0.000 C 
ATOM     58  H   UNL     1      -7.335  -0.476  23.888  0.00  0.00    +0.000 HD
ATOM     59  H   UNL     1      -8.607   0.213  24.866  0.00  0.00    +0.000 HD
ATOM     60  H   UNL     1      -7.648   1.293  23.834  0.00  0.00    +0.000 HD
ENDBRANCH  56  57
ENDBRANCH   6  56
TORSDOF 5
ENDMDL
MODEL 3
REMARK VINA RESULT:    -8.257      2.175      5.985
REMARK INTER + INTRA:         -10.233
REMARK INTER:                  -9.910
REMARK INTRA:                  -0.323
REMARK UNBOUND:                -0.286
REMARK  Name = 
REMARK  5 active torsions:
REMARK  status: ('A' for Active; 'I' for Inactive)
REMARK    1  A    between atoms: C_1  and  N_2
REMARK    2  A    between atoms: N_2  and  C_3
REMARK    3  A    between atoms: C_7  and  C_8
REMARK    4  A    between atoms: C_9  and  O_10
REMARK    5  A    between atoms: O_10  and  C_11
REMARK                            x       y       z     vdW  Elec       q    Type
REMARK                         _______ _______ _______ _____ _____    ______ ____
ROOT
ATOM      1  C   UNL     1     -11.819   1.400  18.460  0.00  0.00    +0.000 C 
ATOM      2  C   UNL     1     -11.598   0.617  19.762  0.00  0.00    +0.000 C 
ATOM      3  C   UNL     1     -10.138   0.222  19.862  0.00  0.00    +0.000 C 
ATOM      4  O   UNL     1      -9.435   0.371  18.628  0.00  0.00    +0.000 OA
ATOM      5  C   UNL     1     -10.066  -0.189  17.441  0.00  0.00    +0.000 C 
ATOM      6  C   UNL     1     -11.533   0.424  17.266  0.00  0.00    +0.000 C 
ATOM      7  N   UNL     1     -10.062  -1.655  17.481  0.00  0.00    +0.000 N 
ATOM      8  C   UNL     1     -10.316  -2.641  16.494  0.00  0.00    +0.000 A 
ATOM      9  C   UNL     1     -10.247  -2.618  15.094  0.00  0.00    +0.000 A 
ATOM     10  C   UNL     1     -10.757  -3.708  14.373  0.00  0.00    +0.000 A 
ATOM     11  C   UNL     1     -11.403  -4.757  15.010  0.00  0.00    +0.000 A 
ATOM     12  C   UNL     1     -11.313  -4.887  16.394  0.00  0.00    +0.000 A 
ATOM     13  C   UNL     1     -10.618  -3.909  17.135  0.00  0.00    +0.000 A 
ATOM     14  C   UNL     1     -10.039  -3.850  18.414  0.00  0.00    +0.000 A 
ATOM     15  C   UNL     1      -9.298  -4.881  19.019  0.00  0.00    +0.000 A 
ATOM     16  C   UNL     1      -8.357  -4.410  19.975  0.00  0.00    +0.000 A 
ATOM     17  C   UNL     1      -8.483  -3.042  20.338  0.00  0.00    +0.000 A 
ATOM     18  C   UNL     1      -8.856  -2.704  21.692  0.00  0.00    +0.000 A 
ATOM     19  C   UNL     1      -8.547  -3.239  22.959  0.00  0.00    +0.000 A 
ATOM     20  C   UNL     1      -9.265  -2.825  24.086  0.00  0.00    +0.000 A 
ATOM     21  C   UNL     1     -10.325  -1.931  23.974  0.00  0.00    +0.000 A 
ATOM     22  C   UNL     1     -10.607  -1.300  22.762  0.00  0.00    +0.000 A 
ATOM     23  C   UNL     1      -9.821  -1.621  21.645  0.00  0.00    +0.000 A 
ATOM     24  N   UNL     1      -9.864  -1.094  20.361  0.00  0.00    +0.000 N 
ATOM     25  C   UNL     1      -9.238  -2.075  19.680  0.00  0.00    +0.000 A 
ATOM     26  C   UNL     1      -9.849  -2.476  18.518  0.00  0.00    +0.000 A 
ATOM     27  C   UNL     1      -7.279  -5.331  20.022  0.00  0.00    +0.000 C 
ATOM     28  O   UNL     1      -6.113  -5.229  20.381  0.00  0.00    +0.000 OA
ATOM     29  N   UNL     1      -7.783  -6.414  19.334  0.00  0.00    +0.000 N 
ATOM     30  C   UNL     1      -8.956  -6.212  18.659  0.00  0.00    +0.000 C 
ATOM     31  O   UNL     1      -9.462  -7.029  17.897  0.00  0.00    +0.000 OA
ATOM     32  H   UNL     1     -11.095   2.225  18.414  0.00  0.00    +0.000 HD
ATOM     33  H   UNL     1     -12.252  -0.263  19.804  0.00  0.00    +0.000 HD
ATOM     34  H   UNL     1     -11.859   1.216  20.645  0.00  0.00    +0.000 HD
ATOM     35  H   UNL     1      -9.644   0.906  20.564  0.00  0.00    +0.000 HD
ATOM     36  H   UNL     1     -11.583   0.951  16.304  0.00  0.00    +0.000 HD
ATOM     37  H   UNL     1      -9.749  -1.826  14.558  0.00  0.00    +0.000 HD
ATOM     38  H   UNL     1     -10.659  -3.723  13.288  0.00  0.00    +0.000 HD
ATOM     39  H   UNL     1     -11.917  -5.517  14.433  0.00  0.00    +0.000 HD
ATOM     40  H   UNL     1     -11.769  -5.742  16.893  0.00  0.00    +0.000 HD
ATOM     41  H   UNL     1      -7.745  -3.965  23.060  0.00  0.00    +0.000 HD
ATOM     42  H   UNL     1      -9.011  -3.235  25.060  0.00  0.00    +0.000 HD
ATOM     43  H   UNL     1     -10.937  -1.708  24.845  0.00  0.00    +0.000 HD
ATOM     44  H   UNL     1     -11.452  -0.621  22.681  0.00  0.00    +0.000 HD
ATOM     45  H   UNL     1      -7.190  -7.187  19.087  0.00  0.00    +0.000 HD
ENDROOT
BRANCH   5  46
ATOM     46  C   UNL     1      -9.066   0.299  16.378  0.00  0.00    +0.000 C 
ATOM     47  H   UNL     1      -9.606   0.586  15.459  0.00  0.00    +0.000 HD
ATOM     48  H   UNL     1      -8.470   1.151  16.693  0.00  0.00    +0.000 HD
ATOM     49  H   UNL     1      -8.380  -0.502  16.084  0.00  0.00    +0.000 HD
ENDBRANCH   5  46
BRANCH   1  50
ATOM     50  N   UNL     1     -13.151   2.017  18.582  0.00  0.00    +0.000 NA
ATOM     51  H   UNL     1     -13.198   2.874  18.033  0.00  0.00    +0.000 HD
BRANCH  50  52
ATOM     52  C   UNL     1     -13.613   2.227  19.939  0.00  0.00    +0.000 C 
ATOM     53  H   UNL     1     -13.291   1.442  20.624  0.00  0.00    +0.000 HD
ATOM     54  H   UNL     1     -14.702   2.304  19.980  0.00  0.00    +0.000 HD
ATOM     55  H   UNL     1     -13.198   3.169  20.310  0.00  0.00    +0.000 HD
ENDBRANCH  50  52
ENDBRANCH   1  50
BRANCH   6  56
ATOM     56  O   UNL     1     -12.494  -0.655  17.274  0.00  0.00    +0.000 OA
BRANCH  56  57
ATOM     57  C   UNL     1     -13.328  -0.782  16.137  0.00  0.00    +0.000 C 
ATOM     58  H   UNL     1     -12.816  -0.424  15.243  0.00  0.00    +0.000 HD
ATOM     59  H   UNL     1     -14.192  -0.128  16.276  0.00  0.00    +0.000 HD
ATOM     60  H   UNL     1     -13.685  -1.805  15.996  0.00  0.00    +0.000 HD
ENDBRANCH  56  57
ENDBRANCH   6  56
TORSDOF 5
ENDMDL
MODEL 4
REMARK VINA RESULT:    -7.876      4.978      8.786
REMARK INTER + INTRA:          -9.774
REMARK INTER:                  -9.376
REMARK INTRA:                  -0.398
REMARK UNBOUND:                -0.286
REMARK  Name = 
REMARK  5 active torsions:
REMARK  status: ('A' for Active; 'I' for Inactive)
REMARK    1  A    between atoms: C_1  and  N_2
REMARK    2  A    between atoms: N_2  and  C_3
REMARK    3  A    between atoms: C_7  and  C_8
REMARK    4  A    between atoms: C_9  and  O_10
REMARK    5  A    between atoms: O_10  and  C_11
REMARK                            x       y       z     vdW  Elec       q    Type
REMARK                         _______ _______ _______ _____ _____    ______ ____
ROOT
ATOM      1  C   UNL     1     -11.479   4.313  19.640  0.00  0.00    +0.000 C 
ATOM      2  C   UNL     1     -11.294   2.848  19.218  0.00  0.00    +0.000 C 
ATOM      3  C   UNL     1     -12.272   1.983  19.988  0.00  0.00    +0.000 C 
ATOM      4  O   UNL     1     -12.857   2.659  21.101  0.00  0.00    +0.000 OA
ATOM      5  C   UNL     1     -11.949   3.369  21.990  0.00  0.00    +0.000 C 
ATOM      6  C   UNL     1     -11.084   4.424  21.154  0.00  0.00    +0.000 C 
ATOM      7  N   UNL     1     -11.120   2.433  22.757  0.00  0.00    +0.000 N 
ATOM      8  C   UNL     1     -10.289   2.599  23.894  0.00  0.00    +0.000 A 
ATOM      9  C   UNL     1     -10.273   3.551  24.923  0.00  0.00    +0.000 A 
ATOM     10  C   UNL     1      -9.190   3.567  25.815  0.00  0.00    +0.000 A 
ATOM     11  C   UNL     1      -8.102   2.724  25.644  0.00  0.00    +0.000 A 
ATOM     12  C   UNL     1      -8.186   1.656  24.754  0.00  0.00    +0.000 A 
ATOM     13  C   UNL     1      -9.358   1.488  23.988  0.00  0.00    +0.000 A 
ATOM     14  C   UNL     1      -9.945   0.424  23.281  0.00  0.00    +0.000 A 
ATOM     15  C   UNL     1     -10.002  -0.910  23.721  0.00  0.00    +0.000 A 
ATOM     16  C   UNL     1     -11.099  -1.634  23.179  0.00  0.00    +0.000 A 
ATOM     17  C   UNL     1     -11.798  -0.990  22.123  0.00  0.00    +0.000 A 
ATOM     18  C   UNL     1     -11.767  -1.572  20.800  0.00  0.00    +0.000 A 
ATOM     19  C   UNL     1     -11.794  -2.892  20.308  0.00  0.00    +0.000 A 
ATOM     20  C   UNL     1     -11.510  -3.141  18.960  0.00  0.00    +0.000 A 
ATOM     21  C   UNL     1     -11.144  -2.109  18.102  0.00  0.00    +0.000 A 
ATOM     22  C   UNL     1     -11.198  -0.778  18.515  0.00  0.00    +0.000 A 
ATOM     23  C   UNL     1     -11.591  -0.504  19.833  0.00  0.00    +0.000 A 
ATOM     24  N   UNL     1     -11.778   0.721  20.457  0.00  0.00    +0.000 N 
ATOM     25  C   UNL     1     -11.689   0.347  21.750  0.00  0.00    +0.000 A 
ATOM     26  C   UNL     1     -10.890   1.130  22.544  0.00  0.00    +0.000 A 
ATOM     27  C   UNL     1     -11.461  -2.643  24.108  0.00  0.00    +0.000 C 
ATOM     28  O   UNL     1     -12.496  -3.269  24.295  0.00  0.00    +0.000 OA
ATOM     29  N   UNL     1     -10.389  -2.649  24.974  0.00  0.00    +0.000 N 
ATOM     30  C   UNL     1      -9.501  -1.615  24.848  0.00  0.00    +0.000 C 
ATOM     31  O   UNL     1      -8.575  -1.405  25.623  0.00  0.00    +0.000 OA
ATOM     32  H   UNL     1     -12.540   4.581  19.538  0.00  0.00    +0.000 HD
ATOM     33  H   UNL     1     -10.259   2.523  19.383  0.00  0.00    +0.000 HD
ATOM     34  H   UNL     1     -11.475   2.710  18.144  0.00  0.00    +0.000 HD
ATOM     35  H   UNL     1     -13.110   1.735  19.323  0.00  0.00    +0.000 HD
ATOM     36  H   UNL     1     -11.286   5.431  21.542  0.00  0.00    +0.000 HD
ATOM     37  H   UNL     1     -11.099   4.221  25.095  0.00  0.00    +0.000 HD
ATOM     38  H   UNL     1      -9.196   4.268  26.649  0.00  0.00    +0.000 HD
ATOM     39  H   UNL     1      -7.212   2.846  26.251  0.00  0.00    +0.000 HD
ATOM     40  H   UNL     1      -7.356   0.956  24.659  0.00  0.00    +0.000 HD
ATOM     41  H   UNL     1     -12.044  -3.715  20.973  0.00  0.00    +0.000 HD
ATOM     42  H   UNL     1     -11.543  -4.162  18.588  0.00  0.00    +0.000 HD
ATOM     43  H   UNL     1     -10.822  -2.340  17.089  0.00  0.00    +0.000 HD
ATOM     44  H   UNL     1     -10.887   0.017  17.842  0.00  0.00    +0.000 HD
ATOM     45  H   UNL     1     -10.420  -3.181  25.826  0.00  0.00    +0.000 HD
ENDROOT
BRANCH   5  46
ATOM     46  C   UNL     1     -12.981   4.024  22.925  0.00  0.00    +0.000 C 
ATOM     47  H   UNL     1     -12.910   5.123  22.850  0.00  0.00    +0.000 HD
ATOM     48  H   UNL     1     -14.008   3.742  22.710  0.00  0.00    +0.000 HD
ATOM     49  H   UNL     1     -12.777   3.781  23.972  0.00  0.00    +0.000 HD
ENDBRANCH   5  46
BRANCH   1  50
ATOM     50  N   UNL     1     -10.747   5.115  18.645  0.00  0.00    +0.000 NA
ATOM     51  H   UNL     1     -11.391   5.699  18.114  0.00  0.00    +0.000 HD
BRANCH  50  52
ATOM     52  C   UNL     1      -9.866   4.364  17.773  0.00  0.00    +0.000 C 
ATOM     53  H   UNL     1      -8.918   4.869  17.589  0.00  0.00    +0.000 HD
ATOM     54  H   UNL     1     -10.344   4.152  16.813  0.00  0.00    +0.000 HD
ATOM     55  H   UNL     1      -9.634   3.405  18.248  0.00  0.00    +0.000 HD
ENDBRANCH  50  52
ENDBRANCH   1  50
BRANCH   6  56
ATOM     56  O   UNL     1      -9.683   4.115  21.319  0.00  0.00    +0.000 OA
BRANCH  56  57
ATOM     57  C   UNL     1      -8.834   5.173  21.723  0.00  0.00    +0.000 C 
ATOM     58  H   UNL     1      -8.654   5.132  22.798  0.00  0.00    +0.000 HD
ATOM     59  H   UNL     1      -9.355   6.115  21.537  0.00  0.00    +0.000 HD
ATOM     60  H   UNL     1      -7.890   5.182  21.171  0.00  0.00    +0.000 HD
ENDBRANCH  56  57
ENDBRANCH   6  56
TORSDOF 5
ENDMDL
MODEL 5
REMARK VINA RESULT:    -7.807      2.703      7.935
REMARK INTER + INTRA:          -9.690
REMARK INTER:                  -9.325
REMARK INTRA:                  -0.366
REMARK UNBOUND:                -0.286
REMARK  Name = 
REMARK  5 active torsions:
REMARK  status: ('A' for Active; 'I' for Inactive)
REMARK    1  A    between atoms: C_1  and  N_2
REMARK    2  A    between atoms: N_2  and  C_3
REMARK    3  A    between atoms: C_7  and  C_8
REMARK    4  A    between atoms: C_9  and  O_10
REMARK    5  A    between atoms: O_10  and  C_11
REMARK                            x       y       z     vdW  Elec       q    Type
REMARK                         _______ _______ _______ _____ _____    ______ ____
ROOT
ATOM      1  C   UNL     1     -11.516   2.861  21.443  0.00  0.00    +0.000 C 
ATOM      2  C   UNL     1     -10.844   2.502  20.110  0.00  0.00    +0.000 C 
ATOM      3  C   UNL     1     -11.593   1.348  19.472  0.00  0.00    +0.000 C 
ATOM      4  O   UNL     1     -12.481   0.692  20.378  0.00  0.00    +0.000 OA
ATOM      5  C   UNL     1     -11.942   0.331  21.682  0.00  0.00    +0.000 C 
ATOM      6  C   UNL     1     -11.351   1.631  22.403  0.00  0.00    +0.000 C 
ATOM      7  N   UNL     1     -10.961  -0.753  21.568  0.00  0.00    +0.000 N 
ATOM      8  C   UNL     1     -10.357  -1.604  22.527  0.00  0.00    +0.000 A 
ATOM      9  C   UNL     1     -10.751  -2.015  23.808  0.00  0.00    +0.000 A 
ATOM     10  C   UNL     1      -9.835  -2.715  24.607  0.00  0.00    +0.000 A 
ATOM     11  C   UNL     1      -8.530  -2.929  24.191  0.00  0.00    +0.000 A 
ATOM     12  C   UNL     1      -8.181  -2.700  22.862  0.00  0.00    +0.000 A 
ATOM     13  C   UNL     1      -9.149  -2.189  21.973  0.00  0.00    +0.000 A 
ATOM     14  C   UNL     1      -9.297  -2.145  20.576  0.00  0.00    +0.000 A 
ATOM     15  C   UNL     1      -8.994  -3.197  19.693  0.00  0.00    +0.000 A 
ATOM     16  C   UNL     1      -9.748  -3.154  18.488  0.00  0.00    +0.000 A 
ATOM     17  C   UNL     1     -10.483  -1.959  18.267  0.00  0.00    +0.000 A 
ATOM     18  C   UNL     1     -10.124  -1.107  17.156  0.00  0.00    +0.000 A 
ATOM     19  C   UNL     1      -9.689  -1.345  15.836  0.00  0.00    +0.000 A 
ATOM     20  C   UNL     1      -9.189  -0.290  15.065  0.00  0.00    +0.000 A 
ATOM     21  C   UNL     1      -9.060   0.989  15.596  0.00  0.00    +0.000 A 
ATOM     22  C   UNL     1      -9.565   1.297  16.859  0.00  0.00    +0.000 A 
ATOM     23  C   UNL     1     -10.172   0.273  17.602  0.00  0.00    +0.000 A 
ATOM     24  N   UNL     1     -10.795   0.338  18.841  0.00  0.00    +0.000 N 
ATOM     25  C   UNL     1     -10.746  -0.961  19.201  0.00  0.00    +0.000 A 
ATOM     26  C   UNL     1     -10.321  -1.208  20.482  0.00  0.00    +0.000 A 
ATOM     27  C   UNL     1      -9.888  -4.482  18.011  0.00  0.00    +0.000 C 
ATOM     28  O   UNL     1     -10.697  -5.016  17.263  0.00  0.00    +0.000 OA
ATOM     29  N   UNL     1      -8.973  -5.172  18.776  0.00  0.00    +0.000 N 
ATOM     30  C   UNL     1      -8.436  -4.495  19.837  0.00  0.00    +0.000 C 
ATOM     31  O   UNL     1      -7.714  -5.007  20.686  0.00  0.00    +0.000 OA
ATOM     32  H   UNL     1     -12.588   3.023  21.269  0.00  0.00    +0.000 HD
ATOM     33  H   UNL     1      -9.786   2.255  20.260  0.00  0.00    +0.000 HD
ATOM     34  H   UNL     1     -10.850   3.349  19.412  0.00  0.00    +0.000 HD
ATOM     35  H   UNL     1     -12.233   1.750  18.676  0.00  0.00    +0.000 HD
ATOM     36  H   UNL     1     -11.893   1.789  23.344  0.00  0.00    +0.000 HD
ATOM     37  H   UNL     1     -11.757  -1.875  24.170  0.00  0.00    +0.000 HD
ATOM     38  H   UNL     1     -10.151  -3.084  25.583  0.00  0.00    +0.000 HD
ATOM     39  H   UNL     1      -7.796  -3.341  24.874  0.00  0.00    +0.000 HD
ATOM     40  H   UNL     1      -7.172  -2.922  22.516  0.00  0.00    +0.000 HD
ATOM     41  H   UNL     1      -9.750  -2.345  15.417  0.00  0.00    +0.000 HD
ATOM     42  H   UNL     1      -8.866  -0.482  14.045  0.00  0.00    +0.000 HD
ATOM     43  H   UNL     1      -8.568   1.767  15.016  0.00  0.00    +0.000 HD
ATOM     44  H   UNL     1      -9.437   2.294  17.273  0.00  0.00    +0.000 HD
ATOM     45  H   UNL     1      -8.938  -6.177  18.754  0.00  0.00    +0.000 HD
ENDROOT
BRANCH   5  46
ATOM     46  C   UNL     1     -13.226  -0.206  22.339  0.00  0.00    +0.000 C 
ATOM     47  H   UNL     1     -12.966  -0.923  23.137  0.00  0.00    +0.000 HD
ATOM     48  H   UNL     1     -13.851   0.567  22.777  0.00  0.00    +0.000 HD
ATOM     49  H   UNL     1     -13.834  -0.764  21.621  0.00  0.00    +0.000 HD
ENDBRANCH   5  46
BRANCH   1  50
ATOM     50  N   UNL     1     -10.954   4.163  21.840  0.00  0.00    +0.000 NA
ATOM     51  H   UNL     1      -9.935   4.125  21.843  0.00  0.00    +0.000 HD
BRANCH  50  52
ATOM     52  C   UNL     1     -11.470   4.707  23.080  0.00  0.00    +0.000 C 
ATOM     53  H   UNL     1     -10.901   4.388  23.953  0.00  0.00    +0.000 HD
ATOM     54  H   UNL     1     -12.519   4.436  23.226  0.00  0.00    +0.000 HD
ATOM     55  H   UNL     1     -11.411   5.799  23.037  0.00  0.00    +0.000 HD
ENDBRANCH  50  52
ENDBRANCH   1  50
BRANCH   6  56
ATOM     56  O   UNL     1      -9.951   1.413  22.685  0.00  0.00    +0.000 OA
BRANCH  56  57
ATOM     57  C   UNL     1      -9.524   1.618  24.019  0.00  0.00    +0.000 C 
ATOM     58  H   UNL     1     -10.381   1.737  24.682  0.00  0.00    +0.000 HD
ATOM     59  H   UNL     1      -8.974   2.561  24.057  0.00  0.00    +0.000 HD
ATOM     60  H   UNL     1      -8.868   0.818  24.372  0.00  0.00    +0.000 HD
ENDBRANCH  56  57
ENDBRANCH   6  56
TORSDOF 5
ENDMDL
MODEL 6
REMARK VINA RESULT:    -7.238      2.584      6.397
REMARK INTER + INTRA:          -9.005
REMARK INTER:                  -8.606
REMARK INTRA:                  -0.399
REMARK UNBOUND:                -0.286
REMARK  Name = 
REMARK  5 active torsions:
REMARK  status: ('A' for Active; 'I' for Inactive)
REMARK    1  A    between atoms: C_1  and  N_2
REMARK    2  A    between atoms: N_2  and  C_3
REMARK    3  A    between atoms: C_7  and  C_8
REMARK    4  A    between atoms: C_9  and  O_10
REMARK    5  A    between atoms: O_10  and  C_11
REMARK                            x       y       z     vdW  Elec       q    Type
REMARK                         _______ _______ _______ _____ _____    ______ ____
ROOT
ATOM      1  C   UNL     1     -12.019   2.121  16.573  0.00  0.00    +0.000 C 
ATOM      2  C   UNL     1     -12.096   1.451  17.952  0.00  0.00    +0.000 C 
ATOM      3  C   UNL     1     -10.708   0.998  18.361  0.00  0.00    +0.000 C 
ATOM      4  O   UNL     1      -9.779   1.000  17.276  0.00  0.00    +0.000 OA
ATOM      5  C   UNL     1     -10.212   0.364  16.040  0.00  0.00    +0.000 C 
ATOM      6  C   UNL     1     -11.578   1.027  15.538  0.00  0.00    +0.000 C 
ATOM      7  N   UNL     1     -10.308  -1.091  16.199  0.00  0.00    +0.000 N 
ATOM      8  C   UNL     1     -10.437  -2.150  15.265  0.00  0.00    +0.000 A 
ATOM      9  C   UNL     1     -10.106  -2.259  13.907  0.00  0.00    +0.000 A 
ATOM     10  C   UNL     1     -10.541  -3.386  13.192  0.00  0.00    +0.000 A 
ATOM     11  C   UNL     1     -11.360  -4.340  13.777  0.00  0.00    +0.000 A 
ATOM     12  C   UNL     1     -11.538  -4.346  15.159  0.00  0.00    +0.000 A 
ATOM     13  C   UNL     1     -10.933  -3.338  15.937  0.00  0.00    +0.000 A 
ATOM     14  C   UNL     1     -10.600  -3.190  17.294  0.00  0.00    +0.000 A 
ATOM     15  C   UNL     1     -10.052  -4.195  18.112  0.00  0.00    +0.000 A 
ATOM     16  C   UNL     1      -9.279  -3.683  19.189  0.00  0.00    +0.000 A 
ATOM     17  C   UNL     1      -9.382  -2.283  19.408  0.00  0.00    +0.000 A 
ATOM     18  C   UNL     1      -9.980  -1.804  20.634  0.00  0.00    +0.000 A 
ATOM     19  C   UNL     1      -9.947  -2.235  21.976  0.00  0.00    +0.000 A 
ATOM     20  C   UNL     1     -10.835  -1.686  22.908  0.00  0.00    +0.000 A 
ATOM     21  C   UNL     1     -11.795  -0.756  22.522  0.00  0.00    +0.000 A 
ATOM     22  C   UNL     1     -11.806  -0.227  21.231  0.00  0.00    +0.000 A 
ATOM     23  C   UNL     1     -10.847  -0.686  20.315  0.00  0.00    +0.000 A 
ATOM     24  N   UNL     1     -10.616  -0.277  19.009  0.00  0.00    +0.000 N 
ATOM     25  C   UNL     1      -9.938  -1.346  18.542  0.00  0.00    +0.000 A 
ATOM     26  C   UNL     1     -10.345  -1.823  17.321  0.00  0.00    +0.000 A 
ATOM     27  C   UNL     1      -8.290  -4.646  19.515  0.00  0.00    +0.000 C 
ATOM     28  O   UNL     1      -7.207  -4.567  20.082  0.00  0.00    +0.000 OA
ATOM     29  N   UNL     1      -8.724  -5.762  18.835  0.00  0.00    +0.000 N 
ATOM     30  C   UNL     1      -9.736  -5.568  17.933  0.00  0.00    +0.000 C 
ATOM     31  O   UNL     1     -10.141  -6.427  17.158  0.00  0.00    +0.000 OA
ATOM     32  H   UNL     1     -11.248   2.903  16.599  0.00  0.00    +0.000 HD
ATOM     33  H   UNL     1     -12.800   0.610  17.939  0.00  0.00    +0.000 HD
ATOM     34  H   UNL     1     -12.478   2.140  18.716  0.00  0.00    +0.000 HD
ATOM     35  H   UNL     1     -10.310   1.720  19.087  0.00  0.00    +0.000 HD
ATOM     36  H   UNL     1     -11.413   1.465  14.545  0.00  0.00    +0.000 HD
ATOM     37  H   UNL     1      -9.468  -1.544  13.414  0.00  0.00    +0.000 HD
ATOM     38  H   UNL     1     -10.244  -3.504  12.151  0.00  0.00    +0.000 HD
ATOM     39  H   UNL     1     -11.805  -5.124  13.176  0.00  0.00    +0.000 HD
ATOM     40  H   UNL     1     -12.133  -5.129  15.629  0.00  0.00    +0.000 HD
ATOM     41  H   UNL     1      -9.226  -2.986  22.288  0.00  0.00    +0.000 HD
ATOM     42  H   UNL     1     -10.794  -2.017  23.942  0.00  0.00    +0.000 HD
ATOM     43  H   UNL     1     -12.545  -0.426  23.239  0.00  0.00    +0.000 HD
ATOM     44  H   UNL     1     -12.575   0.481  20.936  0.00  0.00    +0.000 HD
ATOM     45  H   UNL     1      -8.146  -6.582  18.769  0.00  0.00    +0.000 HD
ENDROOT
BRANCH   5  46
ATOM     46  C   UNL     1      -9.002   0.704  15.152  0.00  0.00    +0.000 C 
ATOM     47  H   UNL     1      -8.076   0.679  15.754  0.00  0.00    +0.000 HD
ATOM     48  H   UNL     1      -8.870   0.028  14.312  0.00  0.00    +0.000 HD
ATOM     49  H   UNL     1      -9.075   1.722  14.757  0.00  0.00    +0.000 HD
ENDBRANCH   5  46
BRANCH   1  50
ATOM     50  N   UNL     1     -13.308   2.808  16.386  0.00  0.00    +0.000 NA
ATOM     51  H   UNL     1     -13.169   3.816  16.328  0.00  0.00    +0.000 HD
BRANCH  50  52
ATOM     52  C   UNL     1     -14.335   2.467  17.350  0.00  0.00    +0.000 C 
ATOM     53  H   UNL     1     -14.522   3.263  18.071  0.00  0.00    +0.000 HD
ATOM     54  H   UNL     1     -14.083   1.553  17.892  0.00  0.00    +0.000 HD
ATOM     55  H   UNL     1     -15.274   2.290  16.816  0.00  0.00    +0.000 HD
ENDBRANCH  50  52
ENDBRANCH   1  50
BRANCH   6  56
ATOM     56  O   UNL     1     -12.590   0.000  15.449  0.00  0.00    +0.000 OA
BRANCH  56  57
ATOM     57  C   UNL     1     -13.296  -0.104  14.227  0.00  0.00    +0.000 C 
ATOM     58  H   UNL     1     -12.611  -0.313  13.404  0.00  0.00    +0.000 HD
ATOM     59  H   UNL     1     -13.744   0.869  14.011  0.00  0.00    +0.000 HD
ATOM     60  H   UNL     1     -14.091  -0.853  14.269  0.00  0.00    +0.000 HD
ENDBRANCH  56  57
ENDBRANCH   6  56
TORSDOF 5
ENDMDL
MODEL 7
REMARK VINA RESULT:    -6.635      3.631      5.634
REMARK INTER + INTRA:          -8.279
REMARK INTER:                  -7.917
REMARK INTRA:                  -0.362
REMARK UNBOUND:                -0.286
REMARK  Name = 
REMARK  5 active torsions:
REMARK  status: ('A' for Active; 'I' for Inactive)
REMARK    1  A    between atoms: C_1  and  N_2
REMARK    2  A    between atoms: N_2  and  C_3
REMARK    3  A    between atoms: C_7  and  C_8
REMARK    4  A    between atoms: C_9  and  O_10
REMARK    5  A    between atoms: O_10  and  C_11
REMARK                            x       y       z     vdW  Elec       q    Type
REMARK                         _______ _______ _______ _____ _____    ______ ____
ROOT
ATOM      1  C   UNL     1     -11.814  -3.456  11.955  0.00  0.00    +0.000 C 
ATOM      2  C   UNL     1     -11.227  -3.990  13.269  0.00  0.00    +0.000 C 
ATOM      3  C   UNL     1     -11.800  -3.197  14.427  0.00  0.00    +0.000 C 
ATOM      4  O   UNL     1     -12.447  -1.993  14.011  0.00  0.00    +0.000 OA
ATOM      5  C   UNL     1     -11.717  -1.142  13.083  0.00  0.00    +0.000 C 
ATOM      6  C   UNL     1     -11.317  -1.978  11.779  0.00  0.00    +0.000 C 
ATOM      7  N   UNL     1     -10.562  -0.515  13.734  0.00  0.00    +0.000 N 
ATOM      8  C   UNL     1      -9.710   0.552  13.355  0.00  0.00    +0.000 A 
ATOM      9  C   UNL     1      -9.884   1.637  12.484  0.00  0.00    +0.000 A 
ATOM     10  C   UNL     1      -8.772   2.429  12.158  0.00  0.00    +0.000 A 
ATOM     11  C   UNL     1      -7.500   2.107  12.607  0.00  0.00    +0.000 A 
ATOM     12  C   UNL     1      -7.340   1.158  13.614  0.00  0.00    +0.000 A 
ATOM     13  C   UNL     1      -8.475   0.489  14.117  0.00  0.00    +0.000 A 
ATOM     14  C   UNL     1      -8.772  -0.233  15.285  0.00  0.00    +0.000 A 
ATOM     15  C   UNL     1      -8.364   0.119  16.584  0.00  0.00    +0.000 A 
ATOM     16  C   UNL     1      -9.232  -0.370  17.598  0.00  0.00    +0.000 A 
ATOM     17  C   UNL     1     -10.203  -1.315  17.171  0.00  0.00    +0.000 A 
ATOM     18  C   UNL     1     -10.131  -2.671  17.666  0.00  0.00    +0.000 A 
ATOM     19  C   UNL     1      -9.797  -3.247  18.908  0.00  0.00    +0.000 A 
ATOM     20  C   UNL     1      -9.592  -4.628  19.006  0.00  0.00    +0.000 A 
ATOM     21  C   UNL     1      -9.658  -5.444  17.881  0.00  0.00    +0.000 A 
ATOM     22  C   UNL     1     -10.081  -4.940  16.651  0.00  0.00    +0.000 A 
ATOM     23  C   UNL     1     -10.399  -3.577  16.563  0.00  0.00    +0.000 A 
ATOM     24  N   UNL     1     -10.891  -2.858  15.483  0.00  0.00    +0.000 N 
ATOM     25  C   UNL     1     -10.556  -1.606  15.856  0.00  0.00    +0.000 A 
ATOM     26  C   UNL     1      -9.962  -0.835  14.889  0.00  0.00    +0.000 A 
ATOM     27  C   UNL     1      -9.161   0.517  18.703  0.00  0.00    +0.000 C 
ATOM     28  O   UNL     1      -9.925   0.752  19.631  0.00  0.00    +0.000 OA
ATOM     29  N   UNL     1      -8.057   1.282  18.400  0.00  0.00    +0.000 N 
ATOM     30  C   UNL     1      -7.554   1.148  17.134  0.00  0.00    +0.000 C 
ATOM     31  O   UNL     1      -6.663   1.851  16.669  0.00  0.00    +0.000 OA
ATOM     32  H   UNL     1     -12.910  -3.446  12.033  0.00  0.00    +0.000 HD
ATOM     33  H   UNL     1     -10.131  -3.939  13.256  0.00  0.00    +0.000 HD
ATOM     34  H   UNL     1     -11.468  -5.050  13.419  0.00  0.00    +0.000 HD
ATOM     35  H   UNL     1     -12.584  -3.800  14.903  0.00  0.00    +0.000 HD
ATOM     36  H   UNL     1     -11.780  -1.507  10.902  0.00  0.00    +0.000 HD
ATOM     37  H   UNL     1     -10.855   1.927  12.117  0.00  0.00    +0.000 HD
ATOM     38  H   UNL     1      -8.909   3.305  11.525  0.00  0.00    +0.000 HD
ATOM     39  H   UNL     1      -6.634   2.640  12.231  0.00  0.00    +0.000 HD
ATOM     40  H   UNL     1      -6.349   0.944  14.011  0.00  0.00    +0.000 HD
ATOM     41  H   UNL     1      -9.707  -2.619  19.791  0.00  0.00    +0.000 HD
ATOM     42  H   UNL     1      -9.345  -5.063  19.970  0.00  0.00    +0.000 HD
ATOM     43  H   UNL     1      -9.388  -6.495  17.961  0.00  0.00    +0.000 HD
ATOM     44  H   UNL     1     -10.105  -5.583  15.775  0.00  0.00    +0.000 HD
ATOM     45  H   UNL     1      -7.831   2.097  18.945  0.00  0.00    +0.000 HD
ENDROOT
BRANCH   5  46
ATOM     46  C   UNL     1     -12.798  -0.078  12.822  0.00  0.00    +0.000 C 
ATOM     47  H   UNL     1     -12.340   0.926  12.806  0.00  0.00    +0.000 HD
ATOM     48  H   UNL     1     -13.332  -0.215  11.885  0.00  0.00    +0.000 HD
ATOM     49  H   UNL     1     -13.536  -0.058  13.630  0.00  0.00    +0.000 HD
ENDBRANCH   5  46
BRANCH   1  50
ATOM     50  N   UNL     1     -11.476  -4.455  10.927  0.00  0.00    +0.000 NA
ATOM     51  H   UNL     1     -10.478  -4.660  10.944  0.00  0.00    +0.000 HD
BRANCH  50  52
ATOM     52  C   UNL     1     -11.933  -4.142   9.588  0.00  0.00    +0.000 C 
ATOM     53  H   UNL     1     -12.593  -3.275   9.556  0.00  0.00    +0.000 HD
ATOM     54  H   UNL     1     -12.449  -4.993   9.136  0.00  0.00    +0.000 HD
ATOM     55  H   UNL     1     -11.064  -3.910   8.965  0.00  0.00    +0.000 HD
ENDBRANCH  50  52
ENDBRANCH   1  50
BRANCH   6  56
ATOM     56  O   UNL     1      -9.880  -1.959  11.634  0.00  0.00    +0.000 OA
BRANCH  56  57
ATOM     57  C   UNL     1      -9.365  -1.503  10.397  0.00  0.00    +0.000 C 
ATOM     58  H   UNL     1      -9.721  -2.130   9.579  0.00  0.00    +0.000 HD
ATOM     59  H   UNL     1      -8.279  -1.619  10.419  0.00  0.00    +0.000 HD
ATOM     60  H   UNL     1      -9.600  -0.452  10.211  0.00  0.00    +0.000 HD
ENDBRANCH  56  57
ENDBRANCH   6  56
TORSDOF 5
ENDMDL
MODEL 8
REMARK VINA RESULT:    -6.621      4.577      7.590
REMARK INTER + INTRA:          -8.263
REMARK INTER:                  -7.946
REMARK INTRA:                  -0.317
REMARK UNBOUND:                -0.286
REMARK  Name = 
REMARK  5 active torsions:
REMARK  status: ('A' for Active; 'I' for Inactive)
REMARK    1  A    between atoms: C_1  and  N_2
REMARK    2  A    between atoms: N_2  and  C_3
REMARK    3  A    between atoms: C_7  and  C_8
REMARK    4  A    between atoms: C_9  and  O_10
REMARK    5  A    between atoms: O_10  and  C_11
REMARK                            x       y       z     vdW  Elec       q    Type
REMARK                         _______ _______ _______ _____ _____    ______ ____
ROOT
ATOM      1  C   UNL     1      -8.791  -1.776  22.062  0.00  0.00    +0.000 C 
ATOM      2  C   UNL     1      -8.349  -0.558  22.886  0.00  0.00    +0.000 C 
ATOM      3  C   UNL     1      -9.534  -0.038  23.676  0.00  0.00    +0.000 C 
ATOM      4  O   UNL     1     -10.781  -0.569  23.225  0.00  0.00    +0.000 OA
ATOM      5  C   UNL     1     -11.031  -0.532  21.792  0.00  0.00    +0.000 C 
ATOM      6  C   UNL     1      -9.850  -1.282  21.015  0.00  0.00    +0.000 C 
ATOM      7  N   UNL     1     -11.236   0.843  21.325  0.00  0.00    +0.000 N 
ATOM      8  C   UNL     1     -11.742   1.378  20.114  0.00  0.00    +0.000 A 
ATOM      9  C   UNL     1     -12.589   0.854  19.128  0.00  0.00    +0.000 A 
ATOM     10  C   UNL     1     -12.754   1.562  17.929  0.00  0.00    +0.000 A 
ATOM     11  C   UNL     1     -12.030   2.716  17.666  0.00  0.00    +0.000 A 
ATOM     12  C   UNL     1     -11.337   3.347  18.696  0.00  0.00    +0.000 A 
ATOM     13  C   UNL     1     -11.328   2.764  19.980  0.00  0.00    +0.000 A 
ATOM     14  C   UNL     1     -11.061   3.221  21.282  0.00  0.00    +0.000 A 
ATOM     15  C   UNL     1     -11.474   4.458  21.811  0.00  0.00    +0.000 A 
ATOM     16  C   UNL     1     -11.619   4.444  23.225  0.00  0.00    +0.000 A 
ATOM     17  C   UNL     1     -11.102   3.296  23.883  0.00  0.00    +0.000 A 
ATOM     18  C   UNL     1      -9.979   3.445  24.781  0.00  0.00    +0.000 A 
ATOM     19  C   UNL     1      -9.592   4.427  25.714  0.00  0.00    +0.000 A 
ATOM     20  C   UNL     1      -8.307   4.397  26.268  0.00  0.00    +0.000 A 
ATOM     21  C   UNL     1      -7.377   3.441  25.872  0.00  0.00    +0.000 A 
ATOM     22  C   UNL     1      -7.741   2.392  25.027  0.00  0.00    +0.000 A 
ATOM     23  C   UNL     1      -9.060   2.346  24.551  0.00  0.00    +0.000 A 
ATOM     24  N   UNL     1      -9.674   1.386  23.758  0.00  0.00    +0.000 N 
ATOM     25  C   UNL     1     -10.717   2.099  23.286  0.00  0.00    +0.000 A 
ATOM     26  C   UNL     1     -10.945   2.000  21.937  0.00  0.00    +0.000 A 
ATOM     27  C   UNL     1     -12.606   5.402  23.574  0.00  0.00    +0.000 C 
ATOM     28  O   UNL     1     -13.329   5.531  24.554  0.00  0.00    +0.000 OA
ATOM     29  N   UNL     1     -12.755   6.116  22.406  0.00  0.00    +0.000 N 
ATOM     30  C   UNL     1     -12.159   5.589  21.292  0.00  0.00    +0.000 C 
ATOM     31  O   UNL     1     -12.308   6.030  20.157  0.00  0.00    +0.000 OA
ATOM     32  H   UNL     1      -9.276  -2.501  22.730  0.00  0.00    +0.000 HD
ATOM     33  H   UNL     1      -7.932   0.222  22.237  0.00  0.00    +0.000 HD
ATOM     34  H   UNL     1      -7.546  -0.813  23.588  0.00  0.00    +0.000 HD
ATOM     35  H   UNL     1      -9.430  -0.378  24.715  0.00  0.00    +0.000 HD
ATOM     36  H   UNL     1     -10.276  -2.125  20.456  0.00  0.00    +0.000 HD
ATOM     37  H   UNL     1     -13.175  -0.036  19.292  0.00  0.00    +0.000 HD
ATOM     38  H   UNL     1     -13.452   1.188  17.180  0.00  0.00    +0.000 HD
ATOM     39  H   UNL     1     -12.059   3.169  16.682  0.00  0.00    +0.000 HD
ATOM     40  H   UNL     1     -10.816   4.286  18.509  0.00  0.00    +0.000 HD
ATOM     41  H   UNL     1     -10.294   5.202  26.010  0.00  0.00    +0.000 HD
ATOM     42  H   UNL     1      -8.022   5.152  26.996  0.00  0.00    +0.000 HD
ATOM     43  H   UNL     1      -6.353   3.502  26.233  0.00  0.00    +0.000 HD
ATOM     44  H   UNL     1      -7.000   1.665  24.705  0.00  0.00    +0.000 HD
ATOM     45  H   UNL     1     -13.493   6.791  22.307  0.00  0.00    +0.000 HD
ENDROOT
BRANCH   5  46
ATOM     46  C   UNL     1     -12.369  -1.292  21.755  0.00  0.00    +0.000 C 
ATOM     47  H   UNL     1     -13.142  -0.667  21.276  0.00  0.00    +0.000 HD
ATOM     48  H   UNL     1     -12.324  -2.235  21.218  0.00  0.00    +0.000 HD
ATOM     49  H   UNL     1     -12.734  -1.497  22.767  0.00  0.00    +0.000 HD
ENDBRANCH   5  46
BRANCH   1  50
ATOM     50  N   UNL     1      -7.551  -2.410  21.585  0.00  0.00    +0.000 NA
ATOM     51  H   UNL     1      -7.066  -1.798  20.930  0.00  0.00    +0.000 HD
BRANCH  50  52
ATOM     52  C   UNL     1      -7.708  -3.746  21.046  0.00  0.00    +0.000 C 
ATOM     53  H   UNL     1      -8.743  -3.987  20.802  0.00  0.00    +0.000 HD
ATOM     54  H   UNL     1      -7.326  -4.501  21.738  0.00  0.00    +0.000 HD
ATOM     55  H   UNL     1      -7.132  -3.823  20.119  0.00  0.00    +0.000 HD
ENDBRANCH  50  52
ENDBRANCH   1  50
BRANCH   6  56
ATOM     56  O   UNL     1      -9.234  -0.355  20.095  0.00  0.00    +0.000 OA
BRANCH  56  57
ATOM     57  C   UNL     1      -9.234  -0.713  18.725  0.00  0.00    +0.000 C 
ATOM     58  H   UNL     1      -8.232  -0.617  18.304  0.00  0.00    +0.000 HD
ATOM     59  H   UNL     1      -9.860   0.003  18.188  0.00  0.00    +0.000 HD
ATOM     60  H   UNL     1      -9.630  -1.718  18.558  0.00  0.00    +0.000 HD
ENDBRANCH  56  57
ENDBRANCH   6  56
TORSDOF 5
ENDMDL
