REMARK  Name = 
REMARK  10 active torsions:
REMARK  status: ('A' for Active; 'I' for Inactive)
REMARK    1  A    between atoms: C_1  and  O_2
REMARK    2  A    between atoms: O_2  and  C_3
REMARK    3  A    between atoms: N_17  and  C_18
REMARK    4  A    between atoms: N_21  and  C_22
REMARK    5  A    between atoms: C_22  and  C_23
REMARK    6  A    between atoms: C_23  and  C_24
REMARK    7  A    between atoms: C_24  and  N_25
REMARK    8  A    between atoms: N_25  and  C_26
REMARK    9  A    between atoms: C_26  and  C_27
REMARK   10  A    between atoms: C_27  and  O_28
REMARK                            x       y       z     vdW  Elec       q    Type
REMARK                         _______ _______ _______ _____ _____    ______ ____
ROOT
ATOM      1  C   UNL     1      -3.712   2.166   1.366  0.00  0.00    +0.000 A 
ATOM      2  C   UNL     1      -4.174   1.865   0.090  0.00  0.00    +0.000 A 
ATOM      3  C   UNL     1      -3.563   0.859  -0.669  0.00  0.00    +0.000 A 
ATOM      4  C   UNL     1      -2.467   0.150  -0.141  0.00  0.00    +0.000 A 
ATOM      5  C   UNL     1      -1.668  -0.924  -0.500  0.00  0.00    +0.000 A 
ATOM      6  C   UNL     1      -1.757  -1.545  -1.759  0.00  0.00    +0.000 A 
ATOM      7  C   UNL     1      -1.031  -2.732  -1.913  0.00  0.00    +0.000 A 
ATOM      8  C   UNL     1       0.057  -3.068  -1.111  0.00  0.00    +0.000 A 
ATOM      9  C   UNL     1       0.257  -2.299   0.079  0.00  0.00    +0.000 A 
ATOM     10  C   UNL     1       1.516  -2.355   0.693  0.00  0.00    +0.000 A 
ATOM     11  C   UNL     1       2.634  -2.625  -0.107  0.00  0.00    +0.000 A 
ATOM     12  C   UNL     1       2.375  -2.997  -1.427  0.00  0.00    +0.000 A 
ATOM     13  C   UNL     1       2.568  -2.368  -2.722  0.00  0.00    +0.000 A 
ATOM     14  C   UNL     1       1.880  -3.125  -3.647  0.00  0.00    +0.000 A 
ATOM     15  N   UNL     1       1.533  -4.258  -2.920  0.00  0.00    +0.000 N 
ATOM     16  C   UNL     1       1.192  -3.720  -1.668  0.00  0.00    +0.000 A 
ATOM     17  C   UNL     1      -0.697  -1.290   0.412  0.00  0.00    +0.000 A 
ATOM     18  N   UNL     1      -0.858  -0.322   1.394  0.00  0.00    +0.000 N 
ATOM     19  C   UNL     1      -1.976   0.490   1.126  0.00  0.00    +0.000 A 
ATOM     20  C   UNL     1      -2.597   1.500   1.888  0.00  0.00    +0.000 A 
ATOM     21  C   UNL     1      -1.377  -3.268  -3.192  0.00  0.00    +0.000 C 
ATOM     22  O   UNL     1      -1.373  -4.412  -3.647  0.00  0.00    +0.000 OA
ATOM     23  N   UNL     1      -1.885  -2.190  -3.858  0.00  0.00    +0.000 N 
ATOM     24  C   UNL     1      -2.240  -1.147  -3.040  0.00  0.00    +0.000 C 
ATOM     25  O   UNL     1      -2.681  -0.091  -3.485  0.00  0.00    +0.000 OA
ATOM     26  H   UNL     1      -5.023   2.375  -0.353  0.00  0.00    +0.000 HD
ATOM     27  H   UNL     1      -3.977   0.623  -1.645  0.00  0.00    +0.000 HD
ATOM     28  H   UNL     1       1.715  -1.924   1.658  0.00  0.00    +0.000 HD
ATOM     29  H   UNL     1       3.619  -2.310   0.210  0.00  0.00    +0.000 HD
ATOM     30  H   UNL     1       3.004  -1.388  -2.902  0.00  0.00    +0.000 HD
ATOM     31  H   UNL     1       1.703  -3.068  -4.718  0.00  0.00    +0.000 HD
ATOM     32  H   UNL     1      -2.248   1.755   2.883  0.00  0.00    +0.000 HD
ATOM     33  H   UNL     1      -1.309  -1.888  -4.633  0.00  0.00    +0.000 HD
ENDROOT
BRANCH  15  34
ATOM     34  C   UNL     1       2.441  -5.414  -3.046  0.00  0.00    +0.000 C 
ATOM     35  H   UNL     1       2.305  -5.854  -4.039  0.00  0.00    +0.000 HD
ATOM     36  H   UNL     1       2.235  -6.137  -2.254  0.00  0.00    +0.000 HD
ATOM     37  H   UNL     1       3.473  -5.055  -2.952  0.00  0.00    +0.000 HD
ENDBRANCH  15  34
BRANCH  18  38
ATOM     38  C   UNL     1      -0.075  -0.191   2.613  0.00  0.00    +0.000 C 
ATOM     39  H   UNL     1       0.120  -1.210   2.971  0.00  0.00    +0.000 HD
ATOM     40  H   UNL     1      -0.716   0.259   3.399  0.00  0.00    +0.000 HD
BRANCH  38  41
ATOM     41  C   UNL     1       1.236   0.594   2.499  0.00  0.00    +0.000 C 
ATOM     42  H   UNL     1       1.863   0.175   1.709  0.00  0.00    +0.000 HD
ATOM     43  H   UNL     1       1.786   0.457   3.441  0.00  0.00    +0.000 HD
BRANCH  41  44
ATOM     44  C   UNL     1       1.089   2.095   2.233  0.00  0.00    +0.000 C 
ATOM     45  H   UNL     1       0.484   2.557   3.021  0.00  0.00    +0.000 HD
ATOM     46  H   UNL     1       0.599   2.261   1.268  0.00  0.00    +0.000 HD
BRANCH  44  47
ATOM     47  N   UNL     1       2.439   2.682   2.217  0.00  0.00    +0.000 NA
ATOM     48  H   UNL     1       2.964   2.249   1.455  0.00  0.00    +0.000 HD
BRANCH  47  49
ATOM     49  C   UNL     1       2.395   4.132   1.964  0.00  0.00    +0.000 C 
ATOM     50  H   UNL     1       1.793   4.636   2.728  0.00  0.00    +0.000 HD
ATOM     51  H   UNL     1       1.942   4.311   0.982  0.00  0.00    +0.000 HD
BRANCH  49  52
ATOM     52  C   UNL     1       3.810   4.730   1.974  0.00  0.00    +0.000 C 
ATOM     53  H   UNL     1       4.298   4.600   2.945  0.00  0.00    +0.000 HD
ATOM     54  H   UNL     1       3.762   5.806   1.763  0.00  0.00    +0.000 HD
BRANCH  52  55
ATOM     55  O   UNL     1       4.623   4.128   0.971  0.00  0.00    +0.000 OA
ATOM     56  H   UNL     1       4.807   3.227   1.287  0.00  0.00    +0.000 HD
ENDBRANCH  52  55
ENDBRANCH  49  52
ENDBRANCH  47  49
ENDBRANCH  44  47
ENDBRANCH  41  44
ENDBRANCH  38  41
ENDBRANCH  18  38
BRANCH   1  57
ATOM     57  O   UNL     1      -4.263   3.095   2.212  0.00  0.00    +0.000 OA
BRANCH  57  58
ATOM     58  C   UNL     1      -5.473   3.714   1.789  0.00  0.00    +0.000 C 
ATOM     59  H   UNL     1      -5.806   4.376   2.593  0.00  0.00    +0.000 HD
ATOM     60  H   UNL     1      -6.264   2.976   1.616  0.00  0.00    +0.000 HD
ATOM     61  H   UNL     1      -5.305   4.330   0.900  0.00  0.00    +0.000 HD
ENDBRANCH  57  58
ENDBRANCH   1  57
TORSDOF 10
