
 OpenBabel01112422373D

 26 28  0  0  0  0  0  0  0  0999 V2000
    0.9445    0.1026   -0.0491 O   0  0  0  0  0  0  0  0  0  0  0  0
    2.3136    0.0764   -0.0502 C   0  0  0  0  0  0  0  0  0  0  0  0
    3.0331    1.2750   -0.0505 C   0  0  0  0  0  0  0  0  0  0  0  0
    4.4327    1.1818   -0.0508 C   0  0  0  0  0  0  0  0  0  0  0  0
    5.3885    2.1733   -0.0498 N   0  0  0  0  0  0  0  0  0  0  0  0
    6.6579    1.6427   -0.0487 C   0  0  0  0  0  0  0  0  0  0  0  0
    7.9246    2.2418   -0.0453 C   0  0  0  0  0  0  0  0  0  0  0  0
    8.1432    3.6023   -0.0438 O   0  0  0  0  0  0  0  0  0  0  0  0
    9.0495    1.4129   -0.0424 C   0  0  0  0  0  0  0  0  0  0  0  0
   10.2990    1.9701   -0.0366 O   0  0  0  0  0  0  0  0  0  0  0  0
    8.9380    0.0336   -0.0451 C   0  0  0  0  0  0  0  0  0  0  0  0
    7.6709   -0.5594   -0.0493 C   0  0  0  0  0  0  0  0  0  0  0  0
    6.5115    0.2508   -0.0503 C   0  0  0  0  0  0  0  0  0  0  0  0
    5.1093   -0.0368   -0.0511 C   0  0  0  0  0  0  0  0  0  0  0  0
    4.3584   -1.2323   -0.0509 C   0  0  0  0  0  0  0  0  0  0  0  0
    2.9630   -1.1566   -0.0502 C   0  0  0  0  0  0  0  0  0  0  0  0
    2.2164   -2.3039   -0.0491 O   0  0  0  0  0  0  0  0  0  0  0  0
    0.6424    1.0229   -0.0489 H   0  0  0  0  0  0  0  0  0  0  0  0
    2.5368    2.2383   -0.0504 H   0  0  0  0  0  0  0  0  0  0  0  0
    5.1704    3.1575   -0.0478 H   0  0  0  0  0  0  0  0  0  0  0  0
    7.2830    4.0483   -0.0572 H   0  0  0  0  0  0  0  0  0  0  0  0
   10.1375    2.9341   -0.0320 H   0  0  0  0  0  0  0  0  0  0  0  0
    9.8313   -0.5840   -0.0437 H   0  0  0  0  0  0  0  0  0  0  0  0
    7.5828   -1.6421   -0.0508 H   0  0  0  0  0  0  0  0  0  0  0  0
    4.8713   -2.1874   -0.0506 H   0  0  0  0  0  0  0  0  0  0  0  0
    2.8121   -3.0684   -0.0477 H   0  0  0  0  0  0  0  0  0  0  0  0
  1  2  1  0  0  0  0
  1 18  1  0  0  0  0
  2  3  1  0  0  0  0
  2 16  2  0  0  0  0
  3  4  2  0  0  0  0
  3 19  1  0  0  0  0
  4  5  1  0  0  0  0
  4 14  1  0  0  0  0
  5  6  1  0  0  0  0
  5 20  1  0  0  0  0
  6  7  1  0  0  0  0
  6 13  2  0  0  0  0
  7  8  1  0  0  0  0
  7  9  2  0  0  0  0
  8 21  1  0  0  0  0
  9 10  1  0  0  0  0
  9 11  1  0  0  0  0
 10 22  1  0  0  0  0
 11 12  2  0  0  0  0
 11 23  1  0  0  0  0
 12 13  1  0  0  0  0
 12 24  1  0  0  0  0
 13 14  1  0  0  0  0
 14 15  2  0  0  0  0
 15 16  1  0  0  0  0
 15 25  1  0  0  0  0
 16 17  1  0  0  0  0
 17 26  1  0  0  0  0
M  END
$$$$
