MODEL 1
REMARK VINA RESULT:    -8.682      0.000      0.000
REMARK INTER + INTRA:         -12.604
REMARK INTER:                 -13.250
REMARK INTRA:                   0.646
REMARK UNBOUND:                 0.646
REMARK  Name = 
REMARK  12 active torsions:
REMARK  status: ('A' for Active; 'I' for Inactive)
REMARK    1  A    between atoms: CG1_1  and  CB_2
REMARK    2  A    between atoms: CB_2  and  CG2_3
REMARK    3  A    between atoms: CB_2  and  CA_4
REMARK    4  A    between atoms: CA_4  and  C_5
REMARK    5  A    between atoms: CA_4  and  N_7
REMARK    6  A    between atoms: C_5  and  O_6
REMARK    7  A    between atoms: N_11  and  C_12
REMARK    8  A    between atoms: C_15  and  C_16
REMARK    9  A    between atoms: C_16  and  O_18
REMARK   10  A    between atoms: N_25  and  C_26
REMARK   11  A    between atoms: C_26  and  C_27
REMARK   12  A    between atoms: C_26  and  C_28
REMARK                            x       y       z     vdW  Elec       q    Type
REMARK                         _______ _______ _______ _____ _____    ______ ____
ROOT
ATOM      1  N   VAL A   1     -10.633  -2.717  16.661  0.00  0.00    +0.000 N 
ATOM      2  C   UNK A   0     -10.219  -3.921  17.225  0.00  0.00    +0.000 A 
ATOM      3  N   UNK A   0     -10.746  -5.094  16.795  0.00  0.00    +0.000 NA
ATOM      4  C   UNK A   0     -10.296  -6.277  17.307  0.00  0.00    +0.000 A 
ATOM      5  N   UNK A   0     -10.765  -7.494  16.781  0.00  0.00    +0.000 N 
ATOM      6  C   UNK A   0      -9.385  -6.212  18.379  0.00  0.00    +0.000 A 
ATOM      7  N   UNK A   0      -8.810  -7.184  19.175  0.00  0.00    +0.000 NA
ATOM      8  C   UNK A   0      -8.044  -6.532  20.016  0.00  0.00    +0.000 A 
ATOM      9  N   UNK A   0      -8.094  -5.178  19.803  0.00  0.00    +0.000 N 
ATOM     10  C   UNK A   0      -8.935  -4.958  18.741  0.00  0.00    +0.000 A 
ATOM     11  N   UNK A   0      -9.269  -3.793  18.169  0.00  0.00    +0.000 NA
ATOM     12  H   VAL A   1      -9.845  -2.361  16.134  0.00  0.00    +0.000 HD
ATOM     13  H   UNK A   0     -11.568  -7.386  16.176  0.00  0.00    +0.000 HD
ATOM     14  H   UNK A   0      -7.447  -6.984  20.797  0.00  0.00    +0.000 HD
ENDROOT
BRANCH   5  15
ATOM     15  C   UNK A   0     -10.069  -8.716  16.698  0.00  0.00    +0.000 A 
ATOM     16  C   UNK A   0     -10.101  -9.472  15.524  0.00  0.00    +0.000 A 
ATOM     17  C   UNK A   0      -9.537 -10.756  15.486  0.00  0.00    +0.000 A 
ATOM     18  C   UNK A   0      -8.932 -11.317  16.626  0.00  0.00    +0.000 A 
ATOM     19  C   UNK A   0      -8.851 -10.545  17.786  0.00  0.00    +0.000 A 
ATOM     20 CL   UNK A   0      -8.088 -11.085  19.241  0.00  0.00    +0.000 Cl
ATOM     21  C   UNK A   0      -9.409  -9.262  17.810  0.00  0.00    +0.000 A 
ATOM     22  H   UNK A   0     -10.611  -9.095  14.641  0.00  0.00    +0.000 HD
ATOM     23  H   UNK A   0      -9.601 -11.338  14.566  0.00  0.00    +0.000 HD
ATOM     24  H   UNK A   0      -9.342  -8.685  18.730  0.00  0.00    +0.000 HD
BRANCH  18  25
ATOM     25  C   UNK A   0      -8.415 -12.703  16.495  0.00  0.00    +0.000 C 
ATOM     26  O   UNK A   0      -7.820 -13.074  15.496  0.00  0.00    +0.000 OA
BRANCH  25  27
ATOM     27  O   UNK A   0      -8.730 -13.545  17.500  0.00  0.00    +0.000 OA
ATOM     28  H   UNK A   0      -9.354 -13.190  18.158  0.00  0.00    +0.000 HD
ENDBRANCH  25  27
ENDBRANCH  18  25
ENDBRANCH   5  15
BRANCH   1  29
ATOM     29  CA  VAL A   1     -11.928  -2.666  15.978  0.00  0.00    +0.000 C 
ATOM     30  HA  VAL A   1     -12.497  -3.588  16.160  0.00  0.00    +0.000 HD
BRANCH  29  31
ATOM     31  C   VAL A   1     -12.749  -1.464  16.526  0.00  0.00    +0.000 C 
ATOM     32  H1  VAL A   1     -13.274  -1.731  17.448  0.00  0.00    +0.000 HD
ATOM     33  H2  VAL A   1     -12.090  -0.625  16.777  0.00  0.00    +0.000 HD
BRANCH  31  34
ATOM     34  O   VAL A   1     -13.720  -0.992  15.595  0.00  0.00    +0.000 OA
ATOM     35  H   VAL A   1     -13.408  -0.136  15.256  0.00  0.00    +0.000 HD
ENDBRANCH  31  34
ENDBRANCH  29  31
BRANCH  29  36
ATOM     36  CB  VAL A   1     -11.760  -2.556  14.427  0.00  0.00    +0.000 C 
ATOM     37  HB  VAL A   1     -12.623  -1.995  14.046  0.00  0.00    +0.000 HD
BRANCH  36  38
ATOM     38  CG1 VAL A   1     -11.812  -3.915  13.719  0.00  0.00    +0.000 C 
ATOM     39 HG11 VAL A   1     -11.345  -4.687  14.341  0.00  0.00    +0.000 HD
ATOM     40 HG12 VAL A   1     -11.264  -3.881  12.773  0.00  0.00    +0.000 HD
ATOM     41 HG13 VAL A   1     -12.838  -4.235  13.515  0.00  0.00    +0.000 HD
ENDBRANCH  36  38
BRANCH  36  42
ATOM     42  CG2 VAL A   1     -10.511  -1.791  13.973  0.00  0.00    +0.000 C 
ATOM     43 HG21 VAL A   1     -10.549  -1.551  12.907  0.00  0.00    +0.000 HD
ATOM     44 HG22 VAL A   1      -9.592  -2.350  14.171  0.00  0.00    +0.000 HD
ATOM     45 HG23 VAL A   1     -10.430  -0.848  14.525  0.00  0.00    +0.000 HD
ENDBRANCH  36  42
ENDBRANCH  29  36
ENDBRANCH   1  29
BRANCH   9  46
ATOM     46  C   UNK A   0      -7.412  -4.174  20.607  0.00  0.00    +0.000 C 
ATOM     47  H   UNK A   0      -7.452  -3.232  20.047  0.00  0.00    +0.000 HD
BRANCH  46  48
ATOM     48  C   UNK A   0      -8.124  -3.962  21.947  0.00  0.00    +0.000 C 
ATOM     49  H   UNK A   0      -9.107  -3.495  21.816  0.00  0.00    +0.000 HD
ATOM     50  H   UNK A   0      -7.535  -3.313  22.603  0.00  0.00    +0.000 HD
ATOM     51  H   UNK A   0      -8.277  -4.917  22.461  0.00  0.00    +0.000 HD
ENDBRANCH  46  48
BRANCH  46  52
ATOM     52  C   UNK A   0      -5.943  -4.539  20.826  0.00  0.00    +0.000 C 
ATOM     53  H   UNK A   0      -5.330  -4.305  19.948  0.00  0.00    +0.000 HD
ATOM     54  H   UNK A   0      -5.838  -5.611  21.028  0.00  0.00    +0.000 HD
ATOM     55  H   UNK A   0      -5.525  -3.991  21.677  0.00  0.00    +0.000 HD
ENDBRANCH  46  52
ENDBRANCH   9  46
TORSDOF 12
ENDMDL
MODEL 2
REMARK VINA RESULT:    -8.424      1.749      2.151
REMARK INTER + INTRA:         -12.210
REMARK INTER:                 -11.985
REMARK INTRA:                  -0.225
REMARK UNBOUND:                 0.646
REMARK  Name = 
REMARK  12 active torsions:
REMARK  status: ('A' for Active; 'I' for Inactive)
REMARK    1  A    between atoms: CG1_1  and  CB_2
REMARK    2  A    between atoms: CB_2  and  CG2_3
REMARK    3  A    between atoms: CB_2  and  CA_4
REMARK    4  A    between atoms: CA_4  and  C_5
REMARK    5  A    between atoms: CA_4  and  N_7
REMARK    6  A    between atoms: C_5  and  O_6
REMARK    7  A    between atoms: N_11  and  C_12
REMARK    8  A    between atoms: C_15  and  C_16
REMARK    9  A    between atoms: C_16  and  O_18
REMARK   10  A    between atoms: N_25  and  C_26
REMARK   11  A    between atoms: C_26  and  C_27
REMARK   12  A    between atoms: C_26  and  C_28
REMARK                            x       y       z     vdW  Elec       q    Type
REMARK                         _______ _______ _______ _____ _____    ______ ____
ROOT
ATOM      1  N   VAL A   1     -10.090  -2.483  18.594  0.00  0.00    +0.000 N 
ATOM      2  C   UNK A   0      -9.517  -3.744  18.742  0.00  0.00    +0.000 A 
ATOM      3  N   UNK A   0     -10.221  -4.856  18.419  0.00  0.00    +0.000 NA
ATOM      4  C   UNK A   0      -9.637  -6.087  18.508  0.00  0.00    +0.000 A 
ATOM      5  N   UNK A   0     -10.332  -7.228  18.068  0.00  0.00    +0.000 N 
ATOM      6  C   UNK A   0      -8.349  -6.153  19.075  0.00  0.00    +0.000 A 
ATOM      7  N   UNK A   0      -7.522  -7.213  19.393  0.00  0.00    +0.000 NA
ATOM      8  C   UNK A   0      -6.444  -6.667  19.902  0.00  0.00    +0.000 A 
ATOM      9  N   UNK A   0      -6.531  -5.299  19.930  0.00  0.00    +0.000 N 
ATOM     10  C   UNK A   0      -7.741  -4.951  19.383  0.00  0.00    +0.000 A 
ATOM     11  N   UNK A   0      -8.247  -3.726  19.188  0.00  0.00    +0.000 NA
ATOM     12  H   VAL A   1      -9.596  -2.030  17.835  0.00  0.00    +0.000 HD
ATOM     13  H   UNK A   0     -11.313  -7.058  17.894  0.00  0.00    +0.000 HD
ATOM     14  H   UNK A   0      -5.584  -7.210  20.273  0.00  0.00    +0.000 HD
ENDROOT
BRANCH   5  15
ATOM     15  C   UNK A   0      -9.786  -8.404  17.516  0.00  0.00    +0.000 A 
ATOM     16  C   UNK A   0      -9.899  -8.664  16.148  0.00  0.00    +0.000 A 
ATOM     17  C   UNK A   0      -9.493  -9.898  15.620  0.00  0.00    +0.000 A 
ATOM     18  C   UNK A   0      -8.967 -10.905  16.450  0.00  0.00    +0.000 A 
ATOM     19  C   UNK A   0      -8.802 -10.630  17.809  0.00  0.00    +0.000 A 
ATOM     20 CL   UNK A   0      -8.119 -11.753  18.934  0.00  0.00    +0.000 Cl
ATOM     21  C   UNK A   0      -9.203  -9.393  18.323  0.00  0.00    +0.000 A 
ATOM     22  H   UNK A   0     -10.355  -7.932  15.485  0.00  0.00    +0.000 HD
ATOM     23  H   UNK A   0      -9.620 -10.088  14.554  0.00  0.00    +0.000 HD
ATOM     24  H   UNK A   0      -9.074  -9.208  19.388  0.00  0.00    +0.000 HD
BRANCH  18  25
ATOM     25  C   UNK A   0      -8.617 -12.194  15.800  0.00  0.00    +0.000 C 
ATOM     26  O   UNK A   0      -8.769 -13.262  16.371  0.00  0.00    +0.000 OA
BRANCH  25  27
ATOM     27  O   UNK A   0      -8.032 -12.101  14.589  0.00  0.00    +0.000 OA
ATOM     28  H   UNK A   0      -7.540 -12.892  14.305  0.00  0.00    +0.000 HD
ENDBRANCH  25  27
ENDBRANCH  18  25
ENDBRANCH   5  15
BRANCH   1  29
ATOM     29  CA  VAL A   1     -11.550  -2.372  18.556  0.00  0.00    +0.000 C 
ATOM     30  HA  VAL A   1     -12.007  -3.354  18.372  0.00  0.00    +0.000 HD
BRANCH  29  31
ATOM     31  C   VAL A   1     -12.059  -1.841  19.927  0.00  0.00    +0.000 C 
ATOM     32  H1  VAL A   1     -11.339  -1.151  20.376  0.00  0.00    +0.000 HD
ATOM     33  H2  VAL A   1     -12.992  -1.279  19.805  0.00  0.00    +0.000 HD
BRANCH  31  34
ATOM     34  O   VAL A   1     -12.299  -2.887  20.866  0.00  0.00    +0.000 OA
ATOM     35  H   VAL A   1     -11.577  -2.867  21.515  0.00  0.00    +0.000 HD
ENDBRANCH  31  34
ENDBRANCH  29  31
BRANCH  29  36
ATOM     36  CB  VAL A   1     -12.029  -1.442  17.393  0.00  0.00    +0.000 C 
ATOM     37  HB  VAL A   1     -12.979  -0.990  17.710  0.00  0.00    +0.000 HD
BRANCH  36  38
ATOM     38  CG1 VAL A   1     -12.354  -2.208  16.107  0.00  0.00    +0.000 C 
ATOM     39 HG11 VAL A   1     -13.292  -2.764  16.219  0.00  0.00    +0.000 HD
ATOM     40 HG12 VAL A   1     -11.569  -2.936  15.880  0.00  0.00    +0.000 HD
ATOM     41 HG13 VAL A   1     -12.469  -1.543  15.246  0.00  0.00    +0.000 HD
ENDBRANCH  36  38
BRANCH  36  42
ATOM     42  CG2 VAL A   1     -11.081  -0.281  17.072  0.00  0.00    +0.000 C 
ATOM     43 HG21 VAL A   1     -10.107  -0.638  16.726  0.00  0.00    +0.000 HD
ATOM     44 HG22 VAL A   1     -10.925   0.372  17.935  0.00  0.00    +0.000 HD
ATOM     45 HG23 VAL A   1     -11.509   0.343  16.279  0.00  0.00    +0.000 HD
ENDBRANCH  36  42
ENDBRANCH  29  36
ENDBRANCH   1  29
BRANCH   9  46
ATOM     46  C   UNK A   0      -5.532  -4.403  20.494  0.00  0.00    +0.000 C 
ATOM     47  H   UNK A   0      -5.459  -3.539  19.823  0.00  0.00    +0.000 HD
BRANCH  46  48
ATOM     48  C   UNK A   0      -5.960  -3.898  21.876  0.00  0.00    +0.000 C 
ATOM     49  H   UNK A   0      -5.334  -3.065  22.217  0.00  0.00    +0.000 HD
ATOM     50  H   UNK A   0      -5.883  -4.695  22.623  0.00  0.00    +0.000 HD
ATOM     51  H   UNK A   0      -6.996  -3.547  21.857  0.00  0.00    +0.000 HD
ENDBRANCH  46  48
BRANCH  46  52
ATOM     52  C   UNK A   0      -4.159  -5.073  20.563  0.00  0.00    +0.000 C 
ATOM     53  H   UNK A   0      -3.911  -5.390  21.583  0.00  0.00    +0.000 HD
ATOM     54  H   UNK A   0      -3.376  -4.381  20.231  0.00  0.00    +0.000 HD
ATOM     55  H   UNK A   0      -4.122  -5.960  19.923  0.00  0.00    +0.000 HD
ENDBRANCH  46  52
ENDBRANCH   9  46
TORSDOF 12
ENDMDL
MODEL 3
REMARK VINA RESULT:    -8.301      3.070      5.988
REMARK INTER + INTRA:         -12.023
REMARK INTER:                 -12.157
REMARK INTRA:                   0.135
REMARK UNBOUND:                 0.646
REMARK  Name = 
REMARK  12 active torsions:
REMARK  status: ('A' for Active; 'I' for Inactive)
REMARK    1  A    between atoms: CG1_1  and  CB_2
REMARK    2  A    between atoms: CB_2  and  CG2_3
REMARK    3  A    between atoms: CB_2  and  CA_4
REMARK    4  A    between atoms: CA_4  and  C_5
REMARK    5  A    between atoms: CA_4  and  N_7
REMARK    6  A    between atoms: C_5  and  O_6
REMARK    7  A    between atoms: N_11  and  C_12
REMARK    8  A    between atoms: C_15  and  C_16
REMARK    9  A    between atoms: C_16  and  O_18
REMARK   10  A    between atoms: N_25  and  C_26
REMARK   11  A    between atoms: C_26  and  C_27
REMARK   12  A    between atoms: C_26  and  C_28
REMARK                            x       y       z     vdW  Elec       q    Type
REMARK                         _______ _______ _______ _____ _____    ______ ____
ROOT
ATOM      1  N   VAL A   1      -9.485  -1.775  22.424  0.00  0.00    +0.000 N 
ATOM      2  C   UNK A   0      -9.478  -2.554  21.269  0.00  0.00    +0.000 A 
ATOM      3  N   UNK A   0      -8.762  -3.704  21.225  0.00  0.00    +0.000 NA
ATOM      4  C   UNK A   0      -8.804  -4.496  20.113  0.00  0.00    +0.000 A 
ATOM      5  N   UNK A   0      -8.149  -5.741  20.112  0.00  0.00    +0.000 N 
ATOM      6  C   UNK A   0      -9.495  -3.999  18.991  0.00  0.00    +0.000 A 
ATOM      7  N   UNK A   0      -9.657  -4.480  17.706  0.00  0.00    +0.000 NA
ATOM      8  C   UNK A   0     -10.397  -3.587  17.095  0.00  0.00    +0.000 A 
ATOM      9  N   UNK A   0     -10.725  -2.545  17.924  0.00  0.00    +0.000 N 
ATOM     10  C   UNK A   0     -10.170  -2.804  19.152  0.00  0.00    +0.000 A 
ATOM     11  N   UNK A   0     -10.245  -2.074  20.272  0.00  0.00    +0.000 NA
ATOM     12  H   VAL A   1     -10.418  -1.844  22.811  0.00  0.00    +0.000 HD
ATOM     13  H   UNK A   0      -7.521  -5.864  20.894  0.00  0.00    +0.000 HD
ATOM     14  H   UNK A   0     -10.713  -3.639  16.061  0.00  0.00    +0.000 HD
ENDROOT
BRANCH   5  15
ATOM     15  C   UNK A   0      -8.523  -6.904  19.411  0.00  0.00    +0.000 A 
ATOM     16  C   UNK A   0      -8.755  -8.100  20.094  0.00  0.00    +0.000 A 
ATOM     17  C   UNK A   0      -8.978  -9.293  19.389  0.00  0.00    +0.000 A 
ATOM     18  C   UNK A   0      -8.969  -9.317  17.983  0.00  0.00    +0.000 A 
ATOM     19  C   UNK A   0      -8.791  -8.115  17.296  0.00  0.00    +0.000 A 
ATOM     20 CL   UNK A   0      -8.811  -7.989  15.571  0.00  0.00    +0.000 Cl
ATOM     21  C   UNK A   0      -8.577  -6.931  18.008  0.00  0.00    +0.000 A 
ATOM     22  H   UNK A   0      -8.712  -8.130  21.180  0.00  0.00    +0.000 HD
ATOM     23  H   UNK A   0      -9.127 -10.219  19.946  0.00  0.00    +0.000 HD
ATOM     24  H   UNK A   0      -8.429  -6.009  17.449  0.00  0.00    +0.000 HD
BRANCH  18  25
ATOM     25  C   UNK A   0      -9.162 -10.640  17.335  0.00  0.00    +0.000 C 
ATOM     26  O   UNK A   0     -10.015 -10.818  16.481  0.00  0.00    +0.000 OA
BRANCH  25  27
ATOM     27  O   UNK A   0      -8.408 -11.647  17.820  0.00  0.00    +0.000 OA
ATOM     28  H   UNK A   0      -7.448 -11.479  17.828  0.00  0.00    +0.000 HD
ENDBRANCH  25  27
ENDBRANCH  18  25
ENDBRANCH   5  15
BRANCH   1  29
ATOM     29  CA  VAL A   1      -8.388  -1.926  23.383  0.00  0.00    +0.000 C 
ATOM     30  HA  VAL A   1      -8.046  -2.970  23.417  0.00  0.00    +0.000 HD
BRANCH  29  31
ATOM     31  C   VAL A   1      -7.196  -1.031  22.941  0.00  0.00    +0.000 C 
ATOM     32  H1  VAL A   1      -7.532  -0.211  22.300  0.00  0.00    +0.000 HD
ATOM     33  H2  VAL A   1      -6.714  -0.566  23.810  0.00  0.00    +0.000 HD
BRANCH  31  34
ATOM     34  O   VAL A   1      -6.198  -1.757  22.227  0.00  0.00    +0.000 OA
ATOM     35  H   VAL A   1      -5.334  -1.393  22.482  0.00  0.00    +0.000 HD
ENDBRANCH  31  34
ENDBRANCH  29  31
BRANCH  29  36
ATOM     36  CB  VAL A   1      -8.837  -1.567  24.837  0.00  0.00    +0.000 C 
ATOM     37  HB  VAL A   1      -8.072  -1.959  25.520  0.00  0.00    +0.000 HD
BRANCH  36  38
ATOM     38  CG1 VAL A   1     -10.142  -2.256  25.250  0.00  0.00    +0.000 C 
ATOM     39 HG11 VAL A   1     -10.483  -2.934  24.458  0.00  0.00    +0.000 HD
ATOM     40 HG12 VAL A   1     -10.935  -1.520  25.413  0.00  0.00    +0.000 HD
ATOM     41 HG13 VAL A   1     -10.027  -2.849  26.161  0.00  0.00    +0.000 HD
ENDBRANCH  36  38
BRANCH  36  42
ATOM     42  CG2 VAL A   1      -8.941  -0.064  25.120  0.00  0.00    +0.000 C 
ATOM     43 HG21 VAL A   1      -9.842   0.180  25.691  0.00  0.00    +0.000 HD
ATOM     44 HG22 VAL A   1      -8.941   0.529  24.201  0.00  0.00    +0.000 HD
ATOM     45 HG23 VAL A   1      -8.076   0.267  25.707  0.00  0.00    +0.000 HD
ENDBRANCH  36  42
ENDBRANCH  29  36
ENDBRANCH   1  29
BRANCH   9  46
ATOM     46  C   UNK A   0     -11.479  -1.363  17.532  0.00  0.00    +0.000 C 
ATOM     47  H   UNK A   0     -12.076  -1.060  18.401  0.00  0.00    +0.000 HD
BRANCH  46  48
ATOM     48  C   UNK A   0     -10.543  -0.206  17.171  0.00  0.00    +0.000 C 
ATOM     49  H   UNK A   0     -10.898   0.748  17.579  0.00  0.00    +0.000 HD
ATOM     50  H   UNK A   0     -10.466  -0.091  16.084  0.00  0.00    +0.000 HD
ATOM     51  H   UNK A   0      -9.538  -0.380  17.567  0.00  0.00    +0.000 HD
ENDBRANCH  46  48
BRANCH  46  52
ATOM     52  C   UNK A   0     -12.434  -1.668  16.378  0.00  0.00    +0.000 C 
ATOM     53  H   UNK A   0     -11.966  -1.489  15.404  0.00  0.00    +0.000 HD
ATOM     54  H   UNK A   0     -13.327  -1.036  16.439  0.00  0.00    +0.000 HD
ATOM     55  H   UNK A   0     -12.757  -2.714  16.402  0.00  0.00    +0.000 HD
ENDBRANCH  46  52
ENDBRANCH   9  46
TORSDOF 12
ENDMDL
MODEL 4
REMARK VINA RESULT:    -8.227      4.022      6.957
REMARK INTER + INTRA:         -11.909
REMARK INTER:                 -11.370
REMARK INTRA:                  -0.540
REMARK UNBOUND:                 0.646
REMARK  Name = 
REMARK  12 active torsions:
REMARK  status: ('A' for Active; 'I' for Inactive)
REMARK    1  A    between atoms: CG1_1  and  CB_2
REMARK    2  A    between atoms: CB_2  and  CG2_3
REMARK    3  A    between atoms: CB_2  and  CA_4
REMARK    4  A    between atoms: CA_4  and  C_5
REMARK    5  A    between atoms: CA_4  and  N_7
REMARK    6  A    between atoms: C_5  and  O_6
REMARK    7  A    between atoms: N_11  and  C_12
REMARK    8  A    between atoms: C_15  and  C_16
REMARK    9  A    between atoms: C_16  and  O_18
REMARK   10  A    between atoms: N_25  and  C_26
REMARK   11  A    between atoms: C_26  and  C_27
REMARK   12  A    between atoms: C_26  and  C_28
REMARK                            x       y       z     vdW  Elec       q    Type
REMARK                         _______ _______ _______ _____ _____    ______ ____
ROOT
ATOM      1  N   VAL A   1     -11.026  -4.270  15.693  0.00  0.00    +0.000 N 
ATOM      2  C   UNK A   0     -10.325  -4.546  16.865  0.00  0.00    +0.000 A 
ATOM      3  N   UNK A   0      -9.810  -3.535  17.607  0.00  0.00    +0.000 NA
ATOM      4  C   UNK A   0      -9.174  -3.804  18.785  0.00  0.00    +0.000 A 
ATOM      5  N   UNK A   0      -8.740  -2.748  19.606  0.00  0.00    +0.000 N 
ATOM      6  C   UNK A   0      -8.959  -5.158  19.109  0.00  0.00    +0.000 A 
ATOM      7  N   UNK A   0      -8.288  -5.774  20.148  0.00  0.00    +0.000 NA
ATOM      8  C   UNK A   0      -8.415  -7.060  19.925  0.00  0.00    +0.000 A 
ATOM      9  N   UNK A   0      -9.139  -7.310  18.789  0.00  0.00    +0.000 N 
ATOM     10  C   UNK A   0      -9.514  -6.098  18.263  0.00  0.00    +0.000 A 
ATOM     11  N   UNK A   0     -10.248  -5.855  17.169  0.00  0.00    +0.000 NA
ATOM     12  H   VAL A   1     -11.993  -4.511  15.875  0.00  0.00    +0.000 HD
ATOM     13  H   UNK A   0      -8.766  -1.848  19.148  0.00  0.00    +0.000 HD
ATOM     14  H   UNK A   0      -7.998  -7.845  20.543  0.00  0.00    +0.000 HD
ENDROOT
BRANCH   5  15
ATOM     15  C   UNK A   0      -8.641  -2.741  21.012  0.00  0.00    +0.000 A 
ATOM     16  C   UNK A   0      -7.434  -3.057  21.639  0.00  0.00    +0.000 A 
ATOM     17  C   UNK A   0      -7.370  -3.199  23.033  0.00  0.00    +0.000 A 
ATOM     18  C   UNK A   0      -8.515  -3.032  23.833  0.00  0.00    +0.000 A 
ATOM     19  C   UNK A   0      -9.712  -2.663  23.216  0.00  0.00    +0.000 A 
ATOM     20 CL   UNK A   0     -11.181  -2.372  24.081  0.00  0.00    +0.000 Cl
ATOM     21  C   UNK A   0      -9.762  -2.517  21.826  0.00  0.00    +0.000 A 
ATOM     22  H   UNK A   0      -6.542  -3.250  21.048  0.00  0.00    +0.000 HD
ATOM     23  H   UNK A   0      -6.422  -3.475  23.496  0.00  0.00    +0.000 HD
ATOM     24  H   UNK A   0     -10.710  -2.240  21.368  0.00  0.00    +0.000 HD
BRANCH  18  25
ATOM     25  C   UNK A   0      -8.351  -3.257  25.292  0.00  0.00    +0.000 C 
ATOM     26  O   UNK A   0      -8.738  -2.442  26.114  0.00  0.00    +0.000 OA
BRANCH  25  27
ATOM     27  O   UNK A   0      -7.662  -4.361  25.643  0.00  0.00    +0.000 OA
ATOM     28  H   UNK A   0      -7.681  -5.085  24.991  0.00  0.00    +0.000 HD
ENDBRANCH  25  27
ENDBRANCH  18  25
ENDBRANCH   5  15
BRANCH   1  29
ATOM     29  CA  VAL A   1     -10.807  -2.984  15.026  0.00  0.00    +0.000 C 
ATOM     30  HA  VAL A   1     -10.127  -2.355  15.616  0.00  0.00    +0.000 HD
BRANCH  29  31
ATOM     31  C   VAL A   1     -10.164  -3.234  13.633  0.00  0.00    +0.000 C 
ATOM     32  H1  VAL A   1     -10.756  -3.941  13.044  0.00  0.00    +0.000 HD
ATOM     33  H2  VAL A   1     -10.122  -2.306  13.051  0.00  0.00    +0.000 HD
BRANCH  31  34
ATOM     34  O   VAL A   1      -8.838  -3.751  13.724  0.00  0.00    +0.000 OA
ATOM     35  H   VAL A   1      -8.551  -3.656  14.648  0.00  0.00    +0.000 HD
ENDBRANCH  31  34
ENDBRANCH  29  31
BRANCH  29  36
ATOM     36  CB  VAL A   1     -12.137  -2.174  14.882  0.00  0.00    +0.000 C 
ATOM     37  HB  VAL A   1     -12.926  -2.890  14.615  0.00  0.00    +0.000 HD
BRANCH  36  38
ATOM     38  CG1 VAL A   1     -12.102  -1.161  13.732  0.00  0.00    +0.000 C 
ATOM     39 HG11 VAL A   1     -13.116  -0.825  13.488  0.00  0.00    +0.000 HD
ATOM     40 HG12 VAL A   1     -11.682  -1.614  12.829  0.00  0.00    +0.000 HD
ATOM     41 HG13 VAL A   1     -11.513  -0.274  13.981  0.00  0.00    +0.000 HD
ENDBRANCH  36  38
BRANCH  36  42
ATOM     42  CG2 VAL A   1     -12.601  -1.475  16.165  0.00  0.00    +0.000 C 
ATOM     43 HG21 VAL A   1     -12.307  -0.422  16.181  0.00  0.00    +0.000 HD
ATOM     44 HG22 VAL A   1     -12.208  -1.960  17.062  0.00  0.00    +0.000 HD
ATOM     45 HG23 VAL A   1     -13.694  -1.517  16.239  0.00  0.00    +0.000 HD
ENDBRANCH  36  42
ENDBRANCH  29  36
ENDBRANCH   1  29
BRANCH   9  46
ATOM     46  C   UNK A   0      -9.403  -8.629  18.231  0.00  0.00    +0.000 C 
ATOM     47  H   UNK A   0     -10.490  -8.769  18.236  0.00  0.00    +0.000 HD
BRANCH  46  48
ATOM     48  C   UNK A   0      -8.917  -8.722  16.781  0.00  0.00    +0.000 C 
ATOM     49  H   UNK A   0      -7.875  -8.397  16.679  0.00  0.00    +0.000 HD
ATOM     50  H   UNK A   0      -9.525  -8.091  16.125  0.00  0.00    +0.000 HD
ATOM     51  H   UNK A   0      -8.979  -9.753  16.416  0.00  0.00    +0.000 HD
ENDBRANCH  46  48
BRANCH  46  52
ATOM     52  C   UNK A   0      -8.774  -9.730  19.085  0.00  0.00    +0.000 C 
ATOM     53  H   UNK A   0      -9.275  -9.830  20.055  0.00  0.00    +0.000 HD
ATOM     54  H   UNK A   0      -7.717  -9.512  19.278  0.00  0.00    +0.000 HD
ATOM     55  H   UNK A   0      -8.834 -10.701  18.581  0.00  0.00    +0.000 HD
ENDBRANCH  46  52
ENDBRANCH   9  46
TORSDOF 12
ENDMDL
MODEL 5
REMARK VINA RESULT:    -8.224      2.714      4.960
REMARK INTER + INTRA:         -11.904
REMARK INTER:                 -12.743
REMARK INTRA:                   0.839
REMARK UNBOUND:                 0.646
REMARK  Name = 
REMARK  12 active torsions:
REMARK  status: ('A' for Active; 'I' for Inactive)
REMARK    1  A    between atoms: CG1_1  and  CB_2
REMARK    2  A    between atoms: CB_2  and  CG2_3
REMARK    3  A    between atoms: CB_2  and  CA_4
REMARK    4  A    between atoms: CA_4  and  C_5
REMARK    5  A    between atoms: CA_4  and  N_7
REMARK    6  A    between atoms: C_5  and  O_6
REMARK    7  A    between atoms: N_11  and  C_12
REMARK    8  A    between atoms: C_15  and  C_16
REMARK    9  A    between atoms: C_16  and  O_18
REMARK   10  A    between atoms: N_25  and  C_26
REMARK   11  A    between atoms: C_26  and  C_27
REMARK   12  A    between atoms: C_26  and  C_28
REMARK                            x       y       z     vdW  Elec       q    Type
REMARK                         _______ _______ _______ _____ _____    ______ ____
ROOT
ATOM      1  N   VAL A   1     -11.136  -2.107  19.485  0.00  0.00    +0.000 N 
ATOM      2  C   UNK A   0     -10.646  -3.190  18.757  0.00  0.00    +0.000 A 
ATOM      3  N   UNK A   0     -10.017  -4.210  19.390  0.00  0.00    +0.000 NA
ATOM      4  C   UNK A   0      -9.590  -5.297  18.682  0.00  0.00    +0.000 A 
ATOM      5  N   UNK A   0      -9.038  -6.401  19.356  0.00  0.00    +0.000 N 
ATOM      6  C   UNK A   0      -9.705  -5.241  17.280  0.00  0.00    +0.000 A 
ATOM      7  N   UNK A   0      -9.301  -6.100  16.275  0.00  0.00    +0.000 NA
ATOM      8  C   UNK A   0      -9.673  -5.522  15.158  0.00  0.00    +0.000 A 
ATOM      9  N   UNK A   0     -10.300  -4.325  15.390  0.00  0.00    +0.000 N 
ATOM     10  C   UNK A   0     -10.348  -4.140  16.749  0.00  0.00    +0.000 A 
ATOM     11  N   UNK A   0     -10.884  -3.121  17.434  0.00  0.00    +0.000 NA
ATOM     12  H   VAL A   1     -12.146  -2.165  19.439  0.00  0.00    +0.000 HD
ATOM     13  H   UNK A   0      -8.819  -6.212  20.325  0.00  0.00    +0.000 HD
ATOM     14  H   UNK A   0      -9.505  -5.916  14.165  0.00  0.00    +0.000 HD
ENDROOT
BRANCH   5  15
ATOM     15  C   UNK A   0      -9.099  -7.756  18.974  0.00  0.00    +0.000 A 
ATOM     16  C   UNK A   0      -8.498  -8.742  19.760  0.00  0.00    +0.000 A 
ATOM     17  C   UNK A   0      -8.425 -10.069  19.309  0.00  0.00    +0.000 A 
ATOM     18  C   UNK A   0      -8.951 -10.439  18.057  0.00  0.00    +0.000 A 
ATOM     19  C   UNK A   0      -9.600  -9.468  17.292  0.00  0.00    +0.000 A 
ATOM     20 CL   UNK A   0     -10.338  -9.794  15.763  0.00  0.00    +0.000 Cl
ATOM     21  C   UNK A   0      -9.673  -8.151  17.756  0.00  0.00    +0.000 A 
ATOM     22  H   UNK A   0      -8.030  -8.481  20.706  0.00  0.00    +0.000 HD
ATOM     23  H   UNK A   0      -7.924 -10.814  19.927  0.00  0.00    +0.000 HD
ATOM     24  H   UNK A   0     -10.175  -7.410  17.136  0.00  0.00    +0.000 HD
BRANCH  18  25
ATOM     25  C   UNK A   0      -8.775 -11.857  17.651  0.00  0.00    +0.000 C 
ATOM     26  O   UNK A   0      -8.398 -12.161  16.530  0.00  0.00    +0.000 OA
BRANCH  25  27
ATOM     27  O   UNK A   0      -9.151 -12.779  18.558  0.00  0.00    +0.000 OA
ATOM     28  H   UNK A   0      -9.189 -12.464  19.479  0.00  0.00    +0.000 HD
ENDBRANCH  25  27
ENDBRANCH  18  25
ENDBRANCH   5  15
BRANCH   1  29
ATOM     29  CA  VAL A   1     -10.575  -1.837  20.811  0.00  0.00    +0.000 C 
ATOM     30  HA  VAL A   1      -9.998  -2.701  21.169  0.00  0.00    +0.000 HD
BRANCH  29  31
ATOM     31  C   VAL A   1      -9.623  -0.611  20.723  0.00  0.00    +0.000 C 
ATOM     32  H1  VAL A   1      -9.614  -0.188  19.714  0.00  0.00    +0.000 HD
ATOM     33  H2  VAL A   1      -9.957   0.190  21.392  0.00  0.00    +0.000 HD
BRANCH  31  34
ATOM     34  O   VAL A   1      -8.278  -0.934  21.069  0.00  0.00    +0.000 OA
ATOM     35  H   VAL A   1      -8.239  -1.893  21.226  0.00  0.00    +0.000 HD
ENDBRANCH  31  34
ENDBRANCH  29  31
BRANCH  29  36
ATOM     36  CB  VAL A   1     -11.696  -1.590  21.873  0.00  0.00    +0.000 C 
ATOM     37  HB  VAL A   1     -12.577  -2.162  21.554  0.00  0.00    +0.000 HD
BRANCH  36  38
ATOM     38  CG1 VAL A   1     -12.158  -0.130  21.929  0.00  0.00    +0.000 C 
ATOM     39 HG11 VAL A   1     -12.965   0.044  21.207  0.00  0.00    +0.000 HD
ATOM     40 HG12 VAL A   1     -11.338   0.547  21.671  0.00  0.00    +0.000 HD
ATOM     41 HG13 VAL A   1     -12.538   0.146  22.917  0.00  0.00    +0.000 HD
ENDBRANCH  36  38
BRANCH  36  42
ATOM     42  CG2 VAL A   1     -11.353  -2.073  23.287  0.00  0.00    +0.000 C 
ATOM     43 HG21 VAL A   1     -11.851  -1.471  24.052  0.00  0.00    +0.000 HD
ATOM     44 HG22 VAL A   1     -10.276  -2.056  23.477  0.00  0.00    +0.000 HD
ATOM     45 HG23 VAL A   1     -11.679  -3.111  23.417  0.00  0.00    +0.000 HD
ENDBRANCH  36  42
ENDBRANCH  29  36
ENDBRANCH   1  29
BRANCH   9  46
ATOM     46  C   UNK A   0     -10.772  -3.409  14.361  0.00  0.00    +0.000 C 
ATOM     47  H   UNK A   0     -11.218  -2.549  14.876  0.00  0.00    +0.000 HD
BRANCH  46  48
ATOM     48  C   UNK A   0      -9.612  -2.900  13.500  0.00  0.00    +0.000 C 
ATOM     49  H   UNK A   0      -9.436  -1.828  13.647  0.00  0.00    +0.000 HD
ATOM     50  H   UNK A   0      -9.818  -3.058  12.436  0.00  0.00    +0.000 HD
ATOM     51  H   UNK A   0      -8.684  -3.426  13.749  0.00  0.00    +0.000 HD
ENDBRANCH  46  48
BRANCH  46  52
ATOM     52  C   UNK A   0     -11.850  -4.056  13.491  0.00  0.00    +0.000 C 
ATOM     53  H   UNK A   0     -12.642  -4.512  14.096  0.00  0.00    +0.000 HD
ATOM     54  H   UNK A   0     -11.417  -4.844  12.863  0.00  0.00    +0.000 HD
ATOM     55  H   UNK A   0     -12.319  -3.318  12.832  0.00  0.00    +0.000 HD
ENDBRANCH  46  52
ENDBRANCH   9  46
TORSDOF 12
ENDMDL
MODEL 6
REMARK VINA RESULT:    -8.142      3.955      8.662
REMARK INTER + INTRA:         -11.780
REMARK INTER:                 -10.824
REMARK INTRA:                  -0.956
REMARK UNBOUND:                 0.646
REMARK  Name = 
REMARK  12 active torsions:
REMARK  status: ('A' for Active; 'I' for Inactive)
REMARK    1  A    between atoms: CG1_1  and  CB_2
REMARK    2  A    between atoms: CB_2  and  CG2_3
REMARK    3  A    between atoms: CB_2  and  CA_4
REMARK    4  A    between atoms: CA_4  and  C_5
REMARK    5  A    between atoms: CA_4  and  N_7
REMARK    6  A    between atoms: C_5  and  O_6
REMARK    7  A    between atoms: N_11  and  C_12
REMARK    8  A    between atoms: C_15  and  C_16
REMARK    9  A    between atoms: C_16  and  O_18
REMARK   10  A    between atoms: N_25  and  C_26
REMARK   11  A    between atoms: C_26  and  C_27
REMARK   12  A    between atoms: C_26  and  C_28
REMARK                            x       y       z     vdW  Elec       q    Type
REMARK                         _______ _______ _______ _____ _____    ______ ____
ROOT
ATOM      1  N   VAL A   1      -9.657  -7.075  15.628  0.00  0.00    +0.000 N 
ATOM      2  C   UNK A   0     -10.107  -5.816  16.020  0.00  0.00    +0.000 A 
ATOM      3  N   UNK A   0     -10.395  -5.568  17.320  0.00  0.00    +0.000 NA
ATOM      4  C   UNK A   0     -10.780  -4.317  17.711  0.00  0.00    +0.000 A 
ATOM      5  N   UNK A   0     -10.970  -4.034  19.076  0.00  0.00    +0.000 N 
ATOM      6  C   UNK A   0     -10.996  -3.361  16.700  0.00  0.00    +0.000 A 
ATOM      7  N   UNK A   0     -11.464  -2.061  16.728  0.00  0.00    +0.000 NA
ATOM      8  C   UNK A   0     -11.458  -1.667  15.477  0.00  0.00    +0.000 A 
ATOM      9  N   UNK A   0     -11.007  -2.650  14.636  0.00  0.00    +0.000 N 
ATOM     10  C   UNK A   0     -10.686  -3.739  15.407  0.00  0.00    +0.000 A 
ATOM     11  N   UNK A   0     -10.189  -4.921  15.018  0.00  0.00    +0.000 NA
ATOM     12  H   VAL A   1      -8.689  -6.960  15.355  0.00  0.00    +0.000 HD
ATOM     13  H   UNK A   0     -10.993  -4.861  19.657  0.00  0.00    +0.000 HD
ATOM     14  H   UNK A   0     -11.776  -0.693  15.128  0.00  0.00    +0.000 HD
ENDROOT
BRANCH   5  15
ATOM     15  C   UNK A   0     -10.767  -2.805  19.733  0.00  0.00    +0.000 A 
ATOM     16  C   UNK A   0      -9.485  -2.263  19.843  0.00  0.00    +0.000 A 
ATOM     17  C   UNK A   0      -9.257  -1.119  20.624  0.00  0.00    +0.000 A 
ATOM     18  C   UNK A   0     -10.309  -0.494  21.317  0.00  0.00    +0.000 A 
ATOM     19  C   UNK A   0     -11.602  -1.000  21.167  0.00  0.00    +0.000 A 
ATOM     20 CL   UNK A   0     -12.994  -0.299  21.917  0.00  0.00    +0.000 Cl
ATOM     21  C   UNK A   0     -11.818  -2.135  20.380  0.00  0.00    +0.000 A 
ATOM     22  H   UNK A   0      -8.638  -2.753  19.368  0.00  0.00    +0.000 HD
ATOM     23  H   UNK A   0      -8.242  -0.733  20.717  0.00  0.00    +0.000 HD
ATOM     24  H   UNK A   0     -12.833  -2.517  20.289  0.00  0.00    +0.000 HD
BRANCH  18  25
ATOM     25  C   UNK A   0      -9.953   0.678  22.158  0.00  0.00    +0.000 C 
ATOM     26  O   UNK A   0      -9.762   0.571  23.359  0.00  0.00    +0.000 OA
BRANCH  25  27
ATOM     27  O   UNK A   0      -9.952   1.872  21.533  0.00  0.00    +0.000 OA
ATOM     28  H   UNK A   0      -9.647   2.623  22.073  0.00  0.00    +0.000 HD
ENDBRANCH  25  27
ENDBRANCH  18  25
ENDBRANCH   5  15
BRANCH   1  29
ATOM     29  CA  VAL A   1      -9.942  -8.225  16.490  0.00  0.00    +0.000 C 
ATOM     30  HA  VAL A   1      -9.631  -8.019  17.523  0.00  0.00    +0.000 HD
BRANCH  29  31
ATOM     31  C   VAL A   1     -11.471  -8.504  16.481  0.00  0.00    +0.000 C 
ATOM     32  H1  VAL A   1     -11.937  -8.131  15.564  0.00  0.00    +0.000 HD
ATOM     33  H2  VAL A   1     -11.671  -9.581  16.514  0.00  0.00    +0.000 HD
BRANCH  31  34
ATOM     34  O   VAL A   1     -12.146  -7.902  17.584  0.00  0.00    +0.000 OA
ATOM     35  H   VAL A   1     -12.115  -8.532  18.323  0.00  0.00    +0.000 HD
ENDBRANCH  31  34
ENDBRANCH  29  31
BRANCH  29  36
ATOM     36  CB  VAL A   1      -9.147  -9.495  16.040  0.00  0.00    +0.000 C 
ATOM     37  HB  VAL A   1      -8.091  -9.207  15.965  0.00  0.00    +0.000 HD
BRANCH  36  38
ATOM     38  CG1 VAL A   1      -9.537  -9.982  14.640  0.00  0.00    +0.000 C 
ATOM     39 HG11 VAL A   1      -9.433  -9.171  13.910  0.00  0.00    +0.000 HD
ATOM     40 HG12 VAL A   1     -10.581 -10.307  14.619  0.00  0.00    +0.000 HD
ATOM     41 HG13 VAL A   1      -8.909 -10.810  14.300  0.00  0.00    +0.000 HD
ENDBRANCH  36  38
BRANCH  36  42
ATOM     42  CG2 VAL A   1      -9.208 -10.668  17.025  0.00  0.00    +0.000 C 
ATOM     43 HG21 VAL A   1      -9.197 -10.326  18.063  0.00  0.00    +0.000 HD
ATOM     44 HG22 VAL A   1      -8.381 -11.369  16.881  0.00  0.00    +0.000 HD
ATOM     45 HG23 VAL A   1     -10.132 -11.237  16.872  0.00  0.00    +0.000 HD
ENDBRANCH  36  42
ENDBRANCH  29  36
ENDBRANCH   1  29
BRANCH   9  46
ATOM     46  C   UNK A   0     -10.942  -2.553  13.184  0.00  0.00    +0.000 C 
ATOM     47  H   UNK A   0     -10.056  -3.113  12.863  0.00  0.00    +0.000 HD
BRANCH  46  48
ATOM     48  C   UNK A   0     -12.172  -3.191  12.532  0.00  0.00    +0.000 C 
ATOM     49  H   UNK A   0     -12.106  -3.175  11.438  0.00  0.00    +0.000 HD
ATOM     50  H   UNK A   0     -13.085  -2.656  12.815  0.00  0.00    +0.000 HD
ATOM     51  H   UNK A   0     -12.278  -4.235  12.842  0.00  0.00    +0.000 HD
ENDBRANCH  46  48
BRANCH  46  52
ATOM     52  C   UNK A   0     -10.779  -1.101  12.731  0.00  0.00    +0.000 C 
ATOM     53  H   UNK A   0     -10.670  -0.419  13.581  0.00  0.00    +0.000 HD
ATOM     54  H   UNK A   0     -11.654  -0.777  12.155  0.00  0.00    +0.000 HD
ATOM     55  H   UNK A   0      -9.894  -0.985  12.097  0.00  0.00    +0.000 HD
ENDBRANCH  46  52
ENDBRANCH   9  46
TORSDOF 12
ENDMDL
MODEL 7
REMARK VINA RESULT:    -8.069      4.049      7.085
REMARK INTER + INTRA:         -11.669
REMARK INTER:                 -11.041
REMARK INTRA:                  -0.628
REMARK UNBOUND:                 0.646
REMARK  Name = 
REMARK  12 active torsions:
REMARK  status: ('A' for Active; 'I' for Inactive)
REMARK    1  A    between atoms: CG1_1  and  CB_2
REMARK    2  A    between atoms: CB_2  and  CG2_3
REMARK    3  A    between atoms: CB_2  and  CA_4
REMARK    4  A    between atoms: CA_4  and  C_5
REMARK    5  A    between atoms: CA_4  and  N_7
REMARK    6  A    between atoms: C_5  and  O_6
REMARK    7  A    between atoms: N_11  and  C_12
REMARK    8  A    between atoms: C_15  and  C_16
REMARK    9  A    between atoms: C_16  and  O_18
REMARK   10  A    between atoms: N_25  and  C_26
REMARK   11  A    between atoms: C_26  and  C_27
REMARK   12  A    between atoms: C_26  and  C_28
REMARK                            x       y       z     vdW  Elec       q    Type
REMARK                         _______ _______ _______ _____ _____    ______ ____
ROOT
ATOM      1  N   VAL A   1     -11.848  -4.515  14.057  0.00  0.00    +0.000 N 
ATOM      2  C   UNK A   0     -11.224  -4.610  15.300  0.00  0.00    +0.000 A 
ATOM      3  N   UNK A   0     -10.946  -3.490  16.011  0.00  0.00    +0.000 NA
ATOM      4  C   UNK A   0     -10.389  -3.588  17.254  0.00  0.00    +0.000 A 
ATOM      5  N   UNK A   0     -10.204  -2.433  18.035  0.00  0.00    +0.000 N 
ATOM      6  C   UNK A   0      -9.994  -4.869  17.686  0.00  0.00    +0.000 A 
ATOM      7  N   UNK A   0      -9.334  -5.311  18.817  0.00  0.00    +0.000 NA
ATOM      8  C   UNK A   0      -9.237  -6.611  18.673  0.00  0.00    +0.000 A 
ATOM      9  N   UNK A   0      -9.804  -7.036  17.500  0.00  0.00    +0.000 N 
ATOM     10  C   UNK A   0     -10.314  -5.932  16.863  0.00  0.00    +0.000 A 
ATOM     11  N   UNK A   0     -10.972  -5.870  15.698  0.00  0.00    +0.000 NA
ATOM     12  H   VAL A   1     -12.778  -4.900  14.174  0.00  0.00    +0.000 HD
ATOM     13  H   UNK A   0     -10.328  -1.574  17.515  0.00  0.00    +0.000 HD
ATOM     14  H   UNK A   0      -8.761  -7.283  19.375  0.00  0.00    +0.000 HD
ENDROOT
BRANCH   5  15
ATOM     15  C   UNK A   0     -10.239  -2.334  19.440  0.00  0.00    +0.000 A 
ATOM     16  C   UNK A   0     -11.449  -2.129  20.106  0.00  0.00    +0.000 A 
ATOM     17  C   UNK A   0     -11.470  -1.879  21.487  0.00  0.00    +0.000 A 
ATOM     18  C   UNK A   0     -10.278  -1.824  22.232  0.00  0.00    +0.000 A 
ATOM     19  C   UNK A   0      -9.071  -2.081  21.581  0.00  0.00    +0.000 A 
ATOM     20 CL   UNK A   0      -7.538  -2.100  22.382  0.00  0.00    +0.000 Cl
ATOM     21  C   UNK A   0      -9.062  -2.337  20.205  0.00  0.00    +0.000 A 
ATOM     22  H   UNK A   0     -12.384  -2.107  19.553  0.00  0.00    +0.000 HD
ATOM     23  H   UNK A   0     -12.425  -1.693  21.978  0.00  0.00    +0.000 HD
ATOM     24  H   UNK A   0      -8.107  -2.523  19.719  0.00  0.00    +0.000 HD
BRANCH  18  25
ATOM     25  C   UNK A   0     -10.407  -1.500  23.676  0.00  0.00    +0.000 C 
ATOM     26  O   UNK A   0      -9.957  -0.467  24.144  0.00  0.00    +0.000 OA
BRANCH  25  27
ATOM     27  O   UNK A   0     -10.958  -2.458  24.447  0.00  0.00    +0.000 OA
ATOM     28  H   UNK A   0     -10.431  -2.721  25.223  0.00  0.00    +0.000 HD
ENDBRANCH  25  27
ENDBRANCH  18  25
ENDBRANCH   5  15
BRANCH   1  29
ATOM     29  CA  VAL A   1     -11.772  -3.249  13.325  0.00  0.00    +0.000 C 
ATOM     30  HA  VAL A   1     -12.141  -2.421  13.946  0.00  0.00    +0.000 HD
BRANCH  29  31
ATOM     31  C   VAL A   1     -10.291  -2.963  12.950  0.00  0.00    +0.000 C 
ATOM     32  H1  VAL A   1      -9.655  -3.828  13.159  0.00  0.00    +0.000 HD
ATOM     33  H2  VAL A   1     -10.193  -2.758  11.878  0.00  0.00    +0.000 HD
BRANCH  31  34
ATOM     34  O   VAL A   1      -9.751  -1.849  13.657  0.00  0.00    +0.000 OA
ATOM     35  H   VAL A   1      -9.340  -2.189  14.469  0.00  0.00    +0.000 HD
ENDBRANCH  31  34
ENDBRANCH  29  31
BRANCH  29  36
ATOM     36  CB  VAL A   1     -12.671  -3.267  12.044  0.00  0.00    +0.000 C 
ATOM     37  HB  VAL A   1     -13.455  -4.018  12.209  0.00  0.00    +0.000 HD
BRANCH  36  38
ATOM     38  CG1 VAL A   1     -11.920  -3.730  10.791  0.00  0.00    +0.000 C 
ATOM     39 HG11 VAL A   1     -11.494  -4.728  10.948  0.00  0.00    +0.000 HD
ATOM     40 HG12 VAL A   1     -11.091  -3.054  10.563  0.00  0.00    +0.000 HD
ATOM     41 HG13 VAL A   1     -12.573  -3.787   9.916  0.00  0.00    +0.000 HD
ENDBRANCH  36  38
BRANCH  36  42
ATOM     42  CG2 VAL A   1     -13.391  -1.946  11.751  0.00  0.00    +0.000 C 
ATOM     43 HG21 VAL A   1     -13.246  -1.628  10.715  0.00  0.00    +0.000 HD
ATOM     44 HG22 VAL A   1     -13.058  -1.141  12.412  0.00  0.00    +0.000 HD
ATOM     45 HG23 VAL A   1     -14.468  -2.063  11.916  0.00  0.00    +0.000 HD
ENDBRANCH  36  42
ENDBRANCH  29  36
ENDBRANCH   1  29
BRANCH   9  46
ATOM     46  C   UNK A   0      -9.804  -8.409  17.013  0.00  0.00    +0.000 C 
ATOM     47  H   UNK A   0     -10.850  -8.694  16.854  0.00  0.00    +0.000 HD
BRANCH  46  48
ATOM     48  C   UNK A   0      -9.070  -8.519  15.674  0.00  0.00    +0.000 C 
ATOM     49  H   UNK A   0      -8.156  -7.914  15.659  0.00  0.00    +0.000 HD
ATOM     50  H   UNK A   0      -9.706  -8.176  14.851  0.00  0.00    +0.000 HD
ATOM     51  H   UNK A   0      -8.783  -9.556  15.472  0.00  0.00    +0.000 HD
ENDBRANCH  46  48
BRANCH  46  52
ATOM     52  C   UNK A   0      -9.199  -9.364  18.043  0.00  0.00    +0.000 C 
ATOM     53  H   UNK A   0      -9.954 -10.035  18.468  0.00  0.00    +0.000 HD
ATOM     54  H   UNK A   0      -8.749  -8.804  18.870  0.00  0.00    +0.000 HD
ATOM     55  H   UNK A   0      -8.420  -9.987  17.591  0.00  0.00    +0.000 HD
ENDBRANCH  46  52
ENDBRANCH   9  46
TORSDOF 12
ENDMDL
MODEL 8
REMARK VINA RESULT:    -8.051      4.518      7.088
REMARK INTER + INTRA:         -11.641
REMARK INTER:                 -11.103
REMARK INTRA:                  -0.538
REMARK UNBOUND:                 0.646
REMARK  Name = 
REMARK  12 active torsions:
REMARK  status: ('A' for Active; 'I' for Inactive)
REMARK    1  A    between atoms: CG1_1  and  CB_2
REMARK    2  A    between atoms: CB_2  and  CG2_3
REMARK    3  A    between atoms: CB_2  and  CA_4
REMARK    4  A    between atoms: CA_4  and  C_5
REMARK    5  A    between atoms: CA_4  and  N_7
REMARK    6  A    between atoms: C_5  and  O_6
REMARK    7  A    between atoms: N_11  and  C_12
REMARK    8  A    between atoms: C_15  and  C_16
REMARK    9  A    between atoms: C_16  and  O_18
REMARK   10  A    between atoms: N_25  and  C_26
REMARK   11  A    between atoms: C_26  and  C_27
REMARK   12  A    between atoms: C_26  and  C_28
REMARK                            x       y       z     vdW  Elec       q    Type
REMARK                         _______ _______ _______ _____ _____    ______ ____
ROOT
ATOM      1  N   VAL A   1      -8.552  -1.581  22.909  0.00  0.00    +0.000 N 
ATOM      2  C   UNK A   0      -8.659  -2.406  21.791  0.00  0.00    +0.000 A 
ATOM      3  N   UNK A   0      -9.806  -2.433  21.070  0.00  0.00    +0.000 NA
ATOM      4  C   UNK A   0      -9.889  -3.198  19.941  0.00  0.00    +0.000 A 
ATOM      5  N   UNK A   0     -11.040  -3.138  19.134  0.00  0.00    +0.000 N 
ATOM      6  C   UNK A   0      -8.802  -4.046  19.654  0.00  0.00    +0.000 A 
ATOM      7  N   UNK A   0      -8.593  -4.996  18.672  0.00  0.00    +0.000 NA
ATOM      8  C   UNK A   0      -7.394  -5.474  18.906  0.00  0.00    +0.000 A 
ATOM      9  N   UNK A   0      -6.813  -4.878  19.995  0.00  0.00    +0.000 N 
ATOM     10  C   UNK A   0      -7.696  -3.943  20.475  0.00  0.00    +0.000 A 
ATOM     11  N   UNK A   0      -7.546  -3.110  21.513  0.00  0.00    +0.000 NA
ATOM     12  H   VAL A   1      -7.887  -0.856  22.666  0.00  0.00    +0.000 HD
ATOM     13  H   UNK A   0     -11.814  -2.661  19.576  0.00  0.00    +0.000 HD
ATOM     14  H   UNK A   0      -6.909  -6.251  18.330  0.00  0.00    +0.000 HD
ENDROOT
BRANCH   5  15
ATOM     15  C   UNK A   0     -11.118  -3.315  17.739  0.00  0.00    +0.000 A 
ATOM     16  C   UNK A   0     -11.627  -4.500  17.203  0.00  0.00    +0.000 A 
ATOM     17  C   UNK A   0     -11.566  -4.742  15.822  0.00  0.00    +0.000 A 
ATOM     18  C   UNK A   0     -10.990  -3.804  14.945  0.00  0.00    +0.000 A 
ATOM     19  C   UNK A   0     -10.529  -2.596  15.470  0.00  0.00    +0.000 A 
ATOM     20 CL   UNK A   0      -9.849  -1.333  14.504  0.00  0.00    +0.000 Cl
ATOM     21  C   UNK A   0     -10.601  -2.362  16.847  0.00  0.00    +0.000 A 
ATOM     22  H   UNK A   0     -12.026  -5.272  17.855  0.00  0.00    +0.000 HD
ATOM     23  H   UNK A   0     -11.943  -5.687  15.431  0.00  0.00    +0.000 HD
ATOM     24  H   UNK A   0     -10.225  -1.416  17.233  0.00  0.00    +0.000 HD
BRANCH  18  25
ATOM     25  C   UNK A   0     -10.927  -4.181  13.510  0.00  0.00    +0.000 C 
ATOM     26  O   UNK A   0     -11.781  -3.822  12.715  0.00  0.00    +0.000 OA
BRANCH  25  27
ATOM     27  O   UNK A   0      -9.930  -5.020  13.166  0.00  0.00    +0.000 OA
ATOM     28  H   UNK A   0      -9.729  -5.056  12.213  0.00  0.00    +0.000 HD
ENDBRANCH  25  27
ENDBRANCH  18  25
ENDBRANCH   5  15
BRANCH   1  29
ATOM     29  CA  VAL A   1      -9.777  -1.124  23.569  0.00  0.00    +0.000 C 
ATOM     30  HA  VAL A   1     -10.411  -0.569  22.864  0.00  0.00    +0.000 HD
BRANCH  29  31
ATOM     31  C   VAL A   1     -10.572  -2.359  24.081  0.00  0.00    +0.000 C 
ATOM     32  H1  VAL A   1      -9.968  -3.269  24.029  0.00  0.00    +0.000 HD
ATOM     33  H2  VAL A   1     -10.852  -2.232  25.133  0.00  0.00    +0.000 HD
BRANCH  31  34
ATOM     34  O   VAL A   1     -11.767  -2.589  23.337  0.00  0.00    +0.000 OA
ATOM     35  H   VAL A   1     -12.248  -1.746  23.288  0.00  0.00    +0.000 HD
ENDBRANCH  31  34
ENDBRANCH  29  31
BRANCH  29  36
ATOM     36  CB  VAL A   1      -9.468  -0.141  24.745  0.00  0.00    +0.000 C 
ATOM     37  HB  VAL A   1     -10.411   0.360  25.005  0.00  0.00    +0.000 HD
BRANCH  36  38
ATOM     38  CG1 VAL A   1      -8.505   0.983  24.351  0.00  0.00    +0.000 C 
ATOM     39 HG11 VAL A   1      -8.033   1.413  25.243  0.00  0.00    +0.000 HD
ATOM     40 HG12 VAL A   1      -9.039   1.792  23.843  0.00  0.00    +0.000 HD
ATOM     41 HG13 VAL A   1      -7.704   0.631  23.695  0.00  0.00    +0.000 HD
ENDBRANCH  36  38
BRANCH  36  42
ATOM     42  CG2 VAL A   1      -8.969  -0.817  26.027  0.00  0.00    +0.000 C 
ATOM     43 HG21 VAL A   1      -9.759  -0.892  26.780  0.00  0.00    +0.000 HD
ATOM     44 HG22 VAL A   1      -8.119  -0.287  26.467  0.00  0.00    +0.000 HD
ATOM     45 HG23 VAL A   1      -8.624  -1.833  25.804  0.00  0.00    +0.000 HD
ENDBRANCH  36  42
ENDBRANCH  29  36
ENDBRANCH   1  29
BRANCH   9  46
ATOM     46  C   UNK A   0      -5.515  -5.230  20.555  0.00  0.00    +0.000 C 
ATOM     47  H   UNK A   0      -5.704  -5.775  21.487  0.00  0.00    +0.000 HD
BRANCH  46  48
ATOM     48  C   UNK A   0      -4.739  -6.153  19.611  0.00  0.00    +0.000 C 
ATOM     49  H   UNK A   0      -5.120  -6.100  18.584  0.00  0.00    +0.000 HD
ATOM     50  H   UNK A   0      -4.814  -7.196  19.937  0.00  0.00    +0.000 HD
ATOM     51  H   UNK A   0      -3.679  -5.880  19.584  0.00  0.00    +0.000 HD
ENDBRANCH  46  48
BRANCH  46  52
ATOM     52  C   UNK A   0      -4.696  -3.982  20.888  0.00  0.00    +0.000 C 
ATOM     53  H   UNK A   0      -4.237  -4.050  21.881  0.00  0.00    +0.000 HD
ATOM     54  H   UNK A   0      -5.331  -3.089  20.875  0.00  0.00    +0.000 HD
ATOM     55  H   UNK A   0      -3.890  -3.836  20.160  0.00  0.00    +0.000 HD
ENDBRANCH  46  52
ENDBRANCH   9  46
TORSDOF 12
ENDMDL
MODEL 9
REMARK VINA RESULT:    -7.882      3.611      6.586
REMARK INTER + INTRA:         -11.383
REMARK INTER:                 -10.571
REMARK INTRA:                  -0.812
REMARK UNBOUND:                 0.646
REMARK  Name = 
REMARK  12 active torsions:
REMARK  status: ('A' for Active; 'I' for Inactive)
REMARK    1  A    between atoms: CG1_1  and  CB_2
REMARK    2  A    between atoms: CB_2  and  CG2_3
REMARK    3  A    between atoms: CB_2  and  CA_4
REMARK    4  A    between atoms: CA_4  and  C_5
REMARK    5  A    between atoms: CA_4  and  N_7
REMARK    6  A    between atoms: C_5  and  O_6
REMARK    7  A    between atoms: N_11  and  C_12
REMARK    8  A    between atoms: C_15  and  C_16
REMARK    9  A    between atoms: C_16  and  O_18
REMARK   10  A    between atoms: N_25  and  C_26
REMARK   11  A    between atoms: C_26  and  C_27
REMARK   12  A    between atoms: C_26  and  C_28
REMARK                            x       y       z     vdW  Elec       q    Type
REMARK                         _______ _______ _______ _____ _____    ______ ____
ROOT
ATOM      1  N   VAL A   1     -10.160  -0.990  22.783  0.00  0.00    +0.000 N 
ATOM      2  C   UNK A   0      -9.983  -1.559  21.523  0.00  0.00    +0.000 A 
ATOM      3  N   UNK A   0      -9.166  -2.629  21.366  0.00  0.00    +0.000 NA
ATOM      4  C   UNK A   0      -9.040  -3.222  20.142  0.00  0.00    +0.000 A 
ATOM      5  N   UNK A   0      -8.280  -4.398  20.005  0.00  0.00    +0.000 N 
ATOM      6  C   UNK A   0      -9.672  -2.593  19.051  0.00  0.00    +0.000 A 
ATOM      7  N   UNK A   0      -9.678  -2.860  17.696  0.00  0.00    +0.000 NA
ATOM      8  C   UNK A   0     -10.438  -1.932  17.166  0.00  0.00    +0.000 A 
ATOM      9  N   UNK A   0     -10.928  -1.073  18.115  0.00  0.00    +0.000 N 
ATOM     10  C   UNK A   0     -10.462  -1.496  19.335  0.00  0.00    +0.000 A 
ATOM     11  N   UNK A   0     -10.699  -0.974  20.546  0.00  0.00    +0.000 NA
ATOM     12  H   VAL A   1     -11.114  -1.192  23.057  0.00  0.00    +0.000 HD
ATOM     13  H   UNK A   0      -7.714  -4.606  20.817  0.00  0.00    +0.000 HD
ATOM     14  H   UNK A   0     -10.656  -1.830  16.111  0.00  0.00    +0.000 HD
ENDROOT
BRANCH   5  15
ATOM     15  C   UNK A   0      -8.486  -5.449  19.090  0.00  0.00    +0.000 A 
ATOM     16  C   UNK A   0      -7.455  -5.866  18.246  0.00  0.00    +0.000 A 
ATOM     17  C   UNK A   0      -7.698  -6.805  17.233  0.00  0.00    +0.000 A 
ATOM     18  C   UNK A   0      -8.981  -7.347  17.038  0.00  0.00    +0.000 A 
ATOM     19  C   UNK A   0     -10.003  -6.975  17.914  0.00  0.00    +0.000 A 
ATOM     20 CL   UNK A   0     -11.612  -7.602  17.826  0.00  0.00    +0.000 Cl
ATOM     21  C   UNK A   0      -9.747  -6.043  18.925  0.00  0.00    +0.000 A 
ATOM     22  H   UNK A   0      -6.464  -5.426  18.329  0.00  0.00    +0.000 HD
ATOM     23  H   UNK A   0      -6.883  -7.092  16.567  0.00  0.00    +0.000 HD
ATOM     24  H   UNK A   0     -10.563  -5.760  19.588  0.00  0.00    +0.000 HD
BRANCH  18  25
ATOM     25  C   UNK A   0      -9.144  -8.293  15.904  0.00  0.00    +0.000 C 
ATOM     26  O   UNK A   0      -9.147  -9.502  16.072  0.00  0.00    +0.000 OA
BRANCH  25  27
ATOM     27  O   UNK A   0      -9.185  -7.737  14.677  0.00  0.00    +0.000 OA
ATOM     28  H   UNK A   0     -10.059  -7.747  14.247  0.00  0.00    +0.000 HD
ENDBRANCH  25  27
ENDBRANCH  18  25
ENDBRANCH   5  15
BRANCH   1  29
ATOM     29  CA  VAL A   1      -9.142  -1.222  23.811  0.00  0.00    +0.000 C 
ATOM     30  HA  VAL A   1      -8.210  -1.585  23.356  0.00  0.00    +0.000 HD
BRANCH  29  31
ATOM     31  C   VAL A   1      -8.844   0.116  24.546  0.00  0.00    +0.000 C 
ATOM     32  H1  VAL A   1      -9.714   0.457  25.115  0.00  0.00    +0.000 HD
ATOM     33  H2  VAL A   1      -8.030  -0.010  25.269  0.00  0.00    +0.000 HD
BRANCH  31  34
ATOM     34  O   VAL A   1      -8.474   1.163  23.652  0.00  0.00    +0.000 OA
ATOM     35  H   VAL A   1      -7.640   0.902  23.226  0.00  0.00    +0.000 HD
ENDBRANCH  31  34
ENDBRANCH  29  31
BRANCH  29  36
ATOM     36  CB  VAL A   1      -9.588  -2.323  24.829  0.00  0.00    +0.000 C 
ATOM     37  HB  VAL A   1      -9.072  -3.251  24.549  0.00  0.00    +0.000 HD
BRANCH  36  38
ATOM     38  CG1 VAL A   1     -11.083  -2.648  24.745  0.00  0.00    +0.000 C 
ATOM     39 HG11 VAL A   1     -11.662  -1.944  25.354  0.00  0.00    +0.000 HD
ATOM     40 HG12 VAL A   1     -11.284  -3.652  25.128  0.00  0.00    +0.000 HD
ATOM     41 HG13 VAL A   1     -11.464  -2.584  23.722  0.00  0.00    +0.000 HD
ENDBRANCH  36  38
BRANCH  36  42
ATOM     42  CG2 VAL A   1      -9.208  -2.036  26.286  0.00  0.00    +0.000 C 
ATOM     43 HG21 VAL A   1      -9.574  -1.060  26.616  0.00  0.00    +0.000 HD
ATOM     44 HG22 VAL A   1      -8.126  -2.073  26.443  0.00  0.00    +0.000 HD
ATOM     45 HG23 VAL A   1      -9.646  -2.796  26.943  0.00  0.00    +0.000 HD
ENDBRANCH  36  42
ENDBRANCH  29  36
ENDBRANCH   1  29
BRANCH   9  46
ATOM     46  C   UNK A   0     -11.747   0.100  17.847  0.00  0.00    +0.000 C 
ATOM     47  H   UNK A   0     -12.491   0.164  18.650  0.00  0.00    +0.000 HD
BRANCH  46  48
ATOM     48  C   UNK A   0     -10.905   1.379  17.874  0.00  0.00    +0.000 C 
ATOM     49  H   UNK A   0     -11.092   2.009  16.995  0.00  0.00    +0.000 HD
ATOM     50  H   UNK A   0      -9.836   1.142  17.888  0.00  0.00    +0.000 HD
ATOM     51  H   UNK A   0     -11.133   1.977  18.762  0.00  0.00    +0.000 HD
ENDBRANCH  46  48
BRANCH  46  52
ATOM     52  C   UNK A   0     -12.490  -0.031  16.517  0.00  0.00    +0.000 C 
ATOM     53  H   UNK A   0     -13.359   0.635  16.468  0.00  0.00    +0.000 HD
ATOM     54  H   UNK A   0     -12.849  -1.057  16.376  0.00  0.00    +0.000 HD
ATOM     55  H   UNK A   0     -11.835   0.217  15.675  0.00  0.00    +0.000 HD
ENDBRANCH  46  52
ENDBRANCH   9  46
TORSDOF 12
ENDMDL
