MODEL 1
REMARK VINA RESULT:    -8.999      0.000      0.000
REMARK INTER + INTRA:         -11.782
REMARK INTER:                 -11.104
REMARK INTRA:                  -0.678
REMARK UNBOUND:                -0.678
REMARK  Name = 
REMARK  6 active torsions:
REMARK  status: ('A' for Active; 'I' for Inactive)
REMARK    1  A    between atoms: O_1  and  C_2
REMARK    2  A    between atoms: C_8  and  O_9
REMARK    3  A    between atoms: C_10  and  O_11
REMARK    4  A    between atoms: N_13  and  C_14
REMARK    5  A    between atoms: C_14  and  C_15
REMARK    6  A    between atoms: C_23  and  O_24
REMARK                            x       y       z     vdW  Elec       q    Type
REMARK                         _______ _______ _______ _____ _____    ______ ____
ROOT
ATOM      1  C   UNL     1     -10.250  -5.332  15.445  0.00  0.00    +0.000 A 
ATOM      2  C   UNL     1      -9.983  -6.702  15.453  0.00  0.00    +0.000 A 
ATOM      3  C   UNL     1      -9.597  -7.322  16.661  0.00  0.00    +0.000 A 
ATOM      4  C   UNL     1      -9.270  -8.668  17.004  0.00  0.00    +0.000 A 
ATOM      5  C   UNL     1      -9.153  -9.858  16.248  0.00  0.00    +0.000 A 
ATOM      6  C   UNL     1      -8.864 -11.070  16.883  0.00  0.00    +0.000 A 
ATOM      7  C   UNL     1      -8.742 -11.102  18.263  0.00  0.00    +0.000 A 
ATOM      8  C   UNL     1      -8.860  -9.941  19.033  0.00  0.00    +0.000 A 
ATOM      9  C   UNL     1      -9.071  -8.715  18.388  0.00  0.00    +0.000 A 
ATOM     10  N   UNL     1      -9.090  -7.405  18.839  0.00  0.00    +0.000 N 
ATOM     11  C   UNL     1      -9.485  -6.548  17.820  0.00  0.00    +0.000 A 
ATOM     12  C   UNL     1      -9.722  -5.161  17.808  0.00  0.00    +0.000 A 
ATOM     13  C   UNL     1     -10.113  -4.575  16.601  0.00  0.00    +0.000 A 
ATOM     14  H   UNL     1     -10.077  -7.301  14.553  0.00  0.00    +0.000 HD
ATOM     15  H   UNL     1      -9.277  -9.828  15.169  0.00  0.00    +0.000 HD
ATOM     16  H   UNL     1      -8.761 -11.968  16.283  0.00  0.00    +0.000 HD
ATOM     17  H   UNL     1      -9.612  -4.569  18.710  0.00  0.00    +0.000 HD
ENDROOT
BRANCH  10  18
ATOM     18  C   UNL     1      -8.654  -6.959  20.164  0.00  0.00    +0.000 C 
ATOM     19  H   UNL     1      -8.532  -7.815  20.828  0.00  0.00    +0.000 HD
ATOM     20  H   UNL     1      -9.467  -6.359  20.586  0.00  0.00    +0.000 HD
BRANCH  18  21
ATOM     21  C   UNL     1      -7.367  -6.162  20.080  0.00  0.00    +0.000 A 
ATOM     22  C   UNL     1      -6.270  -6.647  19.353  0.00  0.00    +0.000 A 
ATOM     23  C   UNL     1      -5.061  -5.946  19.338  0.00  0.00    +0.000 A 
ATOM     24  C   UNL     1      -4.937  -4.749  20.039  0.00  0.00    +0.000 A 
ATOM     25  C   UNL     1      -6.030  -4.235  20.733  0.00  0.00    +0.000 A 
ATOM     26  C   UNL     1      -7.239  -4.931  20.743  0.00  0.00    +0.000 A 
ATOM     27  H   UNL     1      -6.340  -7.583  18.804  0.00  0.00    +0.000 HD
ATOM     28  H   UNL     1      -4.211  -6.340  18.788  0.00  0.00    +0.000 HD
ATOM     29  H   UNL     1      -3.990  -4.216  20.046  0.00  0.00    +0.000 HD
ATOM     30  H   UNL     1      -5.939  -3.299  21.277  0.00  0.00    +0.000 HD
ATOM     31  H   UNL     1      -8.078  -4.512  21.294  0.00  0.00    +0.000 HD
ENDBRANCH  18  21
ENDBRANCH  10  18
BRANCH   1  32
ATOM     32  O   UNL     1     -10.657  -4.725  14.286  0.00  0.00    +0.000 OA
ATOM     33  H   UNL     1     -11.447  -5.179  13.954  0.00  0.00    +0.000 HD
ENDBRANCH   1  32
BRANCH   7  34
ATOM     34  O   UNL     1      -8.486 -12.272  18.931  0.00  0.00    +0.000 OA
ATOM     35  H   UNL     1      -7.751 -12.720  18.476  0.00  0.00    +0.000 HD
ENDBRANCH   7  34
BRANCH   8  36
ATOM     36  O   UNL     1      -8.763 -10.047  20.399  0.00  0.00    +0.000 OA
ATOM     37  H   UNL     1      -8.446  -9.166  20.685  0.00  0.00    +0.000 HD
ENDBRANCH   8  36
BRANCH  13  38
ATOM     38  O   UNL     1     -10.370  -3.231  16.547  0.00  0.00    +0.000 OA
ATOM     39  H   UNL     1     -11.228  -3.058  16.959  0.00  0.00    +0.000 HD
ENDBRANCH  13  38
TORSDOF 6
ENDMDL
MODEL 2
REMARK VINA RESULT:    -8.606      1.109      4.795
REMARK INTER + INTRA:         -11.297
REMARK INTER:                 -10.765
REMARK INTRA:                  -0.532
REMARK UNBOUND:                -0.678
REMARK  Name = 
REMARK  6 active torsions:
REMARK  status: ('A' for Active; 'I' for Inactive)
REMARK    1  A    between atoms: O_1  and  C_2
REMARK    2  A    between atoms: C_8  and  O_9
REMARK    3  A    between atoms: C_10  and  O_11
REMARK    4  A    between atoms: N_13  and  C_14
REMARK    5  A    between atoms: C_14  and  C_15
REMARK    6  A    between atoms: C_23  and  O_24
REMARK                            x       y       z     vdW  Elec       q    Type
REMARK                         _______ _______ _______ _____ _____    ______ ____
ROOT
ATOM      1  C   UNL     1      -9.507 -10.311  17.096  0.00  0.00    +0.000 A 
ATOM      2  C   UNL     1     -10.036  -9.158  16.512  0.00  0.00    +0.000 A 
ATOM      3  C   UNL     1      -9.878  -7.919  17.169  0.00  0.00    +0.000 A 
ATOM      4  C   UNL     1     -10.279  -6.588  16.847  0.00  0.00    +0.000 A 
ATOM      5  C   UNL     1     -11.033  -6.035  15.785  0.00  0.00    +0.000 A 
ATOM      6  C   UNL     1     -11.222  -4.651  15.702  0.00  0.00    +0.000 A 
ATOM      7  C   UNL     1     -10.625  -3.826  16.641  0.00  0.00    +0.000 A 
ATOM      8  C   UNL     1      -9.869  -4.347  17.695  0.00  0.00    +0.000 A 
ATOM      9  C   UNL     1      -9.745  -5.738  17.822  0.00  0.00    +0.000 A 
ATOM     10  N   UNL     1      -9.203  -6.549  18.805  0.00  0.00    +0.000 N 
ATOM     11  C   UNL     1      -9.202  -7.875  18.391  0.00  0.00    +0.000 A 
ATOM     12  C   UNL     1      -8.697  -9.040  18.999  0.00  0.00    +0.000 A 
ATOM     13  C   UNL     1      -8.858 -10.252  18.322  0.00  0.00    +0.000 A 
ATOM     14  H   UNL     1     -10.554  -9.195  15.559  0.00  0.00    +0.000 HD
ATOM     15  H   UNL     1     -11.474  -6.688  15.038  0.00  0.00    +0.000 HD
ATOM     16  H   UNL     1     -11.818  -4.248  14.890  0.00  0.00    +0.000 HD
ATOM     17  H   UNL     1      -8.193  -8.994  19.958  0.00  0.00    +0.000 HD
ENDROOT
BRANCH  10  18
ATOM     18  C   UNL     1      -8.785  -6.104  20.136  0.00  0.00    +0.000 C 
ATOM     19  H   UNL     1      -8.889  -6.916  20.855  0.00  0.00    +0.000 HD
ATOM     20  H   UNL     1      -9.489  -5.325  20.451  0.00  0.00    +0.000 HD
BRANCH  18  21
ATOM     21  C   UNL     1      -7.361  -5.585  20.120  0.00  0.00    +0.000 A 
ATOM     22  C   UNL     1      -6.403  -6.148  19.264  0.00  0.00    +0.000 A 
ATOM     23  C   UNL     1      -5.074  -5.719  19.303  0.00  0.00    +0.000 A 
ATOM     24  C   UNL     1      -4.688  -4.716  20.191  0.00  0.00    +0.000 A 
ATOM     25  C   UNL     1      -5.636  -4.121  21.020  0.00  0.00    +0.000 A 
ATOM     26  C   UNL     1      -6.964  -4.545  20.976  0.00  0.00    +0.000 A 
ATOM     27  H   UNL     1      -6.678  -6.937  18.568  0.00  0.00    +0.000 HD
ATOM     28  H   UNL     1      -4.335  -6.174  18.649  0.00  0.00    +0.000 HD
ATOM     29  H   UNL     1      -3.650  -4.398  20.238  0.00  0.00    +0.000 HD
ATOM     30  H   UNL     1      -5.340  -3.336  21.710  0.00  0.00    +0.000 HD
ATOM     31  H   UNL     1      -7.686  -4.068  21.634  0.00  0.00    +0.000 HD
ENDBRANCH  18  21
ENDBRANCH  10  18
BRANCH   1  32
ATOM     32  O   UNL     1      -9.625 -11.515  16.453  0.00  0.00    +0.000 OA
ATOM     33  H   UNL     1     -10.166 -12.109  16.995  0.00  0.00    +0.000 HD
ENDBRANCH   1  32
BRANCH   7  34
ATOM     34  O   UNL     1     -10.760  -2.463  16.583  0.00  0.00    +0.000 OA
ATOM     35  H   UNL     1     -11.534  -2.263  16.027  0.00  0.00    +0.000 HD
ENDBRANCH   7  34
BRANCH   8  36
ATOM     36  O   UNL     1      -9.274  -3.473  18.572  0.00  0.00    +0.000 OA
ATOM     37  H   UNL     1      -9.933  -3.367  19.288  0.00  0.00    +0.000 HD
ENDBRANCH   8  36
BRANCH  13  38
ATOM     38  O   UNL     1      -8.367 -11.409  18.868  0.00  0.00    +0.000 OA
ATOM     39  H   UNL     1      -8.810 -12.163  18.455  0.00  0.00    +0.000 HD
ENDBRANCH  13  38
TORSDOF 6
ENDMDL
MODEL 3
REMARK VINA RESULT:    -8.167      2.277      4.890
REMARK INTER + INTRA:         -10.755
REMARK INTER:                 -10.065
REMARK INTRA:                  -0.690
REMARK UNBOUND:                -0.678
REMARK  Name = 
REMARK  6 active torsions:
REMARK  status: ('A' for Active; 'I' for Inactive)
REMARK    1  A    between atoms: O_1  and  C_2
REMARK    2  A    between atoms: C_8  and  O_9
REMARK    3  A    between atoms: C_10  and  O_11
REMARK    4  A    between atoms: N_13  and  C_14
REMARK    5  A    between atoms: C_14  and  C_15
REMARK    6  A    between atoms: C_23  and  O_24
REMARK                            x       y       z     vdW  Elec       q    Type
REMARK                         _______ _______ _______ _____ _____    ______ ____
ROOT
ATOM      1  C   UNL     1      -8.048  -4.803  20.408  0.00  0.00    +0.000 A 
ATOM      2  C   UNL     1      -8.017  -6.169  20.122  0.00  0.00    +0.000 A 
ATOM      3  C   UNL     1      -8.799  -6.668  19.057  0.00  0.00    +0.000 A 
ATOM      4  C   UNL     1      -8.982  -7.973  18.511  0.00  0.00    +0.000 A 
ATOM      5  C   UNL     1      -8.497  -9.251  18.876  0.00  0.00    +0.000 A 
ATOM      6  C   UNL     1      -8.811 -10.372  18.100  0.00  0.00    +0.000 A 
ATOM      7  C   UNL     1      -9.559 -10.210  16.945  0.00  0.00    +0.000 A 
ATOM      8  C   UNL     1     -10.044  -8.957  16.559  0.00  0.00    +0.000 A 
ATOM      9  C   UNL     1      -9.795  -7.848  17.379  0.00  0.00    +0.000 A 
ATOM     10  N   UNL     1     -10.244  -6.538  17.354  0.00  0.00    +0.000 N 
ATOM     11  C   UNL     1      -9.589  -5.783  18.318  0.00  0.00    +0.000 A 
ATOM     12  C   UNL     1      -9.648  -4.410  18.625  0.00  0.00    +0.000 A 
ATOM     13  C   UNL     1      -8.856  -3.942  19.677  0.00  0.00    +0.000 A 
ATOM     14  H   UNL     1      -7.397  -6.852  20.693  0.00  0.00    +0.000 HD
ATOM     15  H   UNL     1      -7.888  -9.364  19.768  0.00  0.00    +0.000 HD
ATOM     16  H   UNL     1      -8.444 -11.345  18.406  0.00  0.00    +0.000 HD
ATOM     17  H   UNL     1     -10.281  -3.739  18.056  0.00  0.00    +0.000 HD
ENDROOT
BRANCH  10  18
ATOM     18  C   UNL     1     -11.329  -6.031  16.511  0.00  0.00    +0.000 C 
ATOM     19  H   UNL     1     -12.112  -5.589  17.129  0.00  0.00    +0.000 HD
ATOM     20  H   UNL     1     -11.784  -6.895  16.015  0.00  0.00    +0.000 HD
BRANCH  18  21
ATOM     21  C   UNL     1     -10.816  -5.024  15.501  0.00  0.00    +0.000 A 
ATOM     22  C   UNL     1     -11.472  -3.798  15.314  0.00  0.00    +0.000 A 
ATOM     23  C   UNL     1     -11.041  -2.903  14.331  0.00  0.00    +0.000 A 
ATOM     24  C   UNL     1      -9.945  -3.217  13.531  0.00  0.00    +0.000 A 
ATOM     25  C   UNL     1      -9.260  -4.412  13.731  0.00  0.00    +0.000 A 
ATOM     26  C   UNL     1      -9.686  -5.303  14.716  0.00  0.00    +0.000 A 
ATOM     27  H   UNL     1     -12.335  -3.534  15.922  0.00  0.00    +0.000 HD
ATOM     28  H   UNL     1     -11.568  -1.965  14.181  0.00  0.00    +0.000 HD
ATOM     29  H   UNL     1      -9.624  -2.531  12.751  0.00  0.00    +0.000 HD
ATOM     30  H   UNL     1      -8.401  -4.659  13.112  0.00  0.00    +0.000 HD
ATOM     31  H   UNL     1      -9.136  -6.232  14.853  0.00  0.00    +0.000 HD
ENDBRANCH  18  21
ENDBRANCH  10  18
BRANCH   1  32
ATOM     32  O   UNL     1      -7.269  -4.302  21.418  0.00  0.00    +0.000 OA
ATOM     33  H   UNL     1      -6.744  -3.564  21.073  0.00  0.00    +0.000 HD
ENDBRANCH   1  32
BRANCH   7  34
ATOM     34  O   UNL     1      -9.867 -11.274  16.138  0.00  0.00    +0.000 OA
ATOM     35  H   UNL     1      -9.090 -11.860  16.108  0.00  0.00    +0.000 HD
ENDBRANCH   7  34
BRANCH   8  36
ATOM     36  O   UNL     1     -10.749  -8.859  15.384  0.00  0.00    +0.000 OA
ATOM     37  H   UNL     1     -10.233  -8.224  14.848  0.00  0.00    +0.000 HD
ENDBRANCH   8  36
BRANCH  13  38
ATOM     38  O   UNL     1      -8.869  -2.611  20.000  0.00  0.00    +0.000 OA
ATOM     39  H   UNL     1      -8.246  -2.458  20.725  0.00  0.00    +0.000 HD
ENDBRANCH  13  38
TORSDOF 6
ENDMDL
MODEL 4
REMARK VINA RESULT:    -7.640      2.538      5.781
REMARK INTER + INTRA:         -10.105
REMARK INTER:                  -9.743
REMARK INTRA:                  -0.362
REMARK UNBOUND:                -0.678
REMARK  Name = 
REMARK  6 active torsions:
REMARK  status: ('A' for Active; 'I' for Inactive)
REMARK    1  A    between atoms: O_1  and  C_2
REMARK    2  A    between atoms: C_8  and  O_9
REMARK    3  A    between atoms: C_10  and  O_11
REMARK    4  A    between atoms: N_13  and  C_14
REMARK    5  A    between atoms: C_14  and  C_15
REMARK    6  A    between atoms: C_23  and  O_24
REMARK                            x       y       z     vdW  Elec       q    Type
REMARK                         _______ _______ _______ _____ _____    ______ ____
ROOT
ATOM      1  C   UNL     1      -8.674  -2.597  21.285  0.00  0.00    +0.000 A 
ATOM      2  C   UNL     1      -9.572  -2.525  20.217  0.00  0.00    +0.000 A 
ATOM      3  C   UNL     1      -9.535  -3.521  19.218  0.00  0.00    +0.000 A 
ATOM      4  C   UNL     1     -10.299  -3.740  18.033  0.00  0.00    +0.000 A 
ATOM      5  C   UNL     1     -11.327  -3.007  17.395  0.00  0.00    +0.000 A 
ATOM      6  C   UNL     1     -11.941  -3.511  16.244  0.00  0.00    +0.000 A 
ATOM      7  C   UNL     1     -11.566  -4.755  15.763  0.00  0.00    +0.000 A 
ATOM      8  C   UNL     1     -10.558  -5.502  16.378  0.00  0.00    +0.000 A 
ATOM      9  C   UNL     1      -9.890  -4.962  17.486  0.00  0.00    +0.000 A 
ATOM     10  N   UNL     1      -8.783  -5.372  18.211  0.00  0.00    +0.000 N 
ATOM     11  C   UNL     1      -8.598  -4.553  19.316  0.00  0.00    +0.000 A 
ATOM     12  C   UNL     1      -7.670  -4.611  20.374  0.00  0.00    +0.000 A 
ATOM     13  C   UNL     1      -7.735  -3.618  21.355  0.00  0.00    +0.000 A 
ATOM     14  H   UNL     1     -10.303  -1.726  20.148  0.00  0.00    +0.000 HD
ATOM     15  H   UNL     1     -11.633  -2.045  17.796  0.00  0.00    +0.000 HD
ATOM     16  H   UNL     1     -12.716  -2.925  15.760  0.00  0.00    +0.000 HD
ATOM     17  H   UNL     1      -6.934  -5.406  20.426  0.00  0.00    +0.000 HD
ENDROOT
BRANCH  10  18
ATOM     18  C   UNL     1      -7.867  -6.447  17.822  0.00  0.00    +0.000 C 
ATOM     19  H   UNL     1      -6.841  -6.176  18.071  0.00  0.00    +0.000 HD
ATOM     20  H   UNL     1      -7.905  -6.524  16.729  0.00  0.00    +0.000 HD
BRANCH  18  21
ATOM     21  C   UNL     1      -8.247  -7.758  18.480  0.00  0.00    +0.000 A 
ATOM     22  C   UNL     1      -8.112  -7.930  19.866  0.00  0.00    +0.000 A 
ATOM     23  C   UNL     1      -8.393  -9.163  20.460  0.00  0.00    +0.000 A 
ATOM     24  C   UNL     1      -8.820 -10.235  19.680  0.00  0.00    +0.000 A 
ATOM     25  C   UNL     1      -8.996 -10.069  18.309  0.00  0.00    +0.000 A 
ATOM     26  C   UNL     1      -8.722  -8.836  17.715  0.00  0.00    +0.000 A 
ATOM     27  H   UNL     1      -7.773  -7.110  20.494  0.00  0.00    +0.000 HD
ATOM     28  H   UNL     1      -8.267  -9.292  21.531  0.00  0.00    +0.000 HD
ATOM     29  H   UNL     1      -9.017 -11.200  20.139  0.00  0.00    +0.000 HD
ATOM     30  H   UNL     1      -9.334 -10.901  17.697  0.00  0.00    +0.000 HD
ATOM     31  H   UNL     1      -8.865  -8.730  16.643  0.00  0.00    +0.000 HD
ENDBRANCH  18  21
ENDBRANCH  10  18
BRANCH   1  32
ATOM     32  O   UNL     1      -8.721  -1.655  22.278  0.00  0.00    +0.000 OA
ATOM     33  H   UNL     1      -9.648  -1.456  22.478  0.00  0.00    +0.000 HD
ENDBRANCH   1  32
BRANCH   7  34
ATOM     34  O   UNL     1     -12.160  -5.300  14.654  0.00  0.00    +0.000 OA
ATOM     35  H   UNL     1     -13.122  -5.305  14.802  0.00  0.00    +0.000 HD
ENDBRANCH   7  34
BRANCH   8  36
ATOM     36  O   UNL     1     -10.258  -6.744  15.873  0.00  0.00    +0.000 OA
ATOM     37  H   UNL     1     -10.082  -6.578  14.924  0.00  0.00    +0.000 HD
ENDBRANCH   8  36
BRANCH  13  38
ATOM     38  O   UNL     1      -6.862  -3.644  22.410  0.00  0.00    +0.000 OA
ATOM     39  H   UNL     1      -6.980  -4.473  22.895  0.00  0.00    +0.000 HD
ENDBRANCH  13  38
TORSDOF 6
ENDMDL
MODEL 5
REMARK VINA RESULT:    -7.636      2.576      5.724
REMARK INTER + INTRA:         -10.100
REMARK INTER:                  -9.286
REMARK INTRA:                  -0.814
REMARK UNBOUND:                -0.678
REMARK  Name = 
REMARK  6 active torsions:
REMARK  status: ('A' for Active; 'I' for Inactive)
REMARK    1  A    between atoms: O_1  and  C_2
REMARK    2  A    between atoms: C_8  and  O_9
REMARK    3  A    between atoms: C_10  and  O_11
REMARK    4  A    between atoms: N_13  and  C_14
REMARK    5  A    between atoms: C_14  and  C_15
REMARK    6  A    between atoms: C_23  and  O_24
REMARK                            x       y       z     vdW  Elec       q    Type
REMARK                         _______ _______ _______ _____ _____    ______ ____
ROOT
ATOM      1  C   UNL     1      -9.545  -8.822  16.794  0.00  0.00    +0.000 A 
ATOM      2  C   UNL     1      -8.563  -8.188  17.558  0.00  0.00    +0.000 A 
ATOM      3  C   UNL     1      -8.830  -6.914  18.103  0.00  0.00    +0.000 A 
ATOM      4  C   UNL     1      -8.067  -6.022  18.915  0.00  0.00    +0.000 A 
ATOM      5  C   UNL     1      -6.745  -6.061  19.416  0.00  0.00    +0.000 A 
ATOM      6  C   UNL     1      -6.278  -5.042  20.252  0.00  0.00    +0.000 A 
ATOM      7  C   UNL     1      -7.137  -4.021  20.623  0.00  0.00    +0.000 A 
ATOM      8  C   UNL     1      -8.451  -3.963  20.148  0.00  0.00    +0.000 A 
ATOM      9  C   UNL     1      -8.893  -4.942  19.247  0.00  0.00    +0.000 A 
ATOM     10  N   UNL     1     -10.053  -5.083  18.504  0.00  0.00    +0.000 N 
ATOM     11  C   UNL     1     -10.070  -6.314  17.862  0.00  0.00    +0.000 A 
ATOM     12  C   UNL     1     -11.050  -6.937  17.065  0.00  0.00    +0.000 A 
ATOM     13  C   UNL     1     -10.763  -8.202  16.547  0.00  0.00    +0.000 A 
ATOM     14  H   UNL     1      -7.605  -8.659  17.749  0.00  0.00    +0.000 HD
ATOM     15  H   UNL     1      -6.087  -6.881  19.141  0.00  0.00    +0.000 HD
ATOM     16  H   UNL     1      -5.255  -5.082  20.612  0.00  0.00    +0.000 HD
ATOM     17  H   UNL     1     -11.999  -6.451  16.869  0.00  0.00    +0.000 HD
ENDROOT
BRANCH  10  18
ATOM     18  C   UNL     1     -11.075  -4.049  18.324  0.00  0.00    +0.000 C 
ATOM     19  H   UNL     1     -11.163  -3.446  19.228  0.00  0.00    +0.000 HD
ATOM     20  H   UNL     1     -12.036  -4.562  18.205  0.00  0.00    +0.000 HD
BRANCH  18  21
ATOM     21  C   UNL     1     -10.765  -3.173  17.127  0.00  0.00    +0.000 A 
ATOM     22  C   UNL     1     -10.023  -1.992  17.276  0.00  0.00    +0.000 A 
ATOM     23  C   UNL     1      -9.802  -1.149  16.184  0.00  0.00    +0.000 A 
ATOM     24  C   UNL     1     -10.310  -1.479  14.930  0.00  0.00    +0.000 A 
ATOM     25  C   UNL     1     -11.016  -2.667  14.758  0.00  0.00    +0.000 A 
ATOM     26  C   UNL     1     -11.231  -3.513  15.847  0.00  0.00    +0.000 A 
ATOM     27  H   UNL     1      -9.622  -1.709  18.246  0.00  0.00    +0.000 HD
ATOM     28  H   UNL     1      -9.241  -0.227  16.313  0.00  0.00    +0.000 HD
ATOM     29  H   UNL     1     -10.158  -0.812  14.085  0.00  0.00    +0.000 HD
ATOM     30  H   UNL     1     -11.410  -2.932  13.781  0.00  0.00    +0.000 HD
ATOM     31  H   UNL     1     -11.787  -4.435  15.690  0.00  0.00    +0.000 HD
ENDBRANCH  18  21
ENDBRANCH  10  18
BRANCH   1  32
ATOM     32  O   UNL     1      -9.310 -10.073  16.287  0.00  0.00    +0.000 OA
ATOM     33  H   UNL     1     -10.128 -10.591  16.336  0.00  0.00    +0.000 HD
ENDBRANCH   1  32
BRANCH   7  34
ATOM     34  O   UNL     1      -6.732  -3.016  21.463  0.00  0.00    +0.000 OA
ATOM     35  H   UNL     1      -6.149  -2.422  20.957  0.00  0.00    +0.000 HD
ENDBRANCH   7  34
BRANCH   8  36
ATOM     36  O   UNL     1      -9.262  -2.943  20.582  0.00  0.00    +0.000 OA
ATOM     37  H   UNL     1     -10.113  -3.384  20.780  0.00  0.00    +0.000 HD
ENDBRANCH   8  36
BRANCH  13  38
ATOM     38  O   UNL     1     -11.693  -8.852  15.780  0.00  0.00    +0.000 OA
ATOM     39  H   UNL     1     -11.897  -8.308  15.006  0.00  0.00    +0.000 HD
ENDBRANCH  13  38
TORSDOF 6
ENDMDL
MODEL 6
REMARK VINA RESULT:    -7.533      2.891      5.434
REMARK INTER + INTRA:          -9.973
REMARK INTER:                  -9.273
REMARK INTRA:                  -0.699
REMARK UNBOUND:                -0.678
REMARK  Name = 
REMARK  6 active torsions:
REMARK  status: ('A' for Active; 'I' for Inactive)
REMARK    1  A    between atoms: O_1  and  C_2
REMARK    2  A    between atoms: C_8  and  O_9
REMARK    3  A    between atoms: C_10  and  O_11
REMARK    4  A    between atoms: N_13  and  C_14
REMARK    5  A    between atoms: C_14  and  C_15
REMARK    6  A    between atoms: C_23  and  O_24
REMARK                            x       y       z     vdW  Elec       q    Type
REMARK                         _______ _______ _______ _____ _____    ______ ____
ROOT
ATOM      1  C   UNL     1      -7.360  -4.126  20.899  0.00  0.00    +0.000 A 
ATOM      2  C   UNL     1      -7.579  -5.343  20.248  0.00  0.00    +0.000 A 
ATOM      3  C   UNL     1      -8.631  -5.443  19.312  0.00  0.00    +0.000 A 
ATOM      4  C   UNL     1      -9.103  -6.509  18.489  0.00  0.00    +0.000 A 
ATOM      5  C   UNL     1      -8.732  -7.868  18.359  0.00  0.00    +0.000 A 
ATOM      6  C   UNL     1      -9.354  -8.680  17.405  0.00  0.00    +0.000 A 
ATOM      7  C   UNL     1     -10.302  -8.128  16.558  0.00  0.00    +0.000 A 
ATOM      8  C   UNL     1     -10.682  -6.787  16.662  0.00  0.00    +0.000 A 
ATOM      9  C   UNL     1     -10.114  -5.995  17.670  0.00  0.00    +0.000 A 
ATOM     10  N   UNL     1     -10.374  -4.710  18.116  0.00  0.00    +0.000 N 
ATOM     11  C   UNL     1      -9.431  -4.326  19.061  0.00  0.00    +0.000 A 
ATOM     12  C   UNL     1      -9.234  -3.107  19.739  0.00  0.00    +0.000 A 
ATOM     13  C   UNL     1      -8.180  -3.032  20.653  0.00  0.00    +0.000 A 
ATOM     14  H   UNL     1      -6.951  -6.206  20.440  0.00  0.00    +0.000 HD
ATOM     15  H   UNL     1      -7.968  -8.285  19.009  0.00  0.00    +0.000 HD
ATOM     16  H   UNL     1      -9.067  -9.724  17.332  0.00  0.00    +0.000 HD
ATOM     17  H   UNL     1      -9.877  -2.255  19.549  0.00  0.00    +0.000 HD
ENDROOT
BRANCH  10  18
ATOM     18  C   UNL     1     -11.534  -3.900  17.737  0.00  0.00    +0.000 C 
ATOM     19  H   UNL     1     -12.006  -3.478  18.624  0.00  0.00    +0.000 HD
ATOM     20  H   UNL     1     -12.271  -4.579  17.294  0.00  0.00    +0.000 HD
BRANCH  18  21
ATOM     21  C   UNL     1     -11.144  -2.802  16.768  0.00  0.00    +0.000 A 
ATOM     22  C   UNL     1     -10.659  -3.113  15.489  0.00  0.00    +0.000 A 
ATOM     23  C   UNL     1     -10.231  -2.102  14.625  0.00  0.00    +0.000 A 
ATOM     24  C   UNL     1     -10.293  -0.769  15.023  0.00  0.00    +0.000 A 
ATOM     25  C   UNL     1     -10.808  -0.441  16.274  0.00  0.00    +0.000 A 
ATOM     26  C   UNL     1     -11.241  -1.450  17.135  0.00  0.00    +0.000 A 
ATOM     27  H   UNL     1     -10.595  -4.147  15.158  0.00  0.00    +0.000 HD
ATOM     28  H   UNL     1      -9.840  -2.355  13.643  0.00  0.00    +0.000 HD
ATOM     29  H   UNL     1      -9.939   0.016  14.359  0.00  0.00    +0.000 HD
ATOM     30  H   UNL     1     -10.862   0.598  16.587  0.00  0.00    +0.000 HD
ATOM     31  H   UNL     1     -11.638  -1.171  18.108  0.00  0.00    +0.000 HD
ENDBRANCH  18  21
ENDBRANCH  10  18
BRANCH   1  32
ATOM     32  O   UNL     1      -6.324  -4.006  21.785  0.00  0.00    +0.000 OA
ATOM     33  H   UNL     1      -6.597  -3.425  22.511  0.00  0.00    +0.000 HD
ENDBRANCH   1  32
BRANCH   7  34
ATOM     34  O   UNL     1     -10.918  -8.879  15.590  0.00  0.00    +0.000 OA
ATOM     35  H   UNL     1     -11.605  -9.417  16.022  0.00  0.00    +0.000 HD
ENDBRANCH   7  34
BRANCH   8  36
ATOM     36  O   UNL     1     -11.601  -6.293  15.769  0.00  0.00    +0.000 OA
ATOM     37  H   UNL     1     -12.422  -6.785  15.975  0.00  0.00    +0.000 HD
ENDBRANCH   8  36
BRANCH  13  38
ATOM     38  O   UNL     1      -7.941  -1.862  21.323  0.00  0.00    +0.000 OA
ATOM     39  H   UNL     1      -8.580  -1.197  21.030  0.00  0.00    +0.000 HD
ENDBRANCH  13  38
TORSDOF 6
ENDMDL
MODEL 7
REMARK VINA RESULT:    -7.505      2.563      5.459
REMARK INTER + INTRA:          -9.938
REMARK INTER:                  -9.483
REMARK INTRA:                  -0.455
REMARK UNBOUND:                -0.678
REMARK  Name = 
REMARK  6 active torsions:
REMARK  status: ('A' for Active; 'I' for Inactive)
REMARK    1  A    between atoms: O_1  and  C_2
REMARK    2  A    between atoms: C_8  and  O_9
REMARK    3  A    between atoms: C_10  and  O_11
REMARK    4  A    between atoms: N_13  and  C_14
REMARK    5  A    between atoms: C_14  and  C_15
REMARK    6  A    between atoms: C_23  and  O_24
REMARK                            x       y       z     vdW  Elec       q    Type
REMARK                         _______ _______ _______ _____ _____    ______ ____
ROOT
ATOM      1  C   UNL     1     -10.979  -2.742  19.760  0.00  0.00    +0.000 A 
ATOM      2  C   UNL     1      -9.722  -2.852  20.359  0.00  0.00    +0.000 A 
ATOM      3  C   UNL     1      -8.800  -3.796  19.857  0.00  0.00    +0.000 A 
ATOM      4  C   UNL     1      -7.466  -4.145  20.225  0.00  0.00    +0.000 A 
ATOM      5  C   UNL     1      -6.606  -3.718  21.263  0.00  0.00    +0.000 A 
ATOM      6  C   UNL     1      -5.299  -4.210  21.343  0.00  0.00    +0.000 A 
ATOM      7  C   UNL     1      -4.841  -5.081  20.368  0.00  0.00    +0.000 A 
ATOM      8  C   UNL     1      -5.669  -5.513  19.327  0.00  0.00    +0.000 A 
ATOM      9  C   UNL     1      -7.002  -5.080  19.293  0.00  0.00    +0.000 A 
ATOM     10  N   UNL     1      -8.085  -5.427  18.503  0.00  0.00    +0.000 N 
ATOM     11  C   UNL     1      -9.168  -4.602  18.776  0.00  0.00    +0.000 A 
ATOM     12  C   UNL     1     -10.446  -4.517  18.191  0.00  0.00    +0.000 A 
ATOM     13  C   UNL     1     -11.335  -3.567  18.701  0.00  0.00    +0.000 A 
ATOM     14  H   UNL     1      -9.437  -2.220  21.193  0.00  0.00    +0.000 HD
ATOM     15  H   UNL     1      -6.965  -3.013  22.008  0.00  0.00    +0.000 HD
ATOM     16  H   UNL     1      -4.660  -3.883  22.156  0.00  0.00    +0.000 HD
ATOM     17  H   UNL     1     -10.725  -5.163  17.367  0.00  0.00    +0.000 HD
ENDROOT
BRANCH  10  18
ATOM     18  C   UNL     1      -8.132  -6.567  17.584  0.00  0.00    +0.000 C 
ATOM     19  H   UNL     1      -7.202  -6.635  17.019  0.00  0.00    +0.000 HD
ATOM     20  H   UNL     1      -8.919  -6.358  16.851  0.00  0.00    +0.000 HD
BRANCH  18  21
ATOM     21  C   UNL     1      -8.400  -7.861  18.326  0.00  0.00    +0.000 A 
ATOM     22  C   UNL     1      -8.283  -7.924  19.723  0.00  0.00    +0.000 A 
ATOM     23  C   UNL     1      -8.458  -9.135  20.397  0.00  0.00    +0.000 A 
ATOM     24  C   UNL     1      -8.763 -10.294  19.687  0.00  0.00    +0.000 A 
ATOM     25  C   UNL     1      -8.922 -10.239  18.305  0.00  0.00    +0.000 A 
ATOM     26  C   UNL     1      -8.753  -9.029  17.631  0.00  0.00    +0.000 A 
ATOM     27  H   UNL     1      -8.038  -7.034  20.298  0.00  0.00    +0.000 HD
ATOM     28  H   UNL     1      -8.347  -9.177  21.477  0.00  0.00    +0.000 HD
ATOM     29  H   UNL     1      -8.877 -11.240  20.209  0.00  0.00    +0.000 HD
ATOM     30  H   UNL     1      -9.165 -11.140  17.747  0.00  0.00    +0.000 HD
ATOM     31  H   UNL     1      -8.879  -9.011  16.551  0.00  0.00    +0.000 HD
ENDBRANCH  18  21
ENDBRANCH  10  18
BRANCH   1  32
ATOM     32  O   UNL     1     -11.871  -1.809  20.217  0.00  0.00    +0.000 OA
ATOM     33  H   UNL     1     -11.462  -0.932  20.164  0.00  0.00    +0.000 HD
ENDBRANCH   1  32
BRANCH   7  34
ATOM     34  O   UNL     1      -3.560  -5.568  20.389  0.00  0.00    +0.000 OA
ATOM     35  H   UNL     1      -3.057  -5.115  19.688  0.00  0.00    +0.000 HD
ENDBRANCH   7  34
BRANCH   8  36
ATOM     36  O   UNL     1      -5.143  -6.350  18.373  0.00  0.00    +0.000 OA
ATOM     37  H   UNL     1      -4.392  -5.844  18.000  0.00  0.00    +0.000 HD
ENDBRANCH   8  36
BRANCH  13  38
ATOM     38  O   UNL     1     -12.583  -3.438  18.152  0.00  0.00    +0.000 OA
ATOM     39  H   UNL     1     -12.492  -3.236  17.210  0.00  0.00    +0.000 HD
ENDBRANCH  13  38
TORSDOF 6
ENDMDL
MODEL 8
REMARK VINA RESULT:    -7.464      1.564      2.277
REMARK INTER + INTRA:          -9.888
REMARK INTER:                  -9.099
REMARK INTRA:                  -0.789
REMARK UNBOUND:                -0.678
REMARK  Name = 
REMARK  6 active torsions:
REMARK  status: ('A' for Active; 'I' for Inactive)
REMARK    1  A    between atoms: O_1  and  C_2
REMARK    2  A    between atoms: C_8  and  O_9
REMARK    3  A    between atoms: C_10  and  O_11
REMARK    4  A    between atoms: N_13  and  C_14
REMARK    5  A    between atoms: C_14  and  C_15
REMARK    6  A    between atoms: C_23  and  O_24
REMARK                            x       y       z     vdW  Elec       q    Type
REMARK                         _______ _______ _______ _____ _____    ______ ____
ROOT
ATOM      1  C   UNL     1     -10.688  -2.551  16.965  0.00  0.00    +0.000 A 
ATOM      2  C   UNL     1     -10.461  -3.787  16.354  0.00  0.00    +0.000 A 
ATOM      3  C   UNL     1      -9.943  -4.851  17.124  0.00  0.00    +0.000 A 
ATOM      4  C   UNL     1      -9.614  -6.205  16.817  0.00  0.00    +0.000 A 
ATOM      5  C   UNL     1      -9.627  -6.956  15.619  0.00  0.00    +0.000 A 
ATOM      6  C   UNL     1      -9.295  -8.315  15.634  0.00  0.00    +0.000 A 
ATOM      7  C   UNL     1      -9.001  -8.927  16.842  0.00  0.00    +0.000 A 
ATOM      8  C   UNL     1      -8.987  -8.209  18.041  0.00  0.00    +0.000 A 
ATOM      9  C   UNL     1      -9.244  -6.831  18.013  0.00  0.00    +0.000 A 
ATOM     10  N   UNL     1      -9.168  -5.839  18.976  0.00  0.00    +0.000 N 
ATOM     11  C   UNL     1      -9.664  -4.642  18.478  0.00  0.00    +0.000 A 
ATOM     12  C   UNL     1      -9.861  -3.388  19.089  0.00  0.00    +0.000 A 
ATOM     13  C   UNL     1     -10.384  -2.356  18.306  0.00  0.00    +0.000 A 
ATOM     14  H   UNL     1     -10.685  -3.947  15.305  0.00  0.00    +0.000 HD
ATOM     15  H   UNL     1      -9.886  -6.473  14.681  0.00  0.00    +0.000 HD
ATOM     16  H   UNL     1      -9.295  -8.868  14.702  0.00  0.00    +0.000 HD
ATOM     17  H   UNL     1      -9.620  -3.235  20.135  0.00  0.00    +0.000 HD
ENDROOT
BRANCH  10  18
ATOM     18  C   UNL     1      -8.555  -5.988  20.298  0.00  0.00    +0.000 C 
ATOM     19  H   UNL     1      -8.528  -7.039  20.585  0.00  0.00    +0.000 HD
ATOM     20  H   UNL     1      -9.216  -5.492  21.018  0.00  0.00    +0.000 HD
BRANCH  18  21
ATOM     21  C   UNL     1      -7.162  -5.391  20.329  0.00  0.00    +0.000 A 
ATOM     22  C   UNL     1      -6.151  -5.888  19.492  0.00  0.00    +0.000 A 
ATOM     23  C   UNL     1      -4.850  -5.386  19.574  0.00  0.00    +0.000 A 
ATOM     24  C   UNL     1      -4.545  -4.377  20.485  0.00  0.00    +0.000 A 
ATOM     25  C   UNL     1      -5.546  -3.847  21.295  0.00  0.00    +0.000 A 
ATOM     26  C   UNL     1      -6.847  -4.343  21.208  0.00  0.00    +0.000 A 
ATOM     27  H   UNL     1      -6.364  -6.680  18.778  0.00  0.00    +0.000 HD
ATOM     28  H   UNL     1      -4.070  -5.790  18.935  0.00  0.00    +0.000 HD
ATOM     29  H   UNL     1      -3.528  -4.003  20.565  0.00  0.00    +0.000 HD
ATOM     30  H   UNL     1      -5.314  -3.057  22.003  0.00  0.00    +0.000 HD
ATOM     31  H   UNL     1      -7.612  -3.916  21.852  0.00  0.00    +0.000 HD
ENDBRANCH  18  21
ENDBRANCH  10  18
BRANCH   1  32
ATOM     32  O   UNL     1     -11.221  -1.521  16.237  0.00  0.00    +0.000 OA
ATOM     33  H   UNL     1     -12.054  -1.815  15.839  0.00  0.00    +0.000 HD
ENDBRANCH   1  32
BRANCH   7  34
ATOM     34  O   UNL     1      -8.697 -10.262  16.910  0.00  0.00    +0.000 OA
ATOM     35  H   UNL     1      -8.139 -10.480  16.142  0.00  0.00    +0.000 HD
ENDBRANCH   7  34
BRANCH   8  36
ATOM     36  O   UNL     1      -8.722  -8.884  19.208  0.00  0.00    +0.000 OA
ATOM     37  H   UNL     1      -8.022  -9.522  18.960  0.00  0.00    +0.000 HD
ENDBRANCH   8  36
BRANCH  13  38
ATOM     38  O   UNL     1     -10.607  -1.124  18.863  0.00  0.00    +0.000 OA
ATOM     39  H   UNL     1     -10.342  -0.442  18.231  0.00  0.00    +0.000 HD
ENDBRANCH  13  38
TORSDOF 6
ENDMDL
