MODEL 1
REMARK VINA RESULT:    -8.730      0.000      0.000
REMARK INTER + INTRA:         -14.605
REMARK INTER:                 -13.068
REMARK INTRA:                  -1.537
REMARK UNBOUND:                -1.537
REMARK  Name = 
REMARK  10 active torsions:
REMARK  status: ('A' for Active; 'I' for Inactive)
REMARK    1  A    between atoms: C_1  and  O_2
REMARK    2  A    between atoms: O_2  and  C_3
REMARK    3  A    between atoms: C_3  and  C_5
REMARK    4  A    between atoms: C_9  and  N_10
REMARK    5  A    between atoms: C_11  and  C_13
REMARK    6  A    between atoms: C_13  and  C_14
REMARK    7  A    between atoms: C_14  and  N_15
REMARK    8  A    between atoms: N_15  and  C_16
REMARK    9  A    between atoms: N_15  and  C_17
REMARK   10  A    between atoms: N_20  and  C_21
REMARK                            x       y       z     vdW  Elec       q    Type
REMARK                         _______ _______ _______ _____ _____    ______ ____
ROOT
ATOM      1  C   UNL     1     -10.070  -6.516  17.343  0.00  0.00    +0.000 C 
ATOM      2  C   UNL     1      -8.805  -6.871  16.482  0.00  0.00    +0.000 C 
ATOM      3  C   UNL     1      -9.025  -7.972  15.443  0.00  0.00    +0.000 C 
ATOM      4  N   UNL     1      -9.684  -9.069  16.122  0.00  0.00    +0.000 N 
ATOM      5  C   UNL     1     -11.048  -8.812  16.531  0.00  0.00    +0.000 C 
ATOM      6  C   UNL     1     -11.000  -7.737  17.615  0.00  0.00    +0.000 C 
ATOM      7  H   UNL     1      -7.967  -7.184  17.088  0.00  0.00    +0.000 HD
ATOM      8  H   UNL     1      -8.401  -5.989  15.975  0.00  0.00    +0.000 HD
ATOM      9  H   UNL     1      -8.058  -8.261  15.015  0.00  0.00    +0.000 HD
ATOM     10  H   UNL     1      -9.642  -7.599  14.618  0.00  0.00    +0.000 HD
ATOM     11  H   UNL     1     -11.534  -9.706  16.945  0.00  0.00    +0.000 HD
ATOM     12  H   UNL     1     -11.668  -8.520  15.679  0.00  0.00    +0.000 HD
ATOM     13  H   UNL     1     -10.633  -8.263  18.503  0.00  0.00    +0.000 HD
ATOM     14  H   UNL     1     -12.020  -7.419  17.858  0.00  0.00    +0.000 HD
ENDROOT
BRANCH   4  15
ATOM     15  C   UNL     1      -9.232 -10.361  16.012  0.00  0.00    +0.000 A 
ATOM     16  N   UNL     1      -9.214 -10.977  14.801  0.00  0.00    +0.000 NA
ATOM     17  C   UNL     1      -8.806 -12.262  14.728  0.00  0.00    +0.000 A 
ATOM     18  N   UNL     1      -8.381 -13.064  15.716  0.00  0.00    +0.000 NA
ATOM     19  C   UNL     1      -8.408 -12.412  16.898  0.00  0.00    +0.000 A 
ATOM     20  N   UNL     1      -8.086 -12.935  18.116  0.00  0.00    +0.000 N 
ATOM     21  N   UNL     1      -8.223 -12.055  19.131  0.00  0.00    +0.000 NA
ATOM     22  C   UNL     1      -8.634 -10.947  18.513  0.00  0.00    +0.000 A 
ATOM     23  C   UNL     1      -8.792 -11.115  17.117  0.00  0.00    +0.000 A 
ATOM     24  H   UNL     1      -8.822 -12.704  13.733  0.00  0.00    +0.000 HD
ATOM     25  H   UNL     1      -7.787 -13.876  18.319  0.00  0.00    +0.000 HD
ATOM     26  H   UNL     1      -8.836 -10.068  19.110  0.00  0.00    +0.000 HD
ENDBRANCH   4  15
BRANCH   1  28
ATOM     27  N   UNL     1      -9.974  -4.539  15.763  0.00  0.00    +0.000 N 
ATOM     28  C   UNL     1     -10.769  -5.388  16.519  0.00  0.00    +0.000 C 
ATOM     29  O   UNL     1     -11.989  -5.312  16.522  0.00  0.00    +0.000 OA
ATOM     30  H   UNL     1      -9.016  -4.795  15.571  0.00  0.00    +0.000 HD
BRANCH  27  35
ATOM     31  C   UNL     1     -11.695  -2.651  13.055  0.00  0.00    +0.000 A 
ATOM     32  C   UNL     1     -11.712  -1.352  13.576  0.00  0.00    +0.000 A 
ATOM     33  C   UNL     1     -11.078  -1.088  14.779  0.00  0.00    +0.000 A 
ATOM     34  C   UNL     1     -10.456  -2.123  15.476  0.00  0.00    +0.000 A 
ATOM     35  C   UNL     1     -10.485  -3.444  15.009  0.00  0.00    +0.000 A 
ATOM     36  C   UNL     1     -11.062  -3.693  13.760  0.00  0.00    +0.000 A 
ATOM     37  H   UNL     1     -12.230  -0.545  13.064  0.00  0.00    +0.000 HD
ATOM     38  H   UNL     1     -11.085  -0.085  15.197  0.00  0.00    +0.000 HD
ATOM     39  H   UNL     1      -9.959  -1.853  16.402  0.00  0.00    +0.000 HD
ATOM     40  H   UNL     1     -11.081  -4.698  13.345  0.00  0.00    +0.000 HD
BRANCH  31  41
ATOM     41  C   UNL     1     -12.393  -2.964  11.779  0.00  0.00    +0.000 C 
ATOM     42  O   UNL     1     -13.335  -2.326  11.358  0.00  0.00    +0.000 OA
BRANCH  41  43
ATOM     43  O   UNL     1     -11.808  -4.031  11.180  0.00  0.00    +0.000 OA
BRANCH  43  44
ATOM     44  C   UNL     1     -11.813  -3.983   9.755  0.00  0.00    +0.000 C 
ATOM     45  H   UNL     1     -12.694  -4.528   9.402  0.00  0.00    +0.000 HD
ATOM     46  H   UNL     1     -10.918  -4.478   9.367  0.00  0.00    +0.000 HD
ATOM     47  H   UNL     1     -11.877  -2.953   9.397  0.00  0.00    +0.000 HD
ENDBRANCH  43  44
ENDBRANCH  41  43
ENDBRANCH  31  41
ENDBRANCH  27  35
ENDBRANCH   1  28
BRANCH   1  48
ATOM     48  C   UNL     1      -9.714  -5.869  18.729  0.00  0.00    +0.000 C 
ATOM     49  H   UNL     1      -9.309  -6.679  19.345  0.00  0.00    +0.000 HD
ATOM     50  H   UNL     1     -10.632  -5.539  19.226  0.00  0.00    +0.000 HD
BRANCH  48  51
ATOM     51  N   UNL     1      -8.693  -4.799  18.796  0.00  0.00    +0.000 NA
BRANCH  51  52
ATOM     52  C   UNL     1      -9.242  -3.511  19.198  0.00  0.00    +0.000 C 
ATOM     53  H   UNL     1     -10.042  -3.675  19.920  0.00  0.00    +0.000 HD
ATOM     54  H   UNL     1      -9.740  -2.992  18.371  0.00  0.00    +0.000 HD
ATOM     55  H   UNL     1      -8.476  -2.839  19.604  0.00  0.00    +0.000 HD
ENDBRANCH  51  52
BRANCH  51  56
ATOM     56  C   UNL     1      -7.622  -5.176  19.723  0.00  0.00    +0.000 C 
ATOM     57  H   UNL     1      -7.863  -6.116  20.230  0.00  0.00    +0.000 HD
ATOM     58  H   UNL     1      -7.438  -4.404  20.479  0.00  0.00    +0.000 HD
ATOM     59  H   UNL     1      -6.688  -5.351  19.176  0.00  0.00    +0.000 HD
ENDBRANCH  51  56
ENDBRANCH  48  51
ENDBRANCH   1  48
TORSDOF 10
ENDMDL
MODEL 2
REMARK VINA RESULT:    -8.636      3.205      8.388
REMARK INTER + INTRA:         -14.465
REMARK INTER:                 -13.477
REMARK INTRA:                  -0.988
REMARK UNBOUND:                -1.537
REMARK  Name = 
REMARK  10 active torsions:
REMARK  status: ('A' for Active; 'I' for Inactive)
REMARK    1  A    between atoms: C_1  and  O_2
REMARK    2  A    between atoms: O_2  and  C_3
REMARK    3  A    between atoms: C_3  and  C_5
REMARK    4  A    between atoms: C_9  and  N_10
REMARK    5  A    between atoms: C_11  and  C_13
REMARK    6  A    between atoms: C_13  and  C_14
REMARK    7  A    between atoms: C_14  and  N_15
REMARK    8  A    between atoms: N_15  and  C_16
REMARK    9  A    between atoms: N_15  and  C_17
REMARK   10  A    between atoms: N_20  and  C_21
REMARK                            x       y       z     vdW  Elec       q    Type
REMARK                         _______ _______ _______ _____ _____    ______ ____
ROOT
ATOM      1  C   UNL     1      -9.917  -6.678  17.640  0.00  0.00    +0.000 C 
ATOM      2  C   UNL     1      -8.645  -6.016  16.998  0.00  0.00    +0.000 C 
ATOM      3  C   UNL     1      -7.337  -6.288  17.743  0.00  0.00    +0.000 C 
ATOM      4  N   UNL     1      -7.583  -6.012  19.145  0.00  0.00    +0.000 N 
ATOM      5  C   UNL     1      -8.467  -6.944  19.811  0.00  0.00    +0.000 C 
ATOM      6  C   UNL     1      -9.854  -6.771  19.194  0.00  0.00    +0.000 C 
ATOM      7  H   UNL     1      -8.734  -4.943  16.916  0.00  0.00    +0.000 HD
ATOM      8  H   UNL     1      -8.518  -6.314  15.952  0.00  0.00    +0.000 HD
ATOM      9  H   UNL     1      -6.545  -5.657  17.322  0.00  0.00    +0.000 HD
ATOM     10  H   UNL     1      -7.027  -7.329  17.601  0.00  0.00    +0.000 HD
ATOM     11  H   UNL     1      -8.537  -6.752  20.891  0.00  0.00    +0.000 HD
ATOM     12  H   UNL     1      -8.097  -7.970  19.727  0.00  0.00    +0.000 HD
ATOM     13  H   UNL     1     -10.221  -5.828  19.614  0.00  0.00    +0.000 HD
ATOM     14  H   UNL     1     -10.523  -7.548  19.578  0.00  0.00    +0.000 HD
ENDROOT
BRANCH   4  15
ATOM     15  C   UNL     1      -6.739  -5.219  19.882  0.00  0.00    +0.000 A 
ATOM     16  N   UNL     1      -5.403  -5.468  19.894  0.00  0.00    +0.000 NA
ATOM     17  C   UNL     1      -4.602  -4.700  20.663  0.00  0.00    +0.000 A 
ATOM     18  N   UNL     1      -4.936  -3.665  21.449  0.00  0.00    +0.000 NA
ATOM     19  C   UNL     1      -6.268  -3.447  21.402  0.00  0.00    +0.000 A 
ATOM     20  N   UNL     1      -6.957  -2.506  22.109  0.00  0.00    +0.000 N 
ATOM     21  N   UNL     1      -8.287  -2.528  21.877  0.00  0.00    +0.000 NA
ATOM     22  C   UNL     1      -8.419  -3.512  20.986  0.00  0.00    +0.000 A 
ATOM     23  C   UNL     1      -7.193  -4.142  20.668  0.00  0.00    +0.000 A 
ATOM     24  H   UNL     1      -3.544  -4.953  20.638  0.00  0.00    +0.000 HD
ATOM     25  H   UNL     1      -6.585  -1.841  22.769  0.00  0.00    +0.000 HD
ATOM     26  H   UNL     1      -9.411  -3.754  20.630  0.00  0.00    +0.000 HD
ENDBRANCH   4  15
BRANCH   1  28
ATOM     27  N   UNL     1      -8.810  -8.777  16.754  0.00  0.00    +0.000 N 
ATOM     28  C   UNL     1      -9.991  -8.076  16.947  0.00  0.00    +0.000 C 
ATOM     29  O   UNL     1     -11.082  -8.537  16.642  0.00  0.00    +0.000 OA
ATOM     30  H   UNL     1      -7.978  -8.496  17.254  0.00  0.00    +0.000 HD
BRANCH  27  35
ATOM     31  C   UNL     1      -8.660 -12.461  16.246  0.00  0.00    +0.000 A 
ATOM     32  C   UNL     1      -8.820 -12.568  14.860  0.00  0.00    +0.000 A 
ATOM     33  C   UNL     1      -8.887 -11.419  14.089  0.00  0.00    +0.000 A 
ATOM     34  C   UNL     1      -8.828 -10.168  14.701  0.00  0.00    +0.000 A 
ATOM     35  C   UNL     1      -8.739 -10.036  16.094  0.00  0.00    +0.000 A 
ATOM     36  C   UNL     1      -8.598 -11.196  16.862  0.00  0.00    +0.000 A 
ATOM     37  H   UNL     1      -8.910 -13.536  14.374  0.00  0.00    +0.000 HD
ATOM     38  H   UNL     1      -9.013 -11.485  13.011  0.00  0.00    +0.000 HD
ATOM     39  H   UNL     1      -8.866  -9.305  14.045  0.00  0.00    +0.000 HD
ATOM     40  H   UNL     1      -8.495 -11.140  17.943  0.00  0.00    +0.000 HD
BRANCH  31  41
ATOM     41  C   UNL     1      -8.614 -13.680  17.098  0.00  0.00    +0.000 C 
ATOM     42  O   UNL     1      -8.811 -14.800  16.675  0.00  0.00    +0.000 OA
BRANCH  41  43
ATOM     43  O   UNL     1      -8.306 -13.342  18.375  0.00  0.00    +0.000 OA
BRANCH  43  44
ATOM     44  C   UNL     1      -8.933 -14.152  19.367  0.00  0.00    +0.000 C 
ATOM     45  H   UNL     1      -8.608 -15.185  19.214  0.00  0.00    +0.000 HD
ATOM     46  H   UNL     1     -10.019 -14.107  19.247  0.00  0.00    +0.000 HD
ATOM     47  H   UNL     1      -8.637 -13.842  20.372  0.00  0.00    +0.000 HD
ENDBRANCH  43  44
ENDBRANCH  41  43
ENDBRANCH  31  41
ENDBRANCH  27  35
ENDBRANCH   1  28
BRANCH   1  48
ATOM     48  C   UNL     1     -11.254  -5.946  17.259  0.00  0.00    +0.000 C 
ATOM     49  H   UNL     1     -11.773  -5.755  18.204  0.00  0.00    +0.000 HD
ATOM     50  H   UNL     1     -11.896  -6.628  16.692  0.00  0.00    +0.000 HD
BRANCH  48  51
ATOM     51  N   UNL     1     -11.200  -4.629  16.587  0.00  0.00    +0.000 NA
BRANCH  51  52
ATOM     52  C   UNL     1     -11.532  -4.699  15.170  0.00  0.00    +0.000 C 
ATOM     53  H   UNL     1     -11.300  -3.742  14.701  0.00  0.00    +0.000 HD
ATOM     54  H   UNL     1     -12.607  -4.820  14.997  0.00  0.00    +0.000 HD
ATOM     55  H   UNL     1     -11.016  -5.522  14.660  0.00  0.00    +0.000 HD
ENDBRANCH  51  52
BRANCH  51  56
ATOM     56  C   UNL     1     -12.106  -3.684  17.246  0.00  0.00    +0.000 C 
ATOM     57  H   UNL     1     -12.883  -3.345  16.552  0.00  0.00    +0.000 HD
ATOM     58  H   UNL     1     -11.577  -2.808  17.638  0.00  0.00    +0.000 HD
ATOM     59  H   UNL     1     -12.627  -4.172  18.078  0.00  0.00    +0.000 HD
ENDBRANCH  51  56
ENDBRANCH  48  51
ENDBRANCH   1  48
TORSDOF 10
ENDMDL
MODEL 3
REMARK VINA RESULT:    -8.543      3.017      6.656
REMARK INTER + INTRA:         -14.325
REMARK INTER:                 -13.884
REMARK INTRA:                  -0.440
REMARK UNBOUND:                -1.537
REMARK  Name = 
REMARK  10 active torsions:
REMARK  status: ('A' for Active; 'I' for Inactive)
REMARK    1  A    between atoms: C_1  and  O_2
REMARK    2  A    between atoms: O_2  and  C_3
REMARK    3  A    between atoms: C_3  and  C_5
REMARK    4  A    between atoms: C_9  and  N_10
REMARK    5  A    between atoms: C_11  and  C_13
REMARK    6  A    between atoms: C_13  and  C_14
REMARK    7  A    between atoms: C_14  and  N_15
REMARK    8  A    between atoms: N_15  and  C_16
REMARK    9  A    between atoms: N_15  and  C_17
REMARK   10  A    between atoms: N_20  and  C_21
REMARK                            x       y       z     vdW  Elec       q    Type
REMARK                         _______ _______ _______ _____ _____    ______ ____
ROOT
ATOM      1  C   UNL     1      -9.983  -5.467  17.606  0.00  0.00    +0.000 C 
ATOM      2  C   UNL     1     -10.561  -6.719  18.357  0.00  0.00    +0.000 C 
ATOM      3  C   UNL     1      -9.606  -7.911  18.443  0.00  0.00    +0.000 C 
ATOM      4  N   UNL     1      -9.081  -8.131  17.109  0.00  0.00    +0.000 N 
ATOM      5  C   UNL     1      -8.184  -7.106  16.622  0.00  0.00    +0.000 C 
ATOM      6  C   UNL     1      -9.007  -5.831  16.445  0.00  0.00    +0.000 C 
ATOM      7  H   UNL     1     -11.471  -7.088  17.907  0.00  0.00    +0.000 HD
ATOM      8  H   UNL     1     -10.893  -6.467  19.369  0.00  0.00    +0.000 HD
ATOM      9  H   UNL     1     -10.149  -8.781  18.831  0.00  0.00    +0.000 HD
ATOM     10  H   UNL     1      -8.795  -7.700  19.149  0.00  0.00    +0.000 HD
ATOM     11  H   UNL     1      -7.736  -7.370  15.655  0.00  0.00    +0.000 HD
ATOM     12  H   UNL     1      -7.338  -6.966  17.301  0.00  0.00    +0.000 HD
ATOM     13  H   UNL     1      -9.596  -6.012  15.540  0.00  0.00    +0.000 HD
ATOM     14  H   UNL     1      -8.341  -4.997  16.204  0.00  0.00    +0.000 HD
ENDROOT
BRANCH   4  15
ATOM     15  C   UNL     1      -9.079  -9.377  16.532  0.00  0.00    +0.000 A 
ATOM     16  N   UNL     1      -9.387  -9.520  15.216  0.00  0.00    +0.000 NA
ATOM     17  C   UNL     1      -9.420 -10.760  14.684  0.00  0.00    +0.000 A 
ATOM     18  N   UNL     1      -9.171 -11.936  15.282  0.00  0.00    +0.000 NA
ATOM     19  C   UNL     1      -8.863 -11.748  16.583  0.00  0.00    +0.000 A 
ATOM     20  N   UNL     1      -8.598 -12.723  17.499  0.00  0.00    +0.000 N 
ATOM     21  N   UNL     1      -8.339 -12.244  18.735  0.00  0.00    +0.000 NA
ATOM     22  C   UNL     1      -8.438 -10.923  18.569  0.00  0.00    +0.000 A 
ATOM     23  C   UNL     1      -8.789 -10.553  17.250  0.00  0.00    +0.000 A 
ATOM     24  H   UNL     1      -9.681 -10.813  13.629  0.00  0.00    +0.000 HD
ATOM     25  H   UNL     1      -8.595 -13.720  17.349  0.00  0.00    +0.000 HD
ATOM     26  H   UNL     1      -8.285 -10.284  19.428  0.00  0.00    +0.000 HD
ENDBRANCH   4  15
BRANCH   1  28
ATOM     27  N   UNL     1      -8.223  -5.209  19.408  0.00  0.00    +0.000 N 
ATOM     28  C   UNL     1      -9.299  -4.641  18.742  0.00  0.00    +0.000 C 
ATOM     29  O   UNL     1      -9.691  -3.508  18.979  0.00  0.00    +0.000 OA
ATOM     30  H   UNL     1      -7.761  -6.015  19.012  0.00  0.00    +0.000 HD
BRANCH  27  35
ATOM     31  C   UNL     1      -7.620  -3.693  22.755  0.00  0.00    +0.000 A 
ATOM     32  C   UNL     1      -6.229  -3.538  22.754  0.00  0.00    +0.000 A 
ATOM     33  C   UNL     1      -5.506  -3.852  21.615  0.00  0.00    +0.000 A 
ATOM     34  C   UNL     1      -6.163  -4.350  20.491  0.00  0.00    +0.000 A 
ATOM     35  C   UNL     1      -7.546  -4.580  20.492  0.00  0.00    +0.000 A 
ATOM     36  C   UNL     1      -8.282  -4.193  21.617  0.00  0.00    +0.000 A 
ATOM     37  H   UNL     1      -5.699  -3.191  23.638  0.00  0.00    +0.000 HD
ATOM     38  H   UNL     1      -4.425  -3.739  21.601  0.00  0.00    +0.000 HD
ATOM     39  H   UNL     1      -5.548  -4.560  19.623  0.00  0.00    +0.000 HD
ATOM     40  H   UNL     1      -9.361  -4.325  21.649  0.00  0.00    +0.000 HD
BRANCH  31  41
ATOM     41  C   UNL     1      -8.416  -3.389  23.975  0.00  0.00    +0.000 C 
ATOM     42  O   UNL     1      -8.104  -3.762  25.086  0.00  0.00    +0.000 OA
BRANCH  41  43
ATOM     43  O   UNL     1      -9.496  -2.636  23.649  0.00  0.00    +0.000 OA
BRANCH  43  44
ATOM     44  C   UNL     1     -10.515  -2.606  24.645  0.00  0.00    +0.000 C 
ATOM     45  H   UNL     1     -11.463  -2.869  24.167  0.00  0.00    +0.000 HD
ATOM     46  H   UNL     1     -10.600  -1.595  25.054  0.00  0.00    +0.000 HD
ATOM     47  H   UNL     1     -10.314  -3.332  25.436  0.00  0.00    +0.000 HD
ENDBRANCH  43  44
ENDBRANCH  41  43
ENDBRANCH  31  41
ENDBRANCH  27  35
ENDBRANCH   1  28
BRANCH   1  48
ATOM     48  C   UNL     1     -11.098  -4.530  17.016  0.00  0.00    +0.000 C 
ATOM     49  H   UNL     1     -11.239  -3.730  17.750  0.00  0.00    +0.000 HD
ATOM     50  H   UNL     1     -12.047  -5.073  16.973  0.00  0.00    +0.000 HD
BRANCH  48  51
ATOM     51  N   UNL     1     -10.860  -3.828  15.735  0.00  0.00    +0.000 NA
BRANCH  51  52
ATOM     52  C   UNL     1     -11.678  -4.342  14.644  0.00  0.00    +0.000 C 
ATOM     53  H   UNL     1     -11.171  -5.192  14.188  0.00  0.00    +0.000 HD
ATOM     54  H   UNL     1     -11.776  -3.625  13.821  0.00  0.00    +0.000 HD
ATOM     55  H   UNL     1     -12.689  -4.615  14.972  0.00  0.00    +0.000 HD
ENDBRANCH  51  52
BRANCH  51  56
ATOM     56  C   UNL     1     -11.110  -2.392  15.888  0.00  0.00    +0.000 C 
ATOM     57  H   UNL     1     -10.374  -1.942  16.564  0.00  0.00    +0.000 HD
ATOM     58  H   UNL     1     -12.115  -2.185  16.272  0.00  0.00    +0.000 HD
ATOM     59  H   UNL     1     -10.997  -1.881  14.925  0.00  0.00    +0.000 HD
ENDBRANCH  51  56
ENDBRANCH  48  51
ENDBRANCH   1  48
TORSDOF 10
ENDMDL
MODEL 4
REMARK VINA RESULT:    -8.387      2.689      5.986
REMARK INTER + INTRA:         -14.092
REMARK INTER:                 -12.626
REMARK INTRA:                  -1.465
REMARK UNBOUND:                -1.537
REMARK  Name = 
REMARK  10 active torsions:
REMARK  status: ('A' for Active; 'I' for Inactive)
REMARK    1  A    between atoms: C_1  and  O_2
REMARK    2  A    between atoms: O_2  and  C_3
REMARK    3  A    between atoms: C_3  and  C_5
REMARK    4  A    between atoms: C_9  and  N_10
REMARK    5  A    between atoms: C_11  and  C_13
REMARK    6  A    between atoms: C_13  and  C_14
REMARK    7  A    between atoms: C_14  and  N_15
REMARK    8  A    between atoms: N_15  and  C_16
REMARK    9  A    between atoms: N_15  and  C_17
REMARK   10  A    between atoms: N_20  and  C_21
REMARK                            x       y       z     vdW  Elec       q    Type
REMARK                         _______ _______ _______ _____ _____    ______ ____
ROOT
ATOM      1  C   UNL     1     -10.523  -5.615  16.507  0.00  0.00    +0.000 C 
ATOM      2  C   UNL     1     -11.402  -6.846  16.931  0.00  0.00    +0.000 C 
ATOM      3  C   UNL     1     -10.619  -8.018  17.524  0.00  0.00    +0.000 C 
ATOM      4  N   UNL     1      -9.509  -8.282  16.630  0.00  0.00    +0.000 N 
ATOM      5  C   UNL     1      -8.483  -7.263  16.602  0.00  0.00    +0.000 C 
ATOM      6  C   UNL     1      -9.106  -6.010  15.991  0.00  0.00    +0.000 C 
ATOM      7  H   UNL     1     -11.977  -7.246  16.109  0.00  0.00    +0.000 HD
ATOM      8  H   UNL     1     -12.187  -6.558  17.638  0.00  0.00    +0.000 HD
ATOM      9  H   UNL     1     -11.288  -8.880  17.633  0.00  0.00    +0.000 HD
ATOM     10  H   UNL     1     -10.258  -7.766  18.528  0.00  0.00    +0.000 HD
ATOM     11  H   UNL     1      -7.619  -7.559  15.992  0.00  0.00    +0.000 HD
ATOM     12  H   UNL     1      -8.077  -7.083  17.602  0.00  0.00    +0.000 HD
ATOM     13  H   UNL     1      -9.176  -6.236  14.921  0.00  0.00    +0.000 HD
ATOM     14  H   UNL     1      -8.402  -5.175  16.072  0.00  0.00    +0.000 HD
ENDROOT
BRANCH   4  15
ATOM     15  C   UNL     1      -9.231  -9.550  16.181  0.00  0.00    +0.000 A 
ATOM     16  N   UNL     1      -9.314  -9.839  14.856  0.00  0.00    +0.000 NA
ATOM     17  C   UNL     1      -9.078 -11.104  14.448  0.00  0.00    +0.000 A 
ATOM     18  N   UNL     1      -8.744 -12.174  15.185  0.00  0.00    +0.000 NA
ATOM     19  C   UNL     1      -8.665 -11.842  16.491  0.00  0.00    +0.000 A 
ATOM     20  N   UNL     1      -8.393 -12.689  17.524  0.00  0.00    +0.000 N 
ATOM     21  N   UNL     1      -8.396 -12.084  18.731  0.00  0.00    +0.000 NA
ATOM     22  C   UNL     1      -8.671 -10.814  18.427  0.00  0.00    +0.000 A 
ATOM     23  C   UNL     1      -8.874 -10.606  17.043  0.00  0.00    +0.000 A 
ATOM     24  H   UNL     1      -9.168 -11.276  13.377  0.00  0.00    +0.000 HD
ATOM     25  H   UNL     1      -8.215 -13.681  17.473  0.00  0.00    +0.000 HD
ATOM     26  H   UNL     1      -8.746 -10.097  19.233  0.00  0.00    +0.000 HD
ENDBRANCH   4  15
BRANCH   1  28
ATOM     27  N   UNL     1      -9.354  -3.956  18.021  0.00  0.00    +0.000 N 
ATOM     28  C   UNL     1     -10.480  -4.734  17.796  0.00  0.00    +0.000 C 
ATOM     29  O   UNL     1     -11.449  -4.714  18.541  0.00  0.00    +0.000 OA
ATOM     30  H   UNL     1      -8.704  -3.791  17.265  0.00  0.00    +0.000 HD
BRANCH  27  35
ATOM     31  C   UNL     1      -8.105  -2.825  21.341  0.00  0.00    +0.000 A 
ATOM     32  C   UNL     1      -8.592  -1.514  21.400  0.00  0.00    +0.000 A 
ATOM     33  C   UNL     1      -9.405  -1.040  20.384  0.00  0.00    +0.000 A 
ATOM     34  C   UNL     1      -9.705  -1.858  19.296  0.00  0.00    +0.000 A 
ATOM     35  C   UNL     1      -9.172  -3.149  19.181  0.00  0.00    +0.000 A 
ATOM     36  C   UNL     1      -8.412  -3.651  20.242  0.00  0.00    +0.000 A 
ATOM     37  H   UNL     1      -8.332  -0.851  22.221  0.00  0.00    +0.000 HD
ATOM     38  H   UNL     1      -9.789  -0.023  20.415  0.00  0.00    +0.000 HD
ATOM     39  H   UNL     1     -10.362  -1.439  18.541  0.00  0.00    +0.000 HD
ATOM     40  H   UNL     1      -8.004  -4.658  20.209  0.00  0.00    +0.000 HD
BRANCH  31  41
ATOM     41  C   UNL     1      -7.208  -3.348  22.406  0.00  0.00    +0.000 C 
ATOM     42  O   UNL     1      -6.227  -4.026  22.181  0.00  0.00    +0.000 OA
BRANCH  41  43
ATOM     43  O   UNL     1      -7.645  -2.938  23.623  0.00  0.00    +0.000 OA
BRANCH  43  44
ATOM     44  C   UNL     1      -8.016  -3.996  24.503  0.00  0.00    +0.000 C 
ATOM     45  H   UNL     1      -8.958  -4.421  24.143  0.00  0.00    +0.000 HD
ATOM     46  H   UNL     1      -8.175  -3.599  25.509  0.00  0.00    +0.000 HD
ATOM     47  H   UNL     1      -7.261  -4.786  24.509  0.00  0.00    +0.000 HD
ENDBRANCH  43  44
ENDBRANCH  41  43
ENDBRANCH  31  41
ENDBRANCH  27  35
ENDBRANCH   1  28
BRANCH   1  48
ATOM     48  C   UNL     1     -11.200  -4.721  15.407  0.00  0.00    +0.000 C 
ATOM     49  H   UNL     1     -12.255  -4.640  15.691  0.00  0.00    +0.000 HD
ATOM     50  H   UNL     1     -11.184  -5.246  14.447  0.00  0.00    +0.000 HD
BRANCH  48  51
ATOM     51  N   UNL     1     -10.751  -3.323  15.224  0.00  0.00    +0.000 NA
BRANCH  51  52
ATOM     52  C   UNL     1     -10.150  -3.084  13.919  0.00  0.00    +0.000 C 
ATOM     53  H   UNL     1     -10.074  -2.010  13.752  0.00  0.00    +0.000 HD
ATOM     54  H   UNL     1     -10.785  -3.431  13.096  0.00  0.00    +0.000 HD
ATOM     55  H   UNL     1      -9.171  -3.569  13.814  0.00  0.00    +0.000 HD
ENDBRANCH  51  52
BRANCH  51  56
ATOM     56  C   UNL     1     -11.874  -2.399  15.412  0.00  0.00    +0.000 C 
ATOM     57  H   UNL     1     -12.728  -2.916  15.862  0.00  0.00    +0.000 HD
ATOM     58  H   UNL     1     -12.196  -1.940  14.471  0.00  0.00    +0.000 HD
ATOM     59  H   UNL     1     -11.597  -1.599  16.108  0.00  0.00    +0.000 HD
ENDBRANCH  51  56
ENDBRANCH  48  51
ENDBRANCH   1  48
TORSDOF 10
ENDMDL
MODEL 5
REMARK VINA RESULT:    -8.377      1.573      2.364
REMARK INTER + INTRA:         -14.076
REMARK INTER:                 -12.648
REMARK INTRA:                  -1.428
REMARK UNBOUND:                -1.537
REMARK  Name = 
REMARK  10 active torsions:
REMARK  status: ('A' for Active; 'I' for Inactive)
REMARK    1  A    between atoms: C_1  and  O_2
REMARK    2  A    between atoms: O_2  and  C_3
REMARK    3  A    between atoms: C_3  and  C_5
REMARK    4  A    between atoms: C_9  and  N_10
REMARK    5  A    between atoms: C_11  and  C_13
REMARK    6  A    between atoms: C_13  and  C_14
REMARK    7  A    between atoms: C_14  and  N_15
REMARK    8  A    between atoms: N_15  and  C_16
REMARK    9  A    between atoms: N_15  and  C_17
REMARK   10  A    between atoms: N_20  and  C_21
REMARK                            x       y       z     vdW  Elec       q    Type
REMARK                         _______ _______ _______ _____ _____    ______ ____
ROOT
ATOM      1  C   UNL     1     -10.034  -6.561  16.980  0.00  0.00    +0.000 C 
ATOM      2  C   UNL     1      -8.735  -6.989  16.208  0.00  0.00    +0.000 C 
ATOM      3  C   UNL     1      -8.920  -8.160  15.242  0.00  0.00    +0.000 C 
ATOM      4  N   UNL     1      -9.624  -9.200  15.967  0.00  0.00    +0.000 N 
ATOM      5  C   UNL     1     -11.002  -8.901  16.291  0.00  0.00    +0.000 C 
ATOM      6  C   UNL     1     -10.992  -7.750  17.295  0.00  0.00    +0.000 C 
ATOM      7  H   UNL     1      -7.930  -7.265  16.874  0.00  0.00    +0.000 HD
ATOM      8  H   UNL     1      -8.296  -6.150  15.658  0.00  0.00    +0.000 HD
ATOM      9  H   UNL     1      -7.938  -8.489  14.882  0.00  0.00    +0.000 HD
ATOM     10  H   UNL     1      -9.494  -7.842  14.364  0.00  0.00    +0.000 HD
ATOM     11  H   UNL     1     -11.518  -9.758  16.745  0.00  0.00    +0.000 HD
ATOM     12  H   UNL     1     -11.578  -8.665  15.391  0.00  0.00    +0.000 HD
ATOM     13  H   UNL     1     -10.673  -8.214  18.235  0.00  0.00    +0.000 HD
ATOM     14  H   UNL     1     -12.017  -7.406  17.466  0.00  0.00    +0.000 HD
ENDROOT
BRANCH   4  15
ATOM     15  C   UNL     1      -9.184 -10.500  15.971  0.00  0.00    +0.000 A 
ATOM     16  N   UNL     1      -9.162 -11.218  14.818  0.00  0.00    +0.000 NA
ATOM     17  C   UNL     1      -8.766 -12.508  14.858  0.00  0.00    +0.000 A 
ATOM     18  N   UNL     1      -8.357 -13.226  15.916  0.00  0.00    +0.000 NA
ATOM     19  C   UNL     1      -8.388 -12.475  17.037  0.00  0.00    +0.000 A 
ATOM     20  N   UNL     1      -8.081 -12.894  18.298  0.00  0.00    +0.000 N 
ATOM     21  N   UNL     1      -8.217 -11.930  19.233  0.00  0.00    +0.000 NA
ATOM     22  C   UNL     1      -8.612 -10.875  18.519  0.00  0.00    +0.000 A 
ATOM     23  C   UNL     1      -8.761 -11.161  17.141  0.00  0.00    +0.000 A 
ATOM     24  H   UNL     1      -8.778 -13.033  13.905  0.00  0.00    +0.000 HD
ATOM     25  H   UNL     1      -7.793 -13.818  18.584  0.00  0.00    +0.000 HD
ATOM     26  H   UNL     1      -8.811  -9.947  19.037  0.00  0.00    +0.000 HD
ENDBRANCH   4  15
BRANCH   1  28
ATOM     27  N   UNL     1      -9.848  -4.553  15.447  0.00  0.00    +0.000 N 
ATOM     28  C   UNL     1     -10.680  -5.489  16.045  0.00  0.00    +0.000 C 
ATOM     29  O   UNL     1     -11.882  -5.530  15.826  0.00  0.00    +0.000 OA
ATOM     30  H   UNL     1      -8.851  -4.713  15.432  0.00  0.00    +0.000 HD
BRANCH  27  35
ATOM     31  C   UNL     1     -11.028  -1.183  14.396  0.00  0.00    +0.000 A 
ATOM     32  C   UNL     1     -11.042  -1.305  13.002  0.00  0.00    +0.000 A 
ATOM     33  C   UNL     1     -10.747  -2.526  12.418  0.00  0.00    +0.000 A 
ATOM     34  C   UNL     1     -10.407  -3.614  13.221  0.00  0.00    +0.000 A 
ATOM     35  C   UNL     1     -10.319  -3.498  14.615  0.00  0.00    +0.000 A 
ATOM     36  C   UNL     1     -10.688  -2.285  15.205  0.00  0.00    +0.000 A 
ATOM     37  H   UNL     1     -11.263  -0.454  12.362  0.00  0.00    +0.000 HD
ATOM     38  H   UNL     1     -10.751  -2.636  11.337  0.00  0.00    +0.000 HD
ATOM     39  H   UNL     1     -10.206  -4.550  12.710  0.00  0.00    +0.000 HD
ATOM     40  H   UNL     1     -10.663  -2.159  16.284  0.00  0.00    +0.000 HD
BRANCH  31  41
ATOM     41  C   UNL     1     -11.314   0.125  15.044  0.00  0.00    +0.000 C 
ATOM     42  O   UNL     1     -10.738   1.154  14.757  0.00  0.00    +0.000 OA
BRANCH  41  43
ATOM     43  O   UNL     1     -12.303  -0.018  15.961  0.00  0.00    +0.000 OA
BRANCH  43  44
ATOM     44  C   UNL     1     -13.621   0.080  15.426  0.00  0.00    +0.000 C 
ATOM     45  H   UNL     1     -13.629  -0.422  14.454  0.00  0.00    +0.000 HD
ATOM     46  H   UNL     1     -13.881   1.131  15.278  0.00  0.00    +0.000 HD
ATOM     47  H   UNL     1     -14.346  -0.416  16.076  0.00  0.00    +0.000 HD
ENDBRANCH  43  44
ENDBRANCH  41  43
ENDBRANCH  31  41
ENDBRANCH  27  35
ENDBRANCH   1  28
BRANCH   1  48
ATOM     48  C   UNL     1      -9.735  -5.818  18.332  0.00  0.00    +0.000 C 
ATOM     49  H   UNL     1     -10.448  -6.218  19.060  0.00  0.00    +0.000 HD
ATOM     50  H   UNL     1      -9.973  -4.755  18.226  0.00  0.00    +0.000 HD
BRANCH  48  51
ATOM     51  N   UNL     1      -8.412  -5.976  18.975  0.00  0.00    +0.000 NA
BRANCH  51  52
ATOM     52  C   UNL     1      -7.958  -4.767  19.650  0.00  0.00    +0.000 C 
ATOM     53  H   UNL     1      -7.222  -5.036  20.407  0.00  0.00    +0.000 HD
ATOM     54  H   UNL     1      -8.757  -4.283  20.222  0.00  0.00    +0.000 HD
ATOM     55  H   UNL     1      -7.551  -4.026  18.950  0.00  0.00    +0.000 HD
ENDBRANCH  51  52
BRANCH  51  56
ATOM     56  C   UNL     1      -8.443  -7.081  19.938  0.00  0.00    +0.000 C 
ATOM     57  H   UNL     1      -9.009  -7.928  19.535  0.00  0.00    +0.000 HD
ATOM     58  H   UNL     1      -8.886  -6.784  20.895  0.00  0.00    +0.000 HD
ATOM     59  H   UNL     1      -7.429  -7.450  20.128  0.00  0.00    +0.000 HD
ENDBRANCH  51  56
ENDBRANCH  48  51
ENDBRANCH   1  48
TORSDOF 10
ENDMDL
MODEL 6
REMARK VINA RESULT:    -8.341      3.020      4.445
REMARK INTER + INTRA:         -14.023
REMARK INTER:                 -12.701
REMARK INTRA:                  -1.322
REMARK UNBOUND:                -1.537
REMARK  Name = 
REMARK  10 active torsions:
REMARK  status: ('A' for Active; 'I' for Inactive)
REMARK    1  A    between atoms: C_1  and  O_2
REMARK    2  A    between atoms: O_2  and  C_3
REMARK    3  A    between atoms: C_3  and  C_5
REMARK    4  A    between atoms: C_9  and  N_10
REMARK    5  A    between atoms: C_11  and  C_13
REMARK    6  A    between atoms: C_13  and  C_14
REMARK    7  A    between atoms: C_14  and  N_15
REMARK    8  A    between atoms: N_15  and  C_16
REMARK    9  A    between atoms: N_15  and  C_17
REMARK   10  A    between atoms: N_20  and  C_21
REMARK                            x       y       z     vdW  Elec       q    Type
REMARK                         _______ _______ _______ _____ _____    ______ ____
ROOT
ATOM      1  C   UNL     1      -8.996  -6.461  18.643  0.00  0.00    +0.000 C 
ATOM      2  C   UNL     1      -8.181  -6.548  17.303  0.00  0.00    +0.000 C 
ATOM      3  C   UNL     1      -8.854  -7.361  16.196  0.00  0.00    +0.000 C 
ATOM      4  N   UNL     1      -9.278  -8.614  16.788  0.00  0.00    +0.000 N 
ATOM      5  C   UNL     1     -10.363  -8.511  17.740  0.00  0.00    +0.000 C 
ATOM      6  C   UNL     1      -9.833  -7.740  18.948  0.00  0.00    +0.000 C 
ATOM      7  H   UNL     1      -7.199  -6.976  17.443  0.00  0.00    +0.000 HD
ATOM      8  H   UNL     1      -7.942  -5.555  16.910  0.00  0.00    +0.000 HD
ATOM      9  H   UNL     1      -8.146  -7.502  15.371  0.00  0.00    +0.000 HD
ATOM     10  H   UNL     1      -9.713  -6.813  15.790  0.00  0.00    +0.000 HD
ATOM     11  H   UNL     1     -10.714  -9.495  18.079  0.00  0.00    +0.000 HD
ATOM     12  H   UNL     1     -11.239  -8.034  17.292  0.00  0.00    +0.000 HD
ATOM     13  H   UNL     1      -9.192  -8.460  19.469  0.00  0.00    +0.000 HD
ATOM     14  H   UNL     1     -10.659  -7.526  19.634  0.00  0.00    +0.000 HD
ENDROOT
BRANCH   4  15
ATOM     15  C   UNL     1      -8.991  -9.822  16.201  0.00  0.00    +0.000 A 
ATOM     16  N   UNL     1      -8.944  -9.930  14.848  0.00  0.00    +0.000 NA
ATOM     17  C   UNL     1      -8.703 -11.138  14.297  0.00  0.00    +0.000 A 
ATOM     18  N   UNL     1      -8.479 -12.310  14.912  0.00  0.00    +0.000 NA
ATOM     19  C   UNL     1      -8.528 -12.157  16.252  0.00  0.00    +0.000 A 
ATOM     20  N   UNL     1      -8.390 -13.144  17.183  0.00  0.00    +0.000 N 
ATOM     21  N   UNL     1      -8.503 -12.704  18.454  0.00  0.00    +0.000 NA
ATOM     22  C   UNL     1      -8.707 -11.394  18.299  0.00  0.00    +0.000 A 
ATOM     23  C   UNL     1      -8.758 -10.996  16.943  0.00  0.00    +0.000 A 
ATOM     24  H   UNL     1      -8.685 -11.164  13.209  0.00  0.00    +0.000 HD
ATOM     25  H   UNL     1      -8.237 -14.127  17.016  0.00  0.00    +0.000 HD
ATOM     26  H   UNL     1      -8.846 -10.787  19.183  0.00  0.00    +0.000 HD
ENDBRANCH   4  15
BRANCH   1  28
ATOM     27  N   UNL     1      -9.238  -3.969  18.262  0.00  0.00    +0.000 N 
ATOM     28  C   UNL     1      -9.877  -5.185  18.454  0.00  0.00    +0.000 C 
ATOM     29  O   UNL     1     -11.094  -5.296  18.430  0.00  0.00    +0.000 OA
ATOM     30  H   UNL     1      -8.258  -3.955  18.019  0.00  0.00    +0.000 HD
BRANCH  27  35
ATOM     31  C   UNL     1     -10.700  -0.660  19.140  0.00  0.00    +0.000 A 
ATOM     32  C   UNL     1     -11.081  -0.171  17.885  0.00  0.00    +0.000 A 
ATOM     33  C   UNL     1     -10.936  -0.974  16.765  0.00  0.00    +0.000 A 
ATOM     34  C   UNL     1     -10.381  -2.246  16.891  0.00  0.00    +0.000 A 
ATOM     35  C   UNL     1      -9.927  -2.730  18.126  0.00  0.00    +0.000 A 
ATOM     36  C   UNL     1     -10.143  -1.947  19.265  0.00  0.00    +0.000 A 
ATOM     37  H   UNL     1     -11.475   0.835  17.766  0.00  0.00    +0.000 HD
ATOM     38  H   UNL     1     -11.226  -0.607  15.784  0.00  0.00    +0.000 HD
ATOM     39  H   UNL     1     -10.310  -2.836  15.983  0.00  0.00    +0.000 HD
ATOM     40  H   UNL     1      -9.834  -2.295  20.247  0.00  0.00    +0.000 HD
BRANCH  31  41
ATOM     41  C   UNL     1     -10.820   0.193  20.353  0.00  0.00    +0.000 C 
ATOM     42  O   UNL     1     -10.564   1.379  20.365  0.00  0.00    +0.000 OA
BRANCH  41  43
ATOM     43  O   UNL     1     -11.267  -0.547  21.398  0.00  0.00    +0.000 OA
BRANCH  43  44
ATOM     44  C   UNL     1     -12.601  -0.250  21.803  0.00  0.00    +0.000 C 
ATOM     45  H   UNL     1     -13.117  -1.196  21.987  0.00  0.00    +0.000 HD
ATOM     46  H   UNL     1     -13.120   0.280  21.000  0.00  0.00    +0.000 HD
ATOM     47  H   UNL     1     -12.610   0.334  22.727  0.00  0.00    +0.000 HD
ENDBRANCH  43  44
ENDBRANCH  41  43
ENDBRANCH  31  41
ENDBRANCH  27  35
ENDBRANCH   1  28
BRANCH   1  48
ATOM     48  C   UNL     1      -8.095  -6.170  19.897  0.00  0.00    +0.000 C 
ATOM     49  H   UNL     1      -7.524  -7.087  20.078  0.00  0.00    +0.000 HD
ATOM     50  H   UNL     1      -8.729  -6.028  20.778  0.00  0.00    +0.000 HD
BRANCH  48  51
ATOM     51  N   UNL     1      -7.076  -5.099  19.832  0.00  0.00    +0.000 NA
BRANCH  51  52
ATOM     52  C   UNL     1      -7.076  -4.240  21.009  0.00  0.00    +0.000 C 
ATOM     53  H   UNL     1      -7.011  -3.200  20.692  0.00  0.00    +0.000 HD
ATOM     54  H   UNL     1      -6.184  -4.381  21.630  0.00  0.00    +0.000 HD
ATOM     55  H   UNL     1      -7.955  -4.404  21.646  0.00  0.00    +0.000 HD
ENDBRANCH  51  52
BRANCH  51  56
ATOM     56  C   UNL     1      -5.741  -5.677  19.660  0.00  0.00    +0.000 C 
ATOM     57  H   UNL     1      -5.065  -5.332  20.450  0.00  0.00    +0.000 HD
ATOM     58  H   UNL     1      -5.302  -5.426  18.687  0.00  0.00    +0.000 HD
ATOM     59  H   UNL     1      -5.783  -6.769  19.746  0.00  0.00    +0.000 HD
ENDBRANCH  51  56
ENDBRANCH  48  51
ENDBRANCH   1  48
TORSDOF 10
ENDMDL
MODEL 7
REMARK VINA RESULT:    -8.168      1.281      2.049
REMARK INTER + INTRA:         -13.764
REMARK INTER:                 -13.092
REMARK INTRA:                  -0.672
REMARK UNBOUND:                -1.537
REMARK  Name = 
REMARK  10 active torsions:
REMARK  status: ('A' for Active; 'I' for Inactive)
REMARK    1  A    between atoms: C_1  and  O_2
REMARK    2  A    between atoms: O_2  and  C_3
REMARK    3  A    between atoms: C_3  and  C_5
REMARK    4  A    between atoms: C_9  and  N_10
REMARK    5  A    between atoms: C_11  and  C_13
REMARK    6  A    between atoms: C_13  and  C_14
REMARK    7  A    between atoms: C_14  and  N_15
REMARK    8  A    between atoms: N_15  and  C_16
REMARK    9  A    between atoms: N_15  and  C_17
REMARK   10  A    between atoms: N_20  and  C_21
REMARK                            x       y       z     vdW  Elec       q    Type
REMARK                         _______ _______ _______ _____ _____    ______ ____
ROOT
ATOM      1  C   UNL     1     -10.439  -6.050  17.110  0.00  0.00    +0.000 C 
ATOM      2  C   UNL     1      -8.931  -6.465  16.972  0.00  0.00    +0.000 C 
ATOM      3  C   UNL     1      -8.696  -7.798  16.259  0.00  0.00    +0.000 C 
ATOM      4  N   UNL     1      -9.589  -8.765  16.866  0.00  0.00    +0.000 N 
ATOM      5  C   UNL     1     -10.996  -8.562  16.595  0.00  0.00    +0.000 C 
ATOM      6  C   UNL     1     -11.405  -7.261  17.282  0.00  0.00    +0.000 C 
ATOM      7  H   UNL     1      -8.432  -6.536  17.927  0.00  0.00    +0.000 HD
ATOM      8  H   UNL     1      -8.343  -5.692  16.466  0.00  0.00    +0.000 HD
ATOM      9  H   UNL     1      -7.641  -8.079  16.358  0.00  0.00    +0.000 HD
ATOM     10  H   UNL     1      -8.902  -7.699  15.187  0.00  0.00    +0.000 HD
ATOM     11  H   UNL     1     -11.618  -9.377  16.988  0.00  0.00    +0.000 HD
ATOM     12  H   UNL     1     -11.193  -8.547  15.519  0.00  0.00    +0.000 HD
ATOM     13  H   UNL     1     -11.454  -7.519  18.345  0.00  0.00    +0.000 HD
ATOM     14  H   UNL     1     -12.429  -7.002  16.992  0.00  0.00    +0.000 HD
ENDROOT
BRANCH   4  15
ATOM     15  C   UNL     1      -9.142  -9.992  17.291  0.00  0.00    +0.000 A 
ATOM     16  N   UNL     1      -8.841 -10.193  18.601  0.00  0.00    +0.000 NA
ATOM     17  C   UNL     1      -8.361 -11.395  18.984  0.00  0.00    +0.000 A 
ATOM     18  N   UNL     1      -8.136 -12.486  18.234  0.00  0.00    +0.000 NA
ATOM     19  C   UNL     1      -8.455 -12.245  16.944  0.00  0.00    +0.000 A 
ATOM     20  N   UNL     1      -8.311 -13.113  15.902  0.00  0.00    +0.000 N 
ATOM     21  N   UNL     1      -8.695 -12.597  14.715  0.00  0.00    +0.000 NA
ATOM     22  C   UNL     1      -9.101 -11.369  15.042  0.00  0.00    +0.000 A 
ATOM     23  C   UNL     1      -8.952 -11.082  16.419  0.00  0.00    +0.000 A 
ATOM     24  H   UNL     1      -8.130 -11.493  20.043  0.00  0.00    +0.000 HD
ATOM     25  H   UNL     1      -7.945 -14.053  15.933  0.00  0.00    +0.000 HD
ATOM     26  H   UNL     1      -9.458 -10.718  14.255  0.00  0.00    +0.000 HD
ENDBRANCH   4  15
BRANCH   1  28
ATOM     27  N   UNL     1      -9.633  -4.666  15.148  0.00  0.00    +0.000 N 
ATOM     28  C   UNL     1     -10.714  -5.228  15.810  0.00  0.00    +0.000 C 
ATOM     29  O   UNL     1     -11.857  -5.145  15.384  0.00  0.00    +0.000 OA
ATOM     30  H   UNL     1      -8.698  -4.978  15.369  0.00  0.00    +0.000 HD
BRANCH  27  35
ATOM     31  C   UNL     1     -11.104  -3.118  12.099  0.00  0.00    +0.000 A 
ATOM     32  C   UNL     1     -10.161  -2.129  11.794  0.00  0.00    +0.000 A 
ATOM     33  C   UNL     1      -9.000  -2.037  12.544  0.00  0.00    +0.000 A 
ATOM     34  C   UNL     1      -8.795  -2.905  13.615  0.00  0.00    +0.000 A 
ATOM     35  C   UNL     1      -9.756  -3.857  13.982  0.00  0.00    +0.000 A 
ATOM     36  C   UNL     1     -10.892  -3.996  13.179  0.00  0.00    +0.000 A 
ATOM     37  H   UNL     1     -10.327  -1.418  10.989  0.00  0.00    +0.000 HD
ATOM     38  H   UNL     1      -8.259  -1.273  12.321  0.00  0.00    +0.000 HD
ATOM     39  H   UNL     1      -7.859  -2.799  14.154  0.00  0.00    +0.000 HD
ATOM     40  H   UNL     1     -11.650  -4.741  13.409  0.00  0.00    +0.000 HD
BRANCH  31  41
ATOM     41  C   UNL     1     -12.371  -3.219  11.326  0.00  0.00    +0.000 C 
ATOM     42  O   UNL     1     -13.394  -2.648  11.641  0.00  0.00    +0.000 OA
BRANCH  41  43
ATOM     43  O   UNL     1     -12.189  -4.012  10.240  0.00  0.00    +0.000 OA
BRANCH  43  44
ATOM     44  C   UNL     1     -11.891  -3.306   9.038  0.00  0.00    +0.000 C 
ATOM     45  H   UNL     1     -10.855  -3.528   8.764  0.00  0.00    +0.000 HD
ATOM     46  H   UNL     1     -11.982  -2.230   9.211  0.00  0.00    +0.000 HD
ATOM     47  H   UNL     1     -12.541  -3.628   8.221  0.00  0.00    +0.000 HD
ENDBRANCH  43  44
ENDBRANCH  41  43
ENDBRANCH  31  41
ENDBRANCH  27  35
ENDBRANCH   1  28
BRANCH   1  48
ATOM     48  C   UNL     1     -10.701  -5.057  18.300  0.00  0.00    +0.000 C 
ATOM     49  H   UNL     1     -10.099  -5.425  19.137  0.00  0.00    +0.000 HD
ATOM     50  H   UNL     1     -11.745  -5.136  18.619  0.00  0.00    +0.000 HD
BRANCH  48  51
ATOM     51  N   UNL     1     -10.322  -3.634  18.161  0.00  0.00    +0.000 NA
BRANCH  51  52
ATOM     52  C   UNL     1     -11.443  -2.724  18.355  0.00  0.00    +0.000 C 
ATOM     53  H   UNL     1     -11.391  -2.303  19.359  0.00  0.00    +0.000 HD
ATOM     54  H   UNL     1     -12.409  -3.242  18.340  0.00  0.00    +0.000 HD
ATOM     55  H   UNL     1     -11.475  -1.932  17.597  0.00  0.00    +0.000 HD
ENDBRANCH  51  52
BRANCH  51  56
ATOM     56  C   UNL     1      -9.258  -3.295  19.110  0.00  0.00    +0.000 C 
ATOM     57  H   UNL     1      -8.917  -4.190  19.643  0.00  0.00    +0.000 HD
ATOM     58  H   UNL     1      -9.581  -2.549  19.846  0.00  0.00    +0.000 HD
ATOM     59  H   UNL     1      -8.384  -2.900  18.580  0.00  0.00    +0.000 HD
ENDBRANCH  51  56
ENDBRANCH  48  51
ENDBRANCH   1  48
TORSDOF 10
ENDMDL
MODEL 8
REMARK VINA RESULT:    -8.068      2.809      5.947
REMARK INTER + INTRA:         -13.614
REMARK INTER:                 -12.079
REMARK INTRA:                  -1.535
REMARK UNBOUND:                -1.537
REMARK  Name = 
REMARK  10 active torsions:
REMARK  status: ('A' for Active; 'I' for Inactive)
REMARK    1  A    between atoms: C_1  and  O_2
REMARK    2  A    between atoms: O_2  and  C_3
REMARK    3  A    between atoms: C_3  and  C_5
REMARK    4  A    between atoms: C_9  and  N_10
REMARK    5  A    between atoms: C_11  and  C_13
REMARK    6  A    between atoms: C_13  and  C_14
REMARK    7  A    between atoms: C_14  and  N_15
REMARK    8  A    between atoms: N_15  and  C_16
REMARK    9  A    between atoms: N_15  and  C_17
REMARK   10  A    between atoms: N_20  and  C_21
REMARK                            x       y       z     vdW  Elec       q    Type
REMARK                         _______ _______ _______ _____ _____    ______ ____
ROOT
ATOM      1  C   UNL     1      -9.929  -5.692  16.733  0.00  0.00    +0.000 C 
ATOM      2  C   UNL     1     -11.037  -6.789  16.920  0.00  0.00    +0.000 C 
ATOM      3  C   UNL     1     -10.725  -7.839  17.988  0.00  0.00    +0.000 C 
ATOM      4  N   UNL     1      -9.376  -8.306  17.741  0.00  0.00    +0.000 N 
ATOM      5  C   UNL     1      -8.330  -7.341  18.003  0.00  0.00    +0.000 C 
ATOM      6  C   UNL     1      -8.483  -6.220  16.977  0.00  0.00    +0.000 C 
ATOM      7  H   UNL     1     -11.242  -7.330  16.009  0.00  0.00    +0.000 HD
ATOM      8  H   UNL     1     -12.013  -6.345  17.144  0.00  0.00    +0.000 HD
ATOM      9  H   UNL     1     -11.468  -8.644  17.930  0.00  0.00    +0.000 HD
ATOM     10  H   UNL     1     -10.807  -7.400  18.989  0.00  0.00    +0.000 HD
ATOM     11  H   UNL     1      -7.327  -7.776  17.901  0.00  0.00    +0.000 HD
ATOM     12  H   UNL     1      -8.379  -6.975  19.033  0.00  0.00    +0.000 HD
ATOM     13  H   UNL     1      -8.109  -6.654  16.043  0.00  0.00    +0.000 HD
ATOM     14  H   UNL     1      -7.794  -5.405  17.223  0.00  0.00    +0.000 HD
ENDROOT
BRANCH   4  15
ATOM     15  C   UNL     1      -9.076  -9.645  17.683  0.00  0.00    +0.000 A 
ATOM     16  N   UNL     1      -8.717 -10.314  18.810  0.00  0.00    +0.000 NA
ATOM     17  C   UNL     1      -8.384 -11.619  18.717  0.00  0.00    +0.000 A 
ATOM     18  N   UNL     1      -8.365 -12.404  17.628  0.00  0.00    +0.000 NA
ATOM     19  C   UNL     1      -8.734 -11.703  16.535  0.00  0.00    +0.000 A 
ATOM     20  N   UNL     1      -8.784 -12.171  15.255  0.00  0.00    +0.000 N 
ATOM     21  N   UNL     1      -9.172 -11.241  14.357  0.00  0.00    +0.000 NA
ATOM     22  C   UNL     1      -9.380 -10.163  15.115  0.00  0.00    +0.000 A 
ATOM     23  C   UNL     1      -9.099 -10.383  16.484  0.00  0.00    +0.000 A 
ATOM     24  H   UNL     1      -8.097 -12.099  19.651  0.00  0.00    +0.000 HD
ATOM     25  H   UNL     1      -8.551 -13.098  14.932  0.00  0.00    +0.000 HD
ATOM     26  H   UNL     1      -9.696  -9.248  14.633  0.00  0.00    +0.000 HD
ENDBRANCH   4  15
BRANCH   1  28
ATOM     27  N   UNL     1      -9.433  -3.568  18.021  0.00  0.00    +0.000 N 
ATOM     28  C   UNL     1     -10.348  -4.572  17.739  0.00  0.00    +0.000 C 
ATOM     29  O   UNL     1     -11.476  -4.579  18.208  0.00  0.00    +0.000 OA
ATOM     30  H   UNL     1      -8.630  -3.444  17.420  0.00  0.00    +0.000 HD
BRANCH  27  35
ATOM     31  C   UNL     1      -9.302  -1.578  21.164  0.00  0.00    +0.000 A 
ATOM     32  C   UNL     1      -9.929  -0.388  20.777  0.00  0.00    +0.000 A 
ATOM     33  C   UNL     1     -10.471  -0.281  19.507  0.00  0.00    +0.000 A 
ATOM     34  C   UNL     1     -10.360  -1.346  18.614  0.00  0.00    +0.000 A 
ATOM     35  C   UNL     1      -9.676  -2.520  18.954  0.00  0.00    +0.000 A 
ATOM     36  C   UNL     1      -9.194  -2.653  20.261  0.00  0.00    +0.000 A 
ATOM     37  H   UNL     1      -9.985   0.466  21.449  0.00  0.00    +0.000 HD
ATOM     38  H   UNL     1     -10.959   0.638  19.192  0.00  0.00    +0.000 HD
ATOM     39  H   UNL     1     -10.821  -1.212  17.641  0.00  0.00    +0.000 HD
ATOM     40  H   UNL     1      -8.683  -3.559  20.577  0.00  0.00    +0.000 HD
BRANCH  31  41
ATOM     41  C   UNL     1      -8.687  -1.706  22.513  0.00  0.00    +0.000 C 
ATOM     42  O   UNL     1      -7.834  -0.953  22.933  0.00  0.00    +0.000 OA
BRANCH  41  43
ATOM     43  O   UNL     1      -9.236  -2.755  23.174  0.00  0.00    +0.000 OA
BRANCH  43  44
ATOM     44  C   UNL     1     -10.238  -2.396  24.122  0.00  0.00    +0.000 C 
ATOM     45  H   UNL     1     -10.927  -1.698  23.637  0.00  0.00    +0.000 HD
ATOM     46  H   UNL     1      -9.775  -1.892  24.974  0.00  0.00    +0.000 HD
ATOM     47  H   UNL     1     -10.805  -3.272  24.446  0.00  0.00    +0.000 HD
ENDBRANCH  43  44
ENDBRANCH  41  43
ENDBRANCH  31  41
ENDBRANCH  27  35
ENDBRANCH   1  28
BRANCH   1  48
ATOM     48  C   UNL     1      -9.959  -5.018  15.314  0.00  0.00    +0.000 C 
ATOM     49  H   UNL     1     -10.364  -5.772  14.631  0.00  0.00    +0.000 HD
ATOM     50  H   UNL     1      -8.935  -4.824  14.980  0.00  0.00    +0.000 HD
BRANCH  48  51
ATOM     51  N   UNL     1     -10.798  -3.820  15.092  0.00  0.00    +0.000 NA
BRANCH  51  52
ATOM     52  C   UNL     1     -10.037  -2.673  14.613  0.00  0.00    +0.000 C 
ATOM     53  H   UNL     1      -9.079  -2.639  15.131  0.00  0.00    +0.000 HD
ATOM     54  H   UNL     1     -10.509  -1.719  14.875  0.00  0.00    +0.000 HD
ATOM     55  H   UNL     1      -9.897  -2.689  13.525  0.00  0.00    +0.000 HD
ENDBRANCH  51  52
BRANCH  51  56
ATOM     56  C   UNL     1     -11.869  -4.118  14.137  0.00  0.00    +0.000 C 
ATOM     57  H   UNL     1     -11.503  -4.032  13.107  0.00  0.00    +0.000 HD
ATOM     58  H   UNL     1     -12.732  -3.455  14.260  0.00  0.00    +0.000 HD
ATOM     59  H   UNL     1     -12.210  -5.153  14.257  0.00  0.00    +0.000 HD
ENDBRANCH  51  56
ENDBRANCH  48  51
ENDBRANCH   1  48
TORSDOF 10
ENDMDL
