
 OpenBabel01112422173D

 68 75  0  0  1  0  0  0  0  0999 V2000
    2.6470   -0.4513   -2.6758 C   0  0  0  0  0  0  0  0  0  0  0  0
    2.8228    0.1929   -1.3994 O   0  0  0  0  0  0  0  0  0  0  0  0
    2.1246   -0.4695   -0.3374 C   0  0  1  0  0  0  0  0  0  0  0  0
    2.2043    0.1757    1.1164 C   0  0  1  0  0  0  0  0  0  0  0  0
    3.5376    0.7823    1.4111 N   0  0  0  0  0  0  0  0  0  0  0  0
    4.6687   -0.1371    1.5291 C   0  0  0  0  0  0  0  0  0  0  0  0
    3.9050    2.1217    1.5922 C   0  0  0  0  0  0  0  0  0  0  0  0
    4.9812    2.4088    2.1513 O   0  0  0  0  0  0  0  0  0  0  0  0
    3.0249    3.2353    1.0798 C   0  0  0  0  0  0  0  0  0  0  0  0
    2.3707    3.8945    2.2198 N   0  0  0  0  0  0  0  0  0  0  0  0
    0.7856    0.6981    1.7138 C   0  0  0  0  0  0  0  0  0  0  0  0
   -0.3633   -0.5020    1.6104 C   0  0  2  0  0  0  0  0  0  0  0  0
    0.2330   -1.3775    0.6757 O   0  0  0  0  0  0  0  0  0  0  0  0
    0.6441   -0.7457   -0.6172 C   0  0  2  0  0  0  0  0  0  0  0  0
    0.4117   -2.0595   -1.4060 C   0  0  0  0  0  0  0  0  0  0  0  0
   -0.0782    0.5194   -1.0138 N   0  0  0  0  0  0  0  0  0  0  0  0
    0.1327    1.7923   -1.7071 C   0  0  0  0  0  0  0  0  0  0  0  0
    1.0910    2.3457   -2.5484 C   0  0  0  0  0  0  0  0  0  0  0  0
    0.7980    3.5094   -3.2952 C   0  0  0  0  0  0  0  0  0  0  0  0
   -0.4116    4.1647   -3.2344 C   0  0  0  0  0  0  0  0  0  0  0  0
   -1.3154    3.7861   -2.2591 C   0  0  0  0  0  0  0  0  0  0  0  0
   -1.0138    2.7027   -1.4251 C   0  0  0  0  0  0  0  0  0  0  0  0
   -1.6824    2.2015   -0.3128 C   0  0  0  0  0  0  0  0  0  0  0  0
   -2.9764    2.6380   -0.0211 C   0  0  0  0  0  0  0  0  0  0  0  0
   -3.9924    1.7220   -0.3182 C   0  0  0  0  0  0  0  0  0  0  0  0
   -3.4765    0.3653   -0.3445 C   0  0  0  0  0  0  0  0  0  0  0  0
   -4.0624   -0.4975    0.6019 C   0  0  0  0  0  0  0  0  0  0  0  0
   -5.4047   -0.7183    0.9528 C   0  0  0  0  0  0  0  0  0  0  0  0
   -5.5799   -1.1186    2.2682 C   0  0  0  0  0  0  0  0  0  0  0  0
   -4.5197   -1.6924    2.9597 C   0  0  0  0  0  0  0  0  0  0  0  0
   -3.3316   -2.0864    2.3200 C   0  0  0  0  0  0  0  0  0  0  0  0
   -2.9789   -1.0813    1.4193 C   0  0  0  0  0  0  0  0  0  0  0  0
   -1.7503   -0.4899    1.1275 N   0  0  0  0  0  0  0  0  0  0  0  0
   -2.1356    0.0372   -0.0523 C   0  0  0  0  0  0  0  0  0  0  0  0
   -1.2347    0.9262   -0.4601 C   0  0  0  0  0  0  0  0  0  0  0  0
   -5.2332    2.4009   -0.1119 C   0  0  0  0  0  0  0  0  0  0  0  0
   -6.3899    2.1733   -0.4594 O   0  0  0  0  0  0  0  0  0  0  0  0
   -4.8569    3.5899    0.5396 N   0  0  0  0  0  0  0  0  0  0  0  0
   -3.4484    3.7017    0.8530 C   0  0  0  0  0  0  0  0  0  0  0  0
    2.9821   -1.4900   -2.6474 H   0  0  0  0  0  0  0  0  0  0  0  0
    3.2106    0.0932   -3.4370 H   0  0  0  0  0  0  0  0  0  0  0  0
    1.6021   -0.4092   -3.0035 H   0  0  0  0  0  0  0  0  0  0  0  0
    2.6553   -1.4252   -0.2282 H   0  0  0  0  0  0  0  0  0  0  0  0
    2.3018   -0.7088    1.7662 H   0  0  0  0  0  0  0  0  0  0  0  0
    5.5905    0.3059    1.1286 H   0  0  0  0  0  0  0  0  0  0  0  0
    4.4859   -1.0565    0.9675 H   0  0  0  0  0  0  0  0  0  0  0  0
    4.8264   -0.3823    2.5841 H   0  0  0  0  0  0  0  0  0  0  0  0
    2.3124    2.8851    0.3310 H   0  0  0  0  0  0  0  0  0  0  0  0
    3.6923    3.9508    0.5853 H   0  0  0  0  0  0  0  0  0  0  0  0
    3.0977    4.0417    2.9302 H   0  0  0  0  0  0  0  0  0  0  0  0
    2.1021    4.8314    1.9222 H   0  0  0  0  0  0  0  0  0  0  0  0
    0.4943    1.6337    1.2350 H   0  0  0  0  0  0  0  0  0  0  0  0
    0.9114    0.9642    2.7707 H   0  0  0  0  0  0  0  0  0  0  0  0
   -0.4164   -0.9670    2.5957 H   0  0  0  0  0  0  0  0  0  0  0  0
   -0.4848   -2.5901   -1.0416 H   0  0  0  0  0  0  0  0  0  0  0  0
    1.2204   -2.7722   -1.1569 H   0  0  0  0  0  0  0  0  0  0  0  0
    0.3381   -1.9844   -2.4832 H   0  0  0  0  0  0  0  0  0  0  0  0
    2.0783    1.9255   -2.6759 H   0  0  0  0  0  0  0  0  0  0  0  0
    1.5510    3.9005   -3.9801 H   0  0  0  0  0  0  0  0  0  0  0  0
   -0.6673    4.9860   -3.8885 H   0  0  0  0  0  0  0  0  0  0  0  0
   -2.2705    4.3106   -2.1499 H   0  0  0  0  0  0  0  0  0  0  0  0
   -6.2210   -0.3127    0.3622 H   0  0  0  0  0  0  0  0  0  0  0  0
   -6.5099   -0.8708    2.7607 H   0  0  0  0  0  0  0  0  0  0  0  0
   -4.5682   -1.7793    4.0407 H   0  0  0  0  0  0  0  0  0  0  0  0
   -3.5305   -3.0431    1.7779 H   0  0  0  0  0  0  0  0  0  0  0  0
   -5.5114    4.3530    0.6261 H   0  0  0  0  0  0  0  0  0  0  0  0
   -3.3208    3.3999    1.9069 H   0  0  0  0  0  0  0  0  0  0  0  0
   -3.0343    4.6916    0.6796 H   0  0  0  0  0  0  0  0  0  0  0  0
  1  2  1  0  0  0  0
  1 40  1  0  0  0  0
  1 41  1  0  0  0  0
  1 42  1  0  0  0  0
  3  4  1  0  0  0  0
  3 14  1  0  0  0  0
  3  2  1  0  0  0  0
  3 43  1  1  0  0  0
  4 11  1  0  0  0  0
  4  5  1  0  0  0  0
  4 44  1  1  0  0  0
  5  6  1  0  0  0  0
  5  7  1  0  0  0  0
  6 45  1  0  0  0  0
  6 46  1  0  0  0  0
  6 47  1  0  0  0  0
  7  8  2  0  0  0  0
  7  9  1  0  0  0  0
  9 10  1  0  0  0  0
  9 48  1  0  0  0  0
  9 49  1  0  0  0  0
 10 50  1  0  0  0  0
 10 51  1  0  0  0  0
 11 12  1  0  0  0  0
 11 52  1  0  0  0  0
 11 53  1  0  0  0  0
 12 13  1  0  0  0  0
 12 33  1  0  0  0  0
 12 54  1  1  0  0  0
 13 14  1  0  0  0  0
 14 16  1  0  0  0  0
 14 15  1  6  0  0  0
 15 55  1  0  0  0  0
 15 56  1  0  0  0  0
 15 57  1  0  0  0  0
 16 17  1  0  0  0  0
 16 35  1  0  0  0  0
 17 18  1  0  0  0  0
 17 22  2  0  0  0  0
 18 19  2  0  0  0  0
 18 58  1  0  0  0  0
 19 20  1  0  0  0  0
 19 59  1  0  0  0  0
 20 21  2  0  0  0  0
 20 60  1  0  0  0  0
 21 22  1  0  0  0  0
 21 61  1  0  0  0  0
 22 23  1  0  0  0  0
 23 24  1  0  0  0  0
 23 35  2  0  0  0  0
 24 25  2  0  0  0  0
 24 39  1  0  0  0  0
 25 26  1  0  0  0  0
 25 36  1  0  0  0  0
 26 27  1  0  0  0  0
 26 34  2  0  0  0  0
 27 28  1  0  0  0  0
 27 32  2  0  0  0  0
 28 29  2  0  0  0  0
 28 62  1  0  0  0  0
 29 30  1  0  0  0  0
 29 63  1  0  0  0  0
 30 31  2  0  0  0  0
 30 64  1  0  0  0  0
 31 32  1  0  0  0  0
 31 65  1  0  0  0  0
 32 33  1  0  0  0  0
 33 34  1  0  0  0  0
 34 35  1  0  0  0  0
 36 38  1  0  0  0  0
 36 37  2  0  0  0  0
 38 39  1  0  0  0  0
 38 66  1  0  0  0  0
 39 67  1  0  0  0  0
 39 68  1  0  0  0  0
M  END
$$$$
