MODEL 1
REMARK VINA RESULT:   -11.335      0.000      0.000
REMARK INTER + INTRA:         -15.351
REMARK INTER:                 -15.311
REMARK INTRA:                  -0.041
REMARK UNBOUND:                -0.041
REMARK  Name = 
REMARK  8 active torsions:
REMARK  status: ('A' for Active; 'I' for Inactive)
REMARK    1  A    between atoms: C_5  and  O_6
REMARK    2  A    between atoms: C_7  and  O_8
REMARK    3  A    between atoms: C_13  and  O_14
REMARK    4  A    between atoms: C_15  and  O_16
REMARK    5  A    between atoms: N_19  and  C_20
REMARK    6  A    between atoms: C_20  and  C_21
REMARK    7  A    between atoms: C_24  and  S_25
REMARK    8  A    between atoms: S_25  and  C_28
REMARK                            x       y       z     vdW  Elec       q    Type
REMARK                         _______ _______ _______ _____ _____    ______ ____
ROOT
ATOM      1  O   UNL     1      -8.722  -3.319  18.833  0.00  0.00    +0.000 OA
ATOM      2  C   UNL     1      -8.858  -3.003  20.016  0.00  0.00    +0.000 A 
ATOM      3  C   UNL     1      -9.804  -1.906  20.339  0.00  0.00    +0.000 A 
ATOM      4  C   UNL     1     -10.420  -1.224  19.268  0.00  0.00    +0.000 A 
ATOM      5  C   UNL     1     -11.297  -0.186  19.532  0.00  0.00    +0.000 A 
ATOM      6  C   UNL     1     -11.567   0.169  20.844  0.00  0.00    +0.000 A 
ATOM      7  C   UNL     1     -10.959  -0.495  21.905  0.00  0.00    +0.000 A 
ATOM      8  C   UNL     1     -10.055  -1.556  21.677  0.00  0.00    +0.000 A 
ATOM      9  C   UNL     1      -9.371  -2.293  22.761  0.00  0.00    +0.000 A 
ATOM     10  C   UNL     1      -9.633  -2.024  24.127  0.00  0.00    +0.000 A 
ATOM     11  C   UNL     1      -8.972  -2.718  25.132  0.00  0.00    +0.000 A 
ATOM     12  C   UNL     1      -8.049  -3.691  24.804  0.00  0.00    +0.000 A 
ATOM     13  C   UNL     1      -7.784  -3.993  23.478  0.00  0.00    +0.000 A 
ATOM     14  C   UNL     1      -8.426  -3.302  22.436  0.00  0.00    +0.000 A 
ATOM     15  N   UNL     1      -8.163  -3.620  21.060  0.00  0.00    +0.000 N 
ATOM     16  H   UNL     1     -10.198  -1.514  18.244  0.00  0.00    +0.000 HD
ATOM     17  H   UNL     1     -11.213  -0.152  22.902  0.00  0.00    +0.000 HD
ATOM     18  H   UNL     1     -10.358  -1.273  24.419  0.00  0.00    +0.000 HD
ATOM     19  H   UNL     1      -7.079  -4.793  23.304  0.00  0.00    +0.000 HD
ENDROOT
BRANCH  15  20
ATOM     20  C   UNL     1      -7.125  -4.596  20.679  0.00  0.00    +0.000 C 
ATOM     21  H   UNL     1      -6.744  -5.093  21.581  0.00  0.00    +0.000 HD
ATOM     22  H   UNL     1      -6.245  -4.097  20.265  0.00  0.00    +0.000 HD
BRANCH  20  23
ATOM     23  C   UNL     1      -7.653  -5.665  19.733  0.00  0.00    +0.000 A 
ATOM     24  C   UNL     1      -7.061  -5.886  18.479  0.00  0.00    +0.000 A 
ATOM     25  C   UNL     1      -7.661  -6.728  17.544  0.00  0.00    +0.000 A 
ATOM     26  C   UNL     1      -8.853  -7.373  17.871  0.00  0.00    +0.000 A 
ATOM     27  C   UNL     1      -9.393  -7.268  19.154  0.00  0.00    +0.000 A 
ATOM     28  C   UNL     1      -8.796  -6.407  20.076  0.00  0.00    +0.000 A 
ATOM     29  H   UNL     1      -6.145  -5.378  18.193  0.00  0.00    +0.000 HD
ATOM     30  H   UNL     1      -7.215  -6.839  16.558  0.00  0.00    +0.000 HD
ATOM     31  H   UNL     1     -10.294  -7.811  19.427  0.00  0.00    +0.000 HD
ATOM     32  H   UNL     1      -9.250  -6.286  21.059  0.00  0.00    +0.000 HD
BRANCH  26  33
ATOM     33  S   UNL     1      -9.743  -8.248  16.602  0.00  0.00    +0.000 S 
ATOM     34  O   UNL     1     -11.155  -8.193  16.937  0.00  0.00    +0.000 OA
ATOM     35  O   UNL     1      -9.269  -7.766  15.320  0.00  0.00    +0.000 OA
BRANCH  33  36
ATOM     36  C   UNL     1      -9.210  -9.941  16.775  0.00  0.00    +0.000 A 
ATOM     37  C   UNL     1      -9.164 -10.774  15.652  0.00  0.00    +0.000 A 
ATOM     38  C   UNL     1      -8.803 -12.114  15.805  0.00  0.00    +0.000 A 
ATOM     39  C   UNL     1      -8.478 -12.610  17.069  0.00  0.00    +0.000 A 
ATOM     40  C   UNL     1      -8.499 -11.767  18.181  0.00  0.00    +0.000 A 
ATOM     41  C   UNL     1      -8.862 -10.428  18.038  0.00  0.00    +0.000 A 
ATOM     42  H   UNL     1      -9.416 -10.396  14.664  0.00  0.00    +0.000 HD
ATOM     43  H   UNL     1      -8.775 -12.774  14.942  0.00  0.00    +0.000 HD
ATOM     44  H   UNL     1      -8.203 -13.656  17.188  0.00  0.00    +0.000 HD
ATOM     45  H   UNL     1      -8.236 -12.157  19.163  0.00  0.00    +0.000 HD
ATOM     46  H   UNL     1      -8.879  -9.778  18.911  0.00  0.00    +0.000 HD
ENDBRANCH  33  36
ENDBRANCH  26  33
ENDBRANCH  20  23
ENDBRANCH  15  20
BRANCH   5  47
ATOM     47  O   UNL     1     -11.918   0.517  18.540  0.00  0.00    +0.000 OA
ATOM     48  H   UNL     1     -12.807   0.141  18.406  0.00  0.00    +0.000 HD
ENDBRANCH   5  47
BRANCH   6  49
ATOM     49  O   UNL     1     -12.438   1.186  21.112  0.00  0.00    +0.000 OA
ATOM     50  H   UNL     1     -11.879   1.902  21.478  0.00  0.00    +0.000 HD
ENDBRANCH   6  49
BRANCH  11  51
ATOM     51  O   UNL     1      -9.205  -2.486  26.459  0.00  0.00    +0.000 OA
ATOM     52  H   UNL     1      -8.904  -3.259  26.968  0.00  0.00    +0.000 HD
ENDBRANCH  11  51
BRANCH  12  53
ATOM     53  O   UNL     1      -7.396  -4.382  25.783  0.00  0.00    +0.000 OA
ATOM     54  H   UNL     1      -6.831  -3.716  26.223  0.00  0.00    +0.000 HD
ENDBRANCH  12  53
TORSDOF 8
ENDMDL
MODEL 2
REMARK VINA RESULT:   -10.206      3.573      5.308
REMARK INTER + INTRA:         -13.826
REMARK INTER:                 -13.517
REMARK INTRA:                  -0.309
REMARK UNBOUND:                -0.041
REMARK  Name = 
REMARK  8 active torsions:
REMARK  status: ('A' for Active; 'I' for Inactive)
REMARK    1  A    between atoms: C_5  and  O_6
REMARK    2  A    between atoms: C_7  and  O_8
REMARK    3  A    between atoms: C_13  and  O_14
REMARK    4  A    between atoms: C_15  and  O_16
REMARK    5  A    between atoms: N_19  and  C_20
REMARK    6  A    between atoms: C_20  and  C_21
REMARK    7  A    between atoms: C_24  and  S_25
REMARK    8  A    between atoms: S_25  and  C_28
REMARK                            x       y       z     vdW  Elec       q    Type
REMARK                         _______ _______ _______ _____ _____    ______ ____
ROOT
ATOM      1  O   UNL     1     -12.033  -4.701  15.661  0.00  0.00    +0.000 OA
ATOM      2  C   UNL     1     -11.371  -3.708  15.964  0.00  0.00    +0.000 A 
ATOM      3  C   UNL     1     -11.101  -2.704  14.905  0.00  0.00    +0.000 A 
ATOM      4  C   UNL     1     -11.534  -2.990  13.592  0.00  0.00    +0.000 A 
ATOM      5  C   UNL     1     -11.288  -2.081  12.578  0.00  0.00    +0.000 A 
ATOM      6  C   UNL     1     -10.623  -0.898  12.860  0.00  0.00    +0.000 A 
ATOM      7  C   UNL     1     -10.188  -0.612  14.150  0.00  0.00    +0.000 A 
ATOM      8  C   UNL     1     -10.416  -1.515  15.212  0.00  0.00    +0.000 A 
ATOM      9  C   UNL     1      -9.970  -1.272  16.600  0.00  0.00    +0.000 A 
ATOM     10  C   UNL     1      -9.330  -0.066  16.979  0.00  0.00    +0.000 A 
ATOM     11  C   UNL     1      -8.907   0.140  18.286  0.00  0.00    +0.000 A 
ATOM     12  C   UNL     1      -9.114  -0.838  19.238  0.00  0.00    +0.000 A 
ATOM     13  C   UNL     1      -9.754  -2.021  18.906  0.00  0.00    +0.000 A 
ATOM     14  C   UNL     1     -10.184  -2.267  17.591  0.00  0.00    +0.000 A 
ATOM     15  N   UNL     1     -10.859  -3.487  17.246  0.00  0.00    +0.000 N 
ATOM     16  H   UNL     1     -12.054  -3.921  13.387  0.00  0.00    +0.000 HD
ATOM     17  H   UNL     1      -9.665   0.328  14.289  0.00  0.00    +0.000 HD
ATOM     18  H   UNL     1      -9.161   0.726  16.258  0.00  0.00    +0.000 HD
ATOM     19  H   UNL     1      -9.913  -2.719  19.716  0.00  0.00    +0.000 HD
ENDROOT
BRANCH  15  20
ATOM     20  C   UNL     1     -11.022  -4.582  18.221  0.00  0.00    +0.000 C 
ATOM     21  H   UNL     1     -12.086  -4.693  18.468  0.00  0.00    +0.000 HD
ATOM     22  H   UNL     1     -10.557  -4.332  19.179  0.00  0.00    +0.000 HD
BRANCH  20  23
ATOM     23  C   UNL     1     -10.514  -5.914  17.689  0.00  0.00    +0.000 A 
ATOM     24  C   UNL     1      -9.211  -6.049  17.184  0.00  0.00    +0.000 A 
ATOM     25  C   UNL     1      -8.816  -7.214  16.527  0.00  0.00    +0.000 A 
ATOM     26  C   UNL     1      -9.725  -8.262  16.389  0.00  0.00    +0.000 A 
ATOM     27  C   UNL     1     -10.983  -8.200  16.990  0.00  0.00    +0.000 A 
ATOM     28  C   UNL     1     -11.376  -7.023  17.629  0.00  0.00    +0.000 A 
ATOM     29  H   UNL     1      -8.492  -5.239  17.260  0.00  0.00    +0.000 HD
ATOM     30  H   UNL     1      -7.819  -7.273  16.094  0.00  0.00    +0.000 HD
ATOM     31  H   UNL     1     -11.673  -9.037  16.929  0.00  0.00    +0.000 HD
ATOM     32  H   UNL     1     -12.378  -6.958  18.052  0.00  0.00    +0.000 HD
BRANCH  26  33
ATOM     33  S   UNL     1      -9.307  -9.641  15.344  0.00  0.00    +0.000 S 
ATOM     34  O   UNL     1     -10.508 -10.030  14.628  0.00  0.00    +0.000 OA
ATOM     35  O   UNL     1      -8.098  -9.297  14.624  0.00  0.00    +0.000 OA
BRANCH  33  36
ATOM     36  C   UNL     1      -8.904 -10.953  16.483  0.00  0.00    +0.000 A 
ATOM     37  C   UNL     1      -8.720 -10.665  17.838  0.00  0.00    +0.000 A 
ATOM     38  C   UNL     1      -8.346 -11.687  18.713  0.00  0.00    +0.000 A 
ATOM     39  C   UNL     1      -8.173 -12.987  18.235  0.00  0.00    +0.000 A 
ATOM     40  C   UNL     1      -8.385 -13.274  16.886  0.00  0.00    +0.000 A 
ATOM     41  C   UNL     1      -8.755 -12.258  16.004  0.00  0.00    +0.000 A 
ATOM     42  H   UNL     1      -8.853  -9.655  18.220  0.00  0.00    +0.000 HD
ATOM     43  H   UNL     1      -8.189 -11.474  19.767  0.00  0.00    +0.000 HD
ATOM     44  H   UNL     1      -7.876 -13.782  18.917  0.00  0.00    +0.000 HD
ATOM     45  H   UNL     1      -8.257 -14.291  16.520  0.00  0.00    +0.000 HD
ATOM     46  H   UNL     1      -8.915 -12.490  14.953  0.00  0.00    +0.000 HD
ENDBRANCH  33  36
ENDBRANCH  26  33
ENDBRANCH  20  23
ENDBRANCH  15  20
BRANCH   5  47
ATOM     47  O   UNL     1     -11.675  -2.303  11.287  0.00  0.00    +0.000 OA
ATOM     48  H   UNL     1     -10.903  -2.621  10.785  0.00  0.00    +0.000 HD
ENDBRANCH   5  47
BRANCH   6  49
ATOM     49  O   UNL     1     -10.384   0.007  11.866  0.00  0.00    +0.000 OA
ATOM     50  H   UNL     1      -9.886   0.729  12.301  0.00  0.00    +0.000 HD
ENDBRANCH   6  49
BRANCH  11  51
ATOM     51  O   UNL     1      -8.292   1.294  18.684  0.00  0.00    +0.000 OA
ATOM     52  H   UNL     1      -7.607   1.071  19.339  0.00  0.00    +0.000 HD
ENDBRANCH  11  51
BRANCH  12  53
ATOM     53  O   UNL     1      -8.705  -0.645  20.525  0.00  0.00    +0.000 OA
ATOM     54  H   UNL     1      -9.492  -0.846  21.070  0.00  0.00    +0.000 HD
ENDBRANCH  12  53
TORSDOF 8
ENDMDL
MODEL 3
REMARK VINA RESULT:   -10.038      3.782      9.613
REMARK INTER + INTRA:         -13.600
REMARK INTER:                 -14.632
REMARK INTRA:                   1.032
REMARK UNBOUND:                -0.041
REMARK  Name = 
REMARK  8 active torsions:
REMARK  status: ('A' for Active; 'I' for Inactive)
REMARK    1  A    between atoms: C_5  and  O_6
REMARK    2  A    between atoms: C_7  and  O_8
REMARK    3  A    between atoms: C_13  and  O_14
REMARK    4  A    between atoms: C_15  and  O_16
REMARK    5  A    between atoms: N_19  and  C_20
REMARK    6  A    between atoms: C_20  and  C_21
REMARK    7  A    between atoms: C_24  and  S_25
REMARK    8  A    between atoms: S_25  and  C_28
REMARK                            x       y       z     vdW  Elec       q    Type
REMARK                         _______ _______ _______ _____ _____    ______ ____
ROOT
ATOM      1  O   UNL     1      -8.554 -10.042  13.962  0.00  0.00    +0.000 OA
ATOM      2  C   UNL     1      -8.671 -10.155  15.182  0.00  0.00    +0.000 A 
ATOM      3  C   UNL     1      -8.771 -11.523  15.748  0.00  0.00    +0.000 A 
ATOM      4  C   UNL     1      -8.821 -12.611  14.850  0.00  0.00    +0.000 A 
ATOM      5  C   UNL     1      -8.926 -13.900  15.343  0.00  0.00    +0.000 A 
ATOM      6  C   UNL     1      -8.976 -14.112  16.712  0.00  0.00    +0.000 A 
ATOM      7  C   UNL     1      -8.933 -13.044  17.603  0.00  0.00    +0.000 A 
ATOM      8  C   UNL     1      -8.830 -11.714  17.140  0.00  0.00    +0.000 A 
ATOM      9  C   UNL     1      -8.789 -10.538  18.035  0.00  0.00    +0.000 A 
ATOM     10  C   UNL     1      -8.784 -10.674  19.446  0.00  0.00    +0.000 A 
ATOM     11  C   UNL     1      -8.757  -9.559  20.272  0.00  0.00    +0.000 A 
ATOM     12  C   UNL     1      -8.730  -8.293  19.719  0.00  0.00    +0.000 A 
ATOM     13  C   UNL     1      -8.714  -8.126  18.344  0.00  0.00    +0.000 A 
ATOM     14  C   UNL     1      -8.752  -9.232  17.479  0.00  0.00    +0.000 A 
ATOM     15  N   UNL     1      -8.724  -9.063  16.053  0.00  0.00    +0.000 N 
ATOM     16  H   UNL     1      -8.781 -12.429  13.780  0.00  0.00    +0.000 HD
ATOM     17  H   UNL     1      -8.988 -13.290  18.658  0.00  0.00    +0.000 HD
ATOM     18  H   UNL     1      -8.795 -11.653  19.912  0.00  0.00    +0.000 HD
ATOM     19  H   UNL     1      -8.652  -7.106  17.990  0.00  0.00    +0.000 HD
ENDROOT
BRANCH  15  20
ATOM     20  C   UNL     1      -8.776  -7.725  15.434  0.00  0.00    +0.000 C 
ATOM     21  H   UNL     1      -9.247  -7.800  14.445  0.00  0.00    +0.000 HD
ATOM     22  H   UNL     1      -7.772  -7.349  15.216  0.00  0.00    +0.000 HD
BRANCH  20  23
ATOM     23  C   UNL     1      -9.571  -6.730  16.266  0.00  0.00    +0.000 A 
ATOM     24  C   UNL     1     -10.973  -6.693  16.216  0.00  0.00    +0.000 A 
ATOM     25  C   UNL     1     -11.684  -5.662  16.829  0.00  0.00    +0.000 A 
ATOM     26  C   UNL     1     -10.989  -4.668  17.516  0.00  0.00    +0.000 A 
ATOM     27  C   UNL     1      -9.606  -4.751  17.686  0.00  0.00    +0.000 A 
ATOM     28  C   UNL     1      -8.902  -5.776  17.052  0.00  0.00    +0.000 A 
ATOM     29  H   UNL     1     -11.536  -7.444  15.669  0.00  0.00    +0.000 HD
ATOM     30  H   UNL     1     -12.767  -5.623  16.728  0.00  0.00    +0.000 HD
ATOM     31  H   UNL     1      -9.068  -4.005  18.266  0.00  0.00    +0.000 HD
ATOM     32  H   UNL     1      -7.817  -5.808  17.143  0.00  0.00    +0.000 HD
BRANCH  26  33
ATOM     33  S   UNL     1     -11.869  -3.229  18.085  0.00  0.00    +0.000 S 
ATOM     34  O   UNL     1     -12.901  -2.930  17.109  0.00  0.00    +0.000 OA
ATOM     35  O   UNL     1     -12.208  -3.442  19.477  0.00  0.00    +0.000 OA
BRANCH  33  36
ATOM     36  C   UNL     1     -10.662  -1.917  18.017  0.00  0.00    +0.000 A 
ATOM     37  C   UNL     1     -10.173  -1.359  19.202  0.00  0.00    +0.000 A 
ATOM     38  C   UNL     1      -9.274  -0.293  19.140  0.00  0.00    +0.000 A 
ATOM     39  C   UNL     1      -8.859   0.200  17.901  0.00  0.00    +0.000 A 
ATOM     40  C   UNL     1      -9.329  -0.379  16.721  0.00  0.00    +0.000 A 
ATOM     41  C   UNL     1     -10.231  -1.442  16.774  0.00  0.00    +0.000 A 
ATOM     42  H   UNL     1     -10.491  -1.736  20.171  0.00  0.00    +0.000 HD
ATOM     43  H   UNL     1      -8.895   0.157  20.054  0.00  0.00    +0.000 HD
ATOM     44  H   UNL     1      -8.163   1.035  17.854  0.00  0.00    +0.000 HD
ATOM     45  H   UNL     1      -8.996   0.003  15.758  0.00  0.00    +0.000 HD
ATOM     46  H   UNL     1     -10.595  -1.886  15.850  0.00  0.00    +0.000 HD
ENDBRANCH  33  36
ENDBRANCH  26  33
ENDBRANCH  20  23
ENDBRANCH  15  20
BRANCH   5  47
ATOM     47  O   UNL     1      -8.987 -14.993  14.526  0.00  0.00    +0.000 OA
ATOM     48  H   UNL     1      -9.747 -15.539  14.798  0.00  0.00    +0.000 HD
ENDBRANCH   5  47
BRANCH   6  49
ATOM     49  O   UNL     1      -9.072 -15.381  17.205  0.00  0.00    +0.000 OA
ATOM     50  H   UNL     1      -8.145 -15.667  17.339  0.00  0.00    +0.000 HD
ENDBRANCH   6  49
BRANCH  11  51
ATOM     51  O   UNL     1      -8.747  -9.656  21.636  0.00  0.00    +0.000 OA
ATOM     52  H   UNL     1      -9.426 -10.298  21.907  0.00  0.00    +0.000 HD
ENDBRANCH  11  51
BRANCH  12  53
ATOM     53  O   UNL     1      -8.701  -7.190  20.521  0.00  0.00    +0.000 OA
ATOM     54  H   UNL     1      -8.039  -6.600  20.110  0.00  0.00    +0.000 HD
ENDBRANCH  12  53
TORSDOF 8
ENDMDL
MODEL 4
REMARK VINA RESULT:   -10.034      1.264      4.401
REMARK INTER + INTRA:         -13.594
REMARK INTER:                 -13.595
REMARK INTRA:                   0.002
REMARK UNBOUND:                -0.041
REMARK  Name = 
REMARK  8 active torsions:
REMARK  status: ('A' for Active; 'I' for Inactive)
REMARK    1  A    between atoms: C_5  and  O_6
REMARK    2  A    between atoms: C_7  and  O_8
REMARK    3  A    between atoms: C_13  and  O_14
REMARK    4  A    between atoms: C_15  and  O_16
REMARK    5  A    between atoms: N_19  and  C_20
REMARK    6  A    between atoms: C_20  and  C_21
REMARK    7  A    between atoms: C_24  and  S_25
REMARK    8  A    between atoms: S_25  and  C_28
REMARK                            x       y       z     vdW  Elec       q    Type
REMARK                         _______ _______ _______ _____ _____    ______ ____
ROOT
ATOM      1  O   UNL     1      -7.347  -3.677  21.157  0.00  0.00    +0.000 OA
ATOM      2  C   UNL     1      -8.278  -2.941  21.485  0.00  0.00    +0.000 A 
ATOM      3  C   UNL     1      -8.566  -2.788  22.933  0.00  0.00    +0.000 A 
ATOM      4  C   UNL     1      -7.820  -3.566  23.844  0.00  0.00    +0.000 A 
ATOM      5  C   UNL     1      -8.071  -3.457  25.202  0.00  0.00    +0.000 A 
ATOM      6  C   UNL     1      -9.047  -2.583  25.653  0.00  0.00    +0.000 A 
ATOM      7  C   UNL     1      -9.789  -1.817  24.760  0.00  0.00    +0.000 A 
ATOM      8  C   UNL     1      -9.567  -1.902  23.368  0.00  0.00    +0.000 A 
ATOM      9  C   UNL     1     -10.329  -1.121  22.371  0.00  0.00    +0.000 A 
ATOM     10  C   UNL     1     -11.307  -0.170  22.755  0.00  0.00    +0.000 A 
ATOM     11  C   UNL     1     -12.021   0.546  21.804  0.00  0.00    +0.000 A 
ATOM     12  C   UNL     1     -11.779   0.338  20.460  0.00  0.00    +0.000 A 
ATOM     13  C   UNL     1     -10.817  -0.571  20.051  0.00  0.00    +0.000 A 
ATOM     14  C   UNL     1     -10.083  -1.321  20.986  0.00  0.00    +0.000 A 
ATOM     15  N   UNL     1      -9.076  -2.254  20.566  0.00  0.00    +0.000 N 
ATOM     16  H   UNL     1      -7.059  -4.247  23.475  0.00  0.00    +0.000 HD
ATOM     17  H   UNL     1     -10.542  -1.165  25.190  0.00  0.00    +0.000 HD
ATOM     18  H   UNL     1     -11.514   0.025  23.801  0.00  0.00    +0.000 HD
ATOM     19  H   UNL     1     -10.659  -0.648  18.984  0.00  0.00    +0.000 HD
ENDROOT
BRANCH  15  20
ATOM     20  C   UNL     1      -8.852  -2.557  19.140  0.00  0.00    +0.000 C 
ATOM     21  H   UNL     1      -7.789  -2.421  18.902  0.00  0.00    +0.000 HD
ATOM     22  H   UNL     1      -9.358  -1.832  18.496  0.00  0.00    +0.000 HD
BRANCH  20  23
ATOM     23  C   UNL     1      -9.242  -3.983  18.780  0.00  0.00    +0.000 A 
ATOM     24  C   UNL     1      -8.279  -4.999  18.680  0.00  0.00    +0.000 A 
ATOM     25  C   UNL     1      -8.613  -6.253  18.167  0.00  0.00    +0.000 A 
ATOM     26  C   UNL     1      -9.926  -6.500  17.769  0.00  0.00    +0.000 A 
ATOM     27  C   UNL     1     -10.926  -5.549  17.975  0.00  0.00    +0.000 A 
ATOM     28  C   UNL     1     -10.578  -4.291  18.470  0.00  0.00    +0.000 A 
ATOM     29  H   UNL     1      -7.246  -4.824  18.963  0.00  0.00    +0.000 HD
ATOM     30  H   UNL     1      -7.837  -7.006  18.045  0.00  0.00    +0.000 HD
ATOM     31  H   UNL     1     -11.960  -5.759  17.714  0.00  0.00    +0.000 HD
ATOM     32  H   UNL     1     -11.353  -3.533  18.581  0.00  0.00    +0.000 HD
BRANCH  26  33
ATOM     33  S   UNL     1     -10.297  -8.004  16.892  0.00  0.00    +0.000 S 
ATOM     34  O   UNL     1     -11.727  -8.233  16.998  0.00  0.00    +0.000 OA
ATOM     35  O   UNL     1      -9.656  -7.927  15.595  0.00  0.00    +0.000 OA
BRANCH  33  36
ATOM     36  C   UNL     1      -9.473  -9.278  17.829  0.00  0.00    +0.000 A 
ATOM     37  C   UNL     1      -9.090  -9.032  19.151  0.00  0.00    +0.000 A 
ATOM     38  C   UNL     1      -8.392 -10.012  19.859  0.00  0.00    +0.000 A 
ATOM     39  C   UNL     1      -8.093 -11.233  19.251  0.00  0.00    +0.000 A 
ATOM     40  C   UNL     1      -8.501 -11.483  17.939  0.00  0.00    +0.000 A 
ATOM     41  C   UNL     1      -9.196 -10.508  17.224  0.00  0.00    +0.000 A 
ATOM     42  H   UNL     1      -9.319  -8.084  19.633  0.00  0.00    +0.000 HD
ATOM     43  H   UNL     1      -8.080  -9.828  20.883  0.00  0.00    +0.000 HD
ATOM     44  H   UNL     1      -7.543 -11.994  19.801  0.00  0.00    +0.000 HD
ATOM     45  H   UNL     1      -8.274 -12.440  17.473  0.00  0.00    +0.000 HD
ATOM     46  H   UNL     1      -9.509 -10.710  16.201  0.00  0.00    +0.000 HD
ENDBRANCH  33  36
ENDBRANCH  26  33
ENDBRANCH  20  23
ENDBRANCH  15  20
BRANCH   5  47
ATOM     47  O   UNL     1      -7.389  -4.189  26.132  0.00  0.00    +0.000 OA
ATOM     48  H   UNL     1      -6.447  -3.947  26.084  0.00  0.00    +0.000 HD
ENDBRANCH   5  47
BRANCH   6  49
ATOM     49  O   UNL     1      -9.293  -2.465  26.991  0.00  0.00    +0.000 OA
ATOM     50  H   UNL     1      -8.556  -1.920  27.333  0.00  0.00    +0.000 HD
ENDBRANCH   6  49
BRANCH  11  51
ATOM     51  O   UNL     1     -12.967   1.474  22.142  0.00  0.00    +0.000 OA
ATOM     52  H   UNL     1     -13.672   1.458  21.470  0.00  0.00    +0.000 HD
ENDBRANCH  11  51
BRANCH  12  53
ATOM     53  O   UNL     1     -12.473   1.037  19.517  0.00  0.00    +0.000 OA
ATOM     54  H   UNL     1     -12.250   1.974  19.686  0.00  0.00    +0.000 HD
ENDBRANCH  12  53
TORSDOF 8
ENDMDL
MODEL 5
REMARK VINA RESULT:    -9.911      1.639      4.043
REMARK INTER + INTRA:         -13.428
REMARK INTER:                 -15.552
REMARK INTRA:                   2.124
REMARK UNBOUND:                -0.041
REMARK  Name = 
REMARK  8 active torsions:
REMARK  status: ('A' for Active; 'I' for Inactive)
REMARK    1  A    between atoms: C_5  and  O_6
REMARK    2  A    between atoms: C_7  and  O_8
REMARK    3  A    between atoms: C_13  and  O_14
REMARK    4  A    between atoms: C_15  and  O_16
REMARK    5  A    between atoms: N_19  and  C_20
REMARK    6  A    between atoms: C_20  and  C_21
REMARK    7  A    between atoms: C_24  and  S_25
REMARK    8  A    between atoms: S_25  and  C_28
REMARK                            x       y       z     vdW  Elec       q    Type
REMARK                         _______ _______ _______ _____ _____    ______ ____
ROOT
ATOM      1  O   UNL     1      -6.793  -3.985  22.329  0.00  0.00    +0.000 OA
ATOM      2  C   UNL     1      -7.710  -3.580  21.614  0.00  0.00    +0.000 A 
ATOM      3  C   UNL     1      -8.453  -2.372  22.053  0.00  0.00    +0.000 A 
ATOM      4  C   UNL     1      -8.130  -1.814  23.309  0.00  0.00    +0.000 A 
ATOM      5  C   UNL     1      -8.811  -0.695  23.755  0.00  0.00    +0.000 A 
ATOM      6  C   UNL     1      -9.799  -0.130  22.964  0.00  0.00    +0.000 A 
ATOM      7  C   UNL     1     -10.126  -0.677  21.728  0.00  0.00    +0.000 A 
ATOM      8  C   UNL     1      -9.457  -1.821  21.239  0.00  0.00    +0.000 A 
ATOM      9  C   UNL     1      -9.766  -2.454  19.939  0.00  0.00    +0.000 A 
ATOM     10  C   UNL     1     -10.725  -1.906  19.051  0.00  0.00    +0.000 A 
ATOM     11  C   UNL     1     -11.011  -2.521  17.839  0.00  0.00    +0.000 A 
ATOM     12  C   UNL     1     -10.351  -3.680  17.482  0.00  0.00    +0.000 A 
ATOM     13  C   UNL     1      -9.393  -4.231  18.319  0.00  0.00    +0.000 A 
ATOM     14  C   UNL     1      -9.088  -3.642  19.557  0.00  0.00    +0.000 A 
ATOM     15  N   UNL     1      -8.087  -4.203  20.421  0.00  0.00    +0.000 N 
ATOM     16  H   UNL     1      -7.353  -2.269  23.918  0.00  0.00    +0.000 HD
ATOM     17  H   UNL     1     -10.917  -0.185  21.173  0.00  0.00    +0.000 HD
ATOM     18  H   UNL     1     -11.254  -0.992  19.295  0.00  0.00    +0.000 HD
ATOM     19  H   UNL     1      -8.894  -5.116  17.951  0.00  0.00    +0.000 HD
ENDROOT
BRANCH  15  20
ATOM     20  C   UNL     1      -7.425  -5.483  20.105  0.00  0.00    +0.000 C 
ATOM     21  H   UNL     1      -7.419  -6.120  21.000  0.00  0.00    +0.000 HD
ATOM     22  H   UNL     1      -6.364  -5.336  19.884  0.00  0.00    +0.000 HD
BRANCH  20  23
ATOM     23  C   UNL     1      -8.125  -6.239  18.986  0.00  0.00    +0.000 A 
ATOM     24  C   UNL     1      -9.283  -6.994  19.230  0.00  0.00    +0.000 A 
ATOM     25  C   UNL     1      -9.808  -7.834  18.248  0.00  0.00    +0.000 A 
ATOM     26  C   UNL     1      -9.183  -7.906  17.005  0.00  0.00    +0.000 A 
ATOM     27  C   UNL     1      -8.107  -7.073  16.697  0.00  0.00    +0.000 A 
ATOM     28  C   UNL     1      -7.576  -6.250  17.692  0.00  0.00    +0.000 A 
ATOM     29  H   UNL     1      -9.775  -6.972  20.197  0.00  0.00    +0.000 HD
ATOM     30  H   UNL     1     -10.673  -8.453  18.479  0.00  0.00    +0.000 HD
ATOM     31  H   UNL     1      -7.651  -7.089  15.711  0.00  0.00    +0.000 HD
ATOM     32  H   UNL     1      -6.703  -5.639  17.465  0.00  0.00    +0.000 HD
BRANCH  26  33
ATOM     33  S   UNL     1      -9.702  -9.151  15.843  0.00  0.00    +0.000 S 
ATOM     34  O   UNL     1     -11.152  -9.201  15.870  0.00  0.00    +0.000 OA
ATOM     35  O   UNL     1      -8.994  -8.917  14.601  0.00  0.00    +0.000 OA
BRANCH  33  36
ATOM     36  C   UNL     1      -9.094 -10.680  16.533  0.00  0.00    +0.000 A 
ATOM     37  C   UNL     1      -8.867 -11.778  15.698  0.00  0.00    +0.000 A 
ATOM     38  C   UNL     1      -8.448 -12.989  16.253  0.00  0.00    +0.000 A 
ATOM     39  C   UNL     1      -8.245 -13.093  17.630  0.00  0.00    +0.000 A 
ATOM     40  C   UNL     1      -8.447 -11.985  18.456  0.00  0.00    +0.000 A 
ATOM     41  C   UNL     1      -8.869 -10.773  17.909  0.00  0.00    +0.000 A 
ATOM     42  H   UNL     1      -9.022 -11.707  14.623  0.00  0.00    +0.000 HD
ATOM     43  H   UNL     1      -8.280 -13.853  15.615  0.00  0.00    +0.000 HD
ATOM     44  H   UNL     1      -7.925 -14.039  18.063  0.00  0.00    +0.000 HD
ATOM     45  H   UNL     1      -8.279 -12.069  19.527  0.00  0.00    +0.000 HD
ATOM     46  H   UNL     1      -9.026  -9.915  18.560  0.00  0.00    +0.000 HD
ENDBRANCH  33  36
ENDBRANCH  26  33
ENDBRANCH  20  23
ENDBRANCH  15  20
BRANCH   5  47
ATOM     47  O   UNL     1      -8.551  -0.114  24.963  0.00  0.00    +0.000 OA
ATOM     48  H   UNL     1      -9.227   0.569  25.129  0.00  0.00    +0.000 HD
ENDBRANCH   5  47
BRANCH   6  49
ATOM     49  O   UNL     1     -10.469   0.979  23.395  0.00  0.00    +0.000 OA
ATOM     50  H   UNL     1     -10.424   1.604  22.643  0.00  0.00    +0.000 HD
ENDBRANCH   6  49
BRANCH  11  51
ATOM     51  O   UNL     1     -11.927  -2.016  16.958  0.00  0.00    +0.000 OA
ATOM     52  H   UNL     1     -11.450  -1.596  16.221  0.00  0.00    +0.000 HD
ENDBRANCH  11  51
BRANCH  12  53
ATOM     53  O   UNL     1     -10.621  -4.291  16.293  0.00  0.00    +0.000 OA
ATOM     54  H   UNL     1     -11.548  -4.595  16.373  0.00  0.00    +0.000 HD
ENDBRANCH  12  53
TORSDOF 8
ENDMDL
MODEL 6
REMARK VINA RESULT:    -9.811      3.542      5.157
REMARK INTER + INTRA:         -13.292
REMARK INTER:                 -12.535
REMARK INTRA:                  -0.757
REMARK UNBOUND:                -0.041
REMARK  Name = 
REMARK  8 active torsions:
REMARK  status: ('A' for Active; 'I' for Inactive)
REMARK    1  A    between atoms: C_5  and  O_6
REMARK    2  A    between atoms: C_7  and  O_8
REMARK    3  A    between atoms: C_13  and  O_14
REMARK    4  A    between atoms: C_15  and  O_16
REMARK    5  A    between atoms: N_19  and  C_20
REMARK    6  A    between atoms: C_20  and  C_21
REMARK    7  A    between atoms: C_24  and  S_25
REMARK    8  A    between atoms: S_25  and  C_28
REMARK                            x       y       z     vdW  Elec       q    Type
REMARK                         _______ _______ _______ _____ _____    ______ ____
ROOT
ATOM      1  O   UNL     1     -10.050  -2.844  13.454  0.00  0.00    +0.000 OA
ATOM      2  C   UNL     1     -10.088  -2.509  14.638  0.00  0.00    +0.000 A 
ATOM      3  C   UNL     1      -9.340  -1.292  15.041  0.00  0.00    +0.000 A 
ATOM      4  C   UNL     1      -8.554  -0.643  14.065  0.00  0.00    +0.000 A 
ATOM      5  C   UNL     1      -7.833   0.488  14.410  0.00  0.00    +0.000 A 
ATOM      6  C   UNL     1      -7.895   0.975  15.706  0.00  0.00    +0.000 A 
ATOM      7  C   UNL     1      -8.664   0.337  16.674  0.00  0.00    +0.000 A 
ATOM      8  C   UNL     1      -9.410  -0.821  16.364  0.00  0.00    +0.000 A 
ATOM      9  C   UNL     1     -10.237  -1.548  17.351  0.00  0.00    +0.000 A 
ATOM     10  C   UNL     1     -10.392  -1.085  18.681  0.00  0.00    +0.000 A 
ATOM     11  C   UNL     1     -11.163  -1.787  19.598  0.00  0.00    +0.000 A 
ATOM     12  C   UNL     1     -11.797  -2.953  19.214  0.00  0.00    +0.000 A 
ATOM     13  C   UNL     1     -11.682  -3.423  17.916  0.00  0.00    +0.000 A 
ATOM     14  C   UNL     1     -10.900  -2.744  16.966  0.00  0.00    +0.000 A 
ATOM     15  N   UNL     1     -10.789  -3.221  15.616  0.00  0.00    +0.000 N 
ATOM     16  H   UNL     1      -8.515  -1.037  13.054  0.00  0.00    +0.000 HD
ATOM     17  H   UNL     1      -8.652   0.772  17.668  0.00  0.00    +0.000 HD
ATOM     18  H   UNL     1      -9.916  -0.169  19.012  0.00  0.00    +0.000 HD
ATOM     19  H   UNL     1     -12.240  -4.319  17.684  0.00  0.00    +0.000 HD
ENDROOT
BRANCH  15  20
ATOM     20  C   UNL     1     -11.387  -4.503  15.200  0.00  0.00    +0.000 C 
ATOM     21  H   UNL     1     -11.209  -4.656  14.127  0.00  0.00    +0.000 HD
ATOM     22  H   UNL     1     -12.477  -4.478  15.281  0.00  0.00    +0.000 HD
BRANCH  20  23
ATOM     23  C   UNL     1     -10.802  -5.689  15.953  0.00  0.00    +0.000 A 
ATOM     24  C   UNL     1     -11.615  -6.543  16.713  0.00  0.00    +0.000 A 
ATOM     25  C   UNL     1     -11.055  -7.508  17.551  0.00  0.00    +0.000 A 
ATOM     26  C   UNL     1      -9.668  -7.633  17.613  0.00  0.00    +0.000 A 
ATOM     27  C   UNL     1      -8.843  -6.882  16.775  0.00  0.00    +0.000 A 
ATOM     28  C   UNL     1      -9.413  -5.906  15.955  0.00  0.00    +0.000 A 
ATOM     29  H   UNL     1     -12.697  -6.450  16.698  0.00  0.00    +0.000 HD
ATOM     30  H   UNL     1     -11.703  -8.120  18.174  0.00  0.00    +0.000 HD
ATOM     31  H   UNL     1      -7.765  -7.016  16.785  0.00  0.00    +0.000 HD
ATOM     32  H   UNL     1      -8.762  -5.285  15.341  0.00  0.00    +0.000 HD
BRANCH  26  33
ATOM     33  S   UNL     1      -8.948  -8.687  18.855  0.00  0.00    +0.000 S 
ATOM     34  O   UNL     1      -7.608  -8.197  19.124  0.00  0.00    +0.000 OA
ATOM     35  O   UNL     1      -9.912  -8.826  19.927  0.00  0.00    +0.000 OA
BRANCH  33  36
ATOM     36  C   UNL     1      -8.794 -10.273  18.055  0.00  0.00    +0.000 A 
ATOM     37  C   UNL     1      -8.381 -11.387  18.792  0.00  0.00    +0.000 A 
ATOM     38  C   UNL     1      -8.206 -12.612  18.146  0.00  0.00    +0.000 A 
ATOM     39  C   UNL     1      -8.457 -12.722  16.777  0.00  0.00    +0.000 A 
ATOM     40  C   UNL     1      -8.896 -11.613  16.051  0.00  0.00    +0.000 A 
ATOM     41  C   UNL     1      -9.070 -10.385  16.689  0.00  0.00    +0.000 A 
ATOM     42  H   UNL     1      -8.183 -11.311  19.859  0.00  0.00    +0.000 HD
ATOM     43  H   UNL     1      -7.874 -13.483  18.706  0.00  0.00    +0.000 HD
ATOM     44  H   UNL     1      -8.314 -13.676  16.273  0.00  0.00    +0.000 HD
ATOM     45  H   UNL     1      -9.099 -11.707  14.987  0.00  0.00    +0.000 HD
ATOM     46  H   UNL     1      -9.410  -9.524  16.115  0.00  0.00    +0.000 HD
ENDBRANCH  33  36
ENDBRANCH  26  33
ENDBRANCH  20  23
ENDBRANCH  15  20
BRANCH   5  47
ATOM     47  O   UNL     1      -7.048   1.156  13.514  0.00  0.00    +0.000 OA
ATOM     48  H   UNL     1      -6.306   0.577  13.264  0.00  0.00    +0.000 HD
ENDBRANCH   5  47
BRANCH   6  49
ATOM     49  O   UNL     1      -7.194   2.095  16.050  0.00  0.00    +0.000 OA
ATOM     50  H   UNL     1      -7.020   1.995  17.009  0.00  0.00    +0.000 HD
ENDBRANCH   6  49
BRANCH  11  51
ATOM     51  O   UNL     1     -11.337  -1.365  20.886  0.00  0.00    +0.000 OA
ATOM     52  H   UNL     1     -12.289  -1.360  21.086  0.00  0.00    +0.000 HD
ENDBRANCH  11  51
BRANCH  12  53
ATOM     53  O   UNL     1     -12.559  -3.649  20.105  0.00  0.00    +0.000 OA
ATOM     54  H   UNL     1     -12.571  -4.565  19.762  0.00  0.00    +0.000 HD
ENDBRANCH  12  53
TORSDOF 8
ENDMDL
MODEL 7
REMARK VINA RESULT:    -9.798      4.275      8.080
REMARK INTER + INTRA:         -13.276
REMARK INTER:                 -11.990
REMARK INTRA:                  -1.286
REMARK UNBOUND:                -0.041
REMARK  Name = 
REMARK  8 active torsions:
REMARK  status: ('A' for Active; 'I' for Inactive)
REMARK    1  A    between atoms: C_5  and  O_6
REMARK    2  A    between atoms: C_7  and  O_8
REMARK    3  A    between atoms: C_13  and  O_14
REMARK    4  A    between atoms: C_15  and  O_16
REMARK    5  A    between atoms: N_19  and  C_20
REMARK    6  A    between atoms: C_20  and  C_21
REMARK    7  A    between atoms: C_24  and  S_25
REMARK    8  A    between atoms: S_25  and  C_28
REMARK                            x       y       z     vdW  Elec       q    Type
REMARK                         _______ _______ _______ _____ _____    ______ ____
ROOT
ATOM      1  O   UNL     1      -9.080  -2.647  20.834  0.00  0.00    +0.000 OA
ATOM      2  C   UNL     1      -8.890  -3.586  20.061  0.00  0.00    +0.000 A 
ATOM      3  C   UNL     1      -7.553  -4.231  20.065  0.00  0.00    +0.000 A 
ATOM      4  C   UNL     1      -6.549  -3.671  20.885  0.00  0.00    +0.000 A 
ATOM      5  C   UNL     1      -5.287  -4.240  20.904  0.00  0.00    +0.000 A 
ATOM      6  C   UNL     1      -5.022  -5.355  20.124  0.00  0.00    +0.000 A 
ATOM      7  C   UNL     1      -6.006  -5.908  19.310  0.00  0.00    +0.000 A 
ATOM      8  C   UNL     1      -7.304  -5.355  19.259  0.00  0.00    +0.000 A 
ATOM      9  C   UNL     1      -8.387  -5.891  18.408  0.00  0.00    +0.000 A 
ATOM     10  C   UNL     1      -8.211  -7.057  17.621  0.00  0.00    +0.000 A 
ATOM     11  C   UNL     1      -9.235  -7.541  16.818  0.00  0.00    +0.000 A 
ATOM     12  C   UNL     1     -10.450  -6.884  16.783  0.00  0.00    +0.000 A 
ATOM     13  C   UNL     1     -10.662  -5.753  17.554  0.00  0.00    +0.000 A 
ATOM     14  C   UNL     1      -9.643  -5.230  18.369  0.00  0.00    +0.000 A 
ATOM     15  N   UNL     1      -9.863  -4.065  19.179  0.00  0.00    +0.000 N 
ATOM     16  H   UNL     1      -6.772  -2.798  21.491  0.00  0.00    +0.000 HD
ATOM     17  H   UNL     1      -5.718  -6.772  18.721  0.00  0.00    +0.000 HD
ATOM     18  H   UNL     1      -7.274  -7.602  17.633  0.00  0.00    +0.000 HD
ATOM     19  H   UNL     1     -11.651  -5.320  17.502  0.00  0.00    +0.000 HD
ENDROOT
BRANCH  15  20
ATOM     20  C   UNL     1     -11.120  -3.297  19.101  0.00  0.00    +0.000 C 
ATOM     21  H   UNL     1     -11.238  -2.698  20.015  0.00  0.00    +0.000 HD
ATOM     22  H   UNL     1     -11.991  -3.959  19.111  0.00  0.00    +0.000 HD
BRANCH  20  23
ATOM     23  C   UNL     1     -11.153  -2.355  17.906  0.00  0.00    +0.000 A 
ATOM     24  C   UNL     1     -12.226  -2.361  17.002  0.00  0.00    +0.000 A 
ATOM     25  C   UNL     1     -12.163  -1.637  15.812  0.00  0.00    +0.000 A 
ATOM     26  C   UNL     1     -11.024  -0.884  15.531  0.00  0.00    +0.000 A 
ATOM     27  C   UNL     1      -9.998  -0.763  16.470  0.00  0.00    +0.000 A 
ATOM     28  C   UNL     1     -10.062  -1.507  17.649  0.00  0.00    +0.000 A 
ATOM     29  H   UNL     1     -13.115  -2.957  17.188  0.00  0.00    +0.000 HD
ATOM     30  H   UNL     1     -12.983  -1.703  15.100  0.00  0.00    +0.000 HD
ATOM     31  H   UNL     1      -9.133  -0.134  16.275  0.00  0.00    +0.000 HD
ATOM     32  H   UNL     1      -9.235  -1.451  18.356  0.00  0.00    +0.000 HD
BRANCH  26  33
ATOM     33  S   UNL     1     -10.838  -0.162  13.914  0.00  0.00    +0.000 S 
ATOM     34  O   UNL     1     -11.711   0.995  13.847  0.00  0.00    +0.000 OA
ATOM     35  O   UNL     1      -9.419  -0.033  13.651  0.00  0.00    +0.000 OA
BRANCH  33  36
ATOM     36  C   UNL     1     -11.486  -1.397  12.802  0.00  0.00    +0.000 A 
ATOM     37  C   UNL     1     -12.730  -1.201  12.195  0.00  0.00    +0.000 A 
ATOM     38  C   UNL     1     -13.257  -2.198  11.372  0.00  0.00    +0.000 A 
ATOM     39  C   UNL     1     -12.537  -3.373  11.149  0.00  0.00    +0.000 A 
ATOM     40  C   UNL     1     -11.284  -3.552  11.737  0.00  0.00    +0.000 A 
ATOM     41  C   UNL     1     -10.751  -2.562  12.563  0.00  0.00    +0.000 A 
ATOM     42  H   UNL     1     -13.298  -0.288  12.362  0.00  0.00    +0.000 HD
ATOM     43  H   UNL     1     -14.228  -2.063  10.903  0.00  0.00    +0.000 HD
ATOM     44  H   UNL     1     -12.952  -4.153  10.513  0.00  0.00    +0.000 HD
ATOM     45  H   UNL     1     -10.723  -4.466  11.553  0.00  0.00    +0.000 HD
ATOM     46  H   UNL     1      -9.774  -2.709  13.019  0.00  0.00    +0.000 HD
ENDBRANCH  33  36
ENDBRANCH  26  33
ENDBRANCH  20  23
ENDBRANCH  15  20
BRANCH   5  47
ATOM     47  O   UNL     1      -4.272  -3.741  21.669  0.00  0.00    +0.000 OA
ATOM     48  H   UNL     1      -4.366  -4.092  22.573  0.00  0.00    +0.000 HD
ENDBRANCH   5  47
BRANCH   6  49
ATOM     49  O   UNL     1      -3.782  -5.925  20.145  0.00  0.00    +0.000 OA
ATOM     50  H   UNL     1      -3.168  -5.192  19.936  0.00  0.00    +0.000 HD
ENDBRANCH   6  49
BRANCH  11  51
ATOM     51  O   UNL     1      -9.099  -8.664  16.052  0.00  0.00    +0.000 OA
ATOM     52  H   UNL     1      -8.337  -9.174  16.380  0.00  0.00    +0.000 HD
ENDBRANCH  11  51
BRANCH  12  53
ATOM     53  O   UNL     1     -11.465  -7.351  16.000  0.00  0.00    +0.000 OA
ATOM     54  H   UNL     1     -12.071  -7.803  16.620  0.00  0.00    +0.000 HD
ENDBRANCH  12  53
TORSDOF 8
ENDMDL
MODEL 8
REMARK VINA RESULT:    -9.652      3.978      5.832
REMARK INTER + INTRA:         -13.078
REMARK INTER:                 -12.342
REMARK INTRA:                  -0.735
REMARK UNBOUND:                -0.041
REMARK  Name = 
REMARK  8 active torsions:
REMARK  status: ('A' for Active; 'I' for Inactive)
REMARK    1  A    between atoms: C_5  and  O_6
REMARK    2  A    between atoms: C_7  and  O_8
REMARK    3  A    between atoms: C_13  and  O_14
REMARK    4  A    between atoms: C_15  and  O_16
REMARK    5  A    between atoms: N_19  and  C_20
REMARK    6  A    between atoms: C_20  and  C_21
REMARK    7  A    between atoms: C_24  and  S_25
REMARK    8  A    between atoms: S_25  and  C_28
REMARK                            x       y       z     vdW  Elec       q    Type
REMARK                         _______ _______ _______ _____ _____    ______ ____
ROOT
ATOM      1  O   UNL     1     -11.839  -3.968  15.108  0.00  0.00    +0.000 OA
ATOM      2  C   UNL     1     -11.072  -3.075  15.472  0.00  0.00    +0.000 A 
ATOM      3  C   UNL     1     -10.329  -2.328  14.427  0.00  0.00    +0.000 A 
ATOM      4  C   UNL     1     -10.470  -2.745  13.086  0.00  0.00    +0.000 A 
ATOM      5  C   UNL     1      -9.781  -2.079  12.086  0.00  0.00    +0.000 A 
ATOM      6  C   UNL     1      -8.965  -1.007  12.410  0.00  0.00    +0.000 A 
ATOM      7  C   UNL     1      -8.817  -0.594  13.731  0.00  0.00    +0.000 A 
ATOM      8  C   UNL     1      -9.499  -1.249  14.779  0.00  0.00    +0.000 A 
ATOM      9  C   UNL     1      -9.375  -0.863  16.201  0.00  0.00    +0.000 A 
ATOM     10  C   UNL     1      -8.602   0.253  16.607  0.00  0.00    +0.000 A 
ATOM     11  C   UNL     1      -8.487   0.594  17.948  0.00  0.00    +0.000 A 
ATOM     12  C   UNL     1      -9.138  -0.157  18.907  0.00  0.00    +0.000 A 
ATOM     13  C   UNL     1      -9.918  -1.243  18.543  0.00  0.00    +0.000 A 
ATOM     14  C   UNL     1     -10.046  -1.623  17.196  0.00  0.00    +0.000 A 
ATOM     15  N   UNL     1     -10.864  -2.740  16.813  0.00  0.00    +0.000 N 
ATOM     16  H   UNL     1     -11.113  -3.588  12.847  0.00  0.00    +0.000 HD
ATOM     17  H   UNL     1      -8.152   0.245  13.905  0.00  0.00    +0.000 HD
ATOM     18  H   UNL     1      -8.086   0.869  15.879  0.00  0.00    +0.000 HD
ATOM     19  H   UNL     1     -10.426  -1.755  19.348  0.00  0.00    +0.000 HD
ENDROOT
BRANCH  15  20
ATOM     20  C   UNL     1     -11.505  -3.608  17.819  0.00  0.00    +0.000 C 
ATOM     21  H   UNL     1     -12.532  -3.833  17.504  0.00  0.00    +0.000 HD
ATOM     22  H   UNL     1     -11.633  -3.084  18.770  0.00  0.00    +0.000 HD
BRANCH  20  23
ATOM     23  C   UNL     1     -10.765  -4.924  18.006  0.00  0.00    +0.000 A 
ATOM     24  C   UNL     1     -11.433  -6.155  17.924  0.00  0.00    +0.000 A 
ATOM     25  C   UNL     1     -10.795  -7.342  18.283  0.00  0.00    +0.000 A 
ATOM     26  C   UNL     1      -9.468  -7.300  18.709  0.00  0.00    +0.000 A 
ATOM     27  C   UNL     1      -8.745  -6.108  18.680  0.00  0.00    +0.000 A 
ATOM     28  C   UNL     1      -9.398  -4.922  18.338  0.00  0.00    +0.000 A 
ATOM     29  H   UNL     1     -12.473  -6.210  17.616  0.00  0.00    +0.000 HD
ATOM     30  H   UNL     1     -11.351  -8.276  18.266  0.00  0.00    +0.000 HD
ATOM     31  H   UNL     1      -7.695  -6.083  18.962  0.00  0.00    +0.000 HD
ATOM     32  H   UNL     1      -8.845  -3.985  18.367  0.00  0.00    +0.000 HD
BRANCH  26  33
ATOM     33  S   UNL     1      -8.732  -8.768  19.398  0.00  0.00    +0.000 S 
ATOM     34  O   UNL     1      -7.326  -8.490  19.626  0.00  0.00    +0.000 OA
ATOM     35  O   UNL     1      -9.581  -9.219  20.482  0.00  0.00    +0.000 OA
BRANCH  33  36
ATOM     36  C   UNL     1      -8.841  -9.974  18.088  0.00  0.00    +0.000 A 
ATOM     37  C   UNL     1      -8.554 -11.317  18.353  0.00  0.00    +0.000 A 
ATOM     38  C   UNL     1      -8.584 -12.244  17.310  0.00  0.00    +0.000 A 
ATOM     39  C   UNL     1      -8.911 -11.832  16.017  0.00  0.00    +0.000 A 
ATOM     40  C   UNL     1      -9.222 -10.495  15.763  0.00  0.00    +0.000 A 
ATOM     41  C   UNL     1      -9.192  -9.561  16.799  0.00  0.00    +0.000 A 
ATOM     42  H   UNL     1      -8.299 -11.647  19.357  0.00  0.00    +0.000 HD
ATOM     43  H   UNL     1      -8.352 -13.289  17.501  0.00  0.00    +0.000 HD
ATOM     44  H   UNL     1      -8.927 -12.554  15.203  0.00  0.00    +0.000 HD
ATOM     45  H   UNL     1      -9.486 -10.180  14.756  0.00  0.00    +0.000 HD
ATOM     46  H   UNL     1      -9.434  -8.520  16.593  0.00  0.00    +0.000 HD
ENDBRANCH  33  36
ENDBRANCH  26  33
ENDBRANCH  20  23
ENDBRANCH  15  20
BRANCH   5  47
ATOM     47  O   UNL     1      -9.869  -2.440  10.772  0.00  0.00    +0.000 OA
ATOM     48  H   UNL     1     -10.252  -1.695  10.274  0.00  0.00    +0.000 HD
ENDBRANCH   5  47
BRANCH   6  49
ATOM     49  O   UNL     1      -8.289  -0.340  11.429  0.00  0.00    +0.000 OA
ATOM     50  H   UNL     1      -8.643   0.572  11.459  0.00  0.00    +0.000 HD
ENDBRANCH   6  49
BRANCH  11  51
ATOM     51  O   UNL     1      -7.754   1.666  18.372  0.00  0.00    +0.000 OA
ATOM     52  H   UNL     1      -7.169   1.950  17.647  0.00  0.00    +0.000 HD
ENDBRANCH  11  51
BRANCH  12  53
ATOM     53  O   UNL     1      -9.035   0.170  20.227  0.00  0.00    +0.000 OA
ATOM     54  H   UNL     1      -9.714  -0.374  20.673  0.00  0.00    +0.000 HD
ENDBRANCH  12  53
TORSDOF 8
ENDMDL
MODEL 9
REMARK VINA RESULT:    -9.590      5.976      8.822
REMARK INTER + INTRA:         -12.995
REMARK INTER:                 -12.579
REMARK INTRA:                  -0.415
REMARK UNBOUND:                -0.041
REMARK  Name = 
REMARK  8 active torsions:
REMARK  status: ('A' for Active; 'I' for Inactive)
REMARK    1  A    between atoms: C_5  and  O_6
REMARK    2  A    between atoms: C_7  and  O_8
REMARK    3  A    between atoms: C_13  and  O_14
REMARK    4  A    between atoms: C_15  and  O_16
REMARK    5  A    between atoms: N_19  and  C_20
REMARK    6  A    between atoms: C_20  and  C_21
REMARK    7  A    between atoms: C_24  and  S_25
REMARK    8  A    between atoms: S_25  and  C_28
REMARK                            x       y       z     vdW  Elec       q    Type
REMARK                         _______ _______ _______ _____ _____    ______ ____
ROOT
ATOM      1  O   UNL     1      -9.855  -1.711  15.490  0.00  0.00    +0.000 OA
ATOM      2  C   UNL     1      -9.840  -1.682  14.259  0.00  0.00    +0.000 A 
ATOM      3  C   UNL     1      -8.859  -0.787  13.596  0.00  0.00    +0.000 A 
ATOM      4  C   UNL     1      -8.066   0.049  14.412  0.00  0.00    +0.000 A 
ATOM      5  C   UNL     1      -7.149   0.905  13.826  0.00  0.00    +0.000 A 
ATOM      6  C   UNL     1      -7.015   0.930  12.447  0.00  0.00    +0.000 A 
ATOM      7  C   UNL     1      -7.797   0.113  11.637  0.00  0.00    +0.000 A 
ATOM      8  C   UNL     1      -8.746  -0.771  12.195  0.00  0.00    +0.000 A 
ATOM      9  C   UNL     1      -9.612  -1.656  11.387  0.00  0.00    +0.000 A 
ATOM     10  C   UNL     1      -9.499  -1.726   9.976  0.00  0.00    +0.000 A 
ATOM     11  C   UNL     1     -10.328  -2.554   9.232  0.00  0.00    +0.000 A 
ATOM     12  C   UNL     1     -11.277  -3.329   9.868  0.00  0.00    +0.000 A 
ATOM     13  C   UNL     1     -11.401  -3.300  11.248  0.00  0.00    +0.000 A 
ATOM     14  C   UNL     1     -10.586  -2.464  12.031  0.00  0.00    +0.000 A 
ATOM     15  N   UNL     1     -10.703  -2.440  13.462  0.00  0.00    +0.000 N 
ATOM     16  H   UNL     1      -8.183   0.018  15.491  0.00  0.00    +0.000 HD
ATOM     17  H   UNL     1      -7.641   0.199  10.567  0.00  0.00    +0.000 HD
ATOM     18  H   UNL     1      -8.758  -1.137   9.446  0.00  0.00    +0.000 HD
ATOM     19  H   UNL     1     -12.139  -3.964  11.673  0.00  0.00    +0.000 HD
ENDROOT
BRANCH  15  20
ATOM     20  C   UNL     1     -11.759  -3.195  14.163  0.00  0.00    +0.000 C 
ATOM     21  H   UNL     1     -12.486  -3.569  13.429  0.00  0.00    +0.000 HD
ATOM     22  H   UNL     1     -12.353  -2.540  14.807  0.00  0.00    +0.000 HD
BRANCH  20  23
ATOM     23  C   UNL     1     -11.208  -4.383  14.937  0.00  0.00    +0.000 A 
ATOM     24  C   UNL     1     -11.874  -4.892  16.062  0.00  0.00    +0.000 A 
ATOM     25  C   UNL     1     -11.272  -5.852  16.876  0.00  0.00    +0.000 A 
ATOM     26  C   UNL     1     -10.000  -6.322  16.551  0.00  0.00    +0.000 A 
ATOM     27  C   UNL     1      -9.371  -5.924  15.371  0.00  0.00    +0.000 A 
ATOM     28  C   UNL     1      -9.973  -4.949  14.573  0.00  0.00    +0.000 A 
ATOM     29  H   UNL     1     -12.855  -4.526  16.348  0.00  0.00    +0.000 HD
ATOM     30  H   UNL     1     -11.783  -6.190  17.775  0.00  0.00    +0.000 HD
ATOM     31  H   UNL     1      -8.403  -6.329  15.089  0.00  0.00    +0.000 HD
ATOM     32  H   UNL     1      -9.455  -4.601  13.680  0.00  0.00    +0.000 HD
BRANCH  26  33
ATOM     33  S   UNL     1      -9.134  -7.355  17.714  0.00  0.00    +0.000 S 
ATOM     34  O   UNL     1      -7.748  -6.925  17.737  0.00  0.00    +0.000 OA
ATOM     35  O   UNL     1      -9.915  -7.396  18.933  0.00  0.00    +0.000 OA
BRANCH  33  36
ATOM     36  C   UNL     1      -9.184  -8.982  16.983  0.00  0.00    +0.000 A 
ATOM     37  C   UNL     1      -8.870 -10.102  17.758  0.00  0.00    +0.000 A 
ATOM     38  C   UNL     1      -8.854 -11.366  17.164  0.00  0.00    +0.000 A 
ATOM     39  C   UNL     1      -9.163 -11.505  15.810  0.00  0.00    +0.000 A 
ATOM     40  C   UNL     1      -9.502 -10.386  15.048  0.00  0.00    +0.000 A 
ATOM     41  C   UNL     1      -9.518  -9.120  15.632  0.00  0.00    +0.000 A 
ATOM     42  H   UNL     1      -8.628 -10.003  18.814  0.00  0.00    +0.000 HD
ATOM     43  H   UNL     1      -8.601 -12.243  17.754  0.00  0.00    +0.000 HD
ATOM     44  H   UNL     1      -9.144 -12.490  15.347  0.00  0.00    +0.000 HD
ATOM     45  H   UNL     1      -9.751 -10.501  13.995  0.00  0.00    +0.000 HD
ATOM     46  H   UNL     1      -9.781  -8.252  15.031  0.00  0.00    +0.000 HD
ENDBRANCH  33  36
ENDBRANCH  26  33
ENDBRANCH  20  23
ENDBRANCH  15  20
BRANCH   5  47
ATOM     47  O   UNL     1      -6.360   1.743  14.560  0.00  0.00    +0.000 OA
ATOM     48  H   UNL     1      -6.134   1.300  15.397  0.00  0.00    +0.000 HD
ENDBRANCH   5  47
BRANCH   6  49
ATOM     49  O   UNL     1      -6.107   1.767  11.863  0.00  0.00    +0.000 OA
ATOM     50  H   UNL     1      -6.347   1.771  10.914  0.00  0.00    +0.000 HD
ENDBRANCH   6  49
BRANCH  11  51
ATOM     51  O   UNL     1     -10.242  -2.647   7.871  0.00  0.00    +0.000 OA
ATOM     52  H   UNL     1     -10.649  -3.486   7.590  0.00  0.00    +0.000 HD
ENDBRANCH  11  51
BRANCH  12  53
ATOM     53  O   UNL     1     -12.096  -4.148   9.148  0.00  0.00    +0.000 OA
ATOM     54  H   UNL     1     -11.509  -4.855   8.812  0.00  0.00    +0.000 HD
ENDBRANCH  12  53
TORSDOF 8
ENDMDL
