
 OpenBabel01112422523D

 31 33  0  0  0  0  0  0  0  0999 V2000
    2.9082   -0.8624   -2.9126 C   0  0  0  0  0  0  0  0  0  0  0  0
    2.4978    0.4612   -2.4571 N   0  0  0  0  0  0  0  0  0  0  0  0
    3.0362    0.7722   -1.1287 C   0  0  0  0  0  0  0  0  0  0  0  0
    4.5413    0.9128   -1.0932 C   0  0  0  0  0  0  0  0  0  0  0  0
    5.1904    1.8146   -1.9449 C   0  0  0  0  0  0  0  0  0  0  0  0
    6.5733    1.9604   -1.8898 C   0  0  0  0  0  0  0  0  0  0  0  0
    7.3155    1.2199   -0.9676 C   0  0  0  0  0  0  0  0  0  0  0  0
    6.7013    0.3095   -0.0875 C   0  0  0  0  0  0  0  0  0  0  0  0
    7.5025   -0.4040    0.9139 C   0  0  0  0  0  0  0  0  0  0  0  0
    8.5840    0.2515    1.4405 N   0  0  0  0  0  0  0  0  0  0  0  0
    9.3162   -0.3635    2.3899 C   0  0  0  0  0  0  0  0  0  0  0  0
    9.1389   -1.5935    2.9051 N   0  0  0  0  0  0  0  0  0  0  0  0
    8.0805   -2.1971    2.3451 C   0  0  0  0  0  0  0  0  0  0  0  0
    7.6248   -3.4514    2.6273 N   0  0  0  0  0  0  0  0  0  0  0  0
    6.5302   -3.6780    1.8410 C   0  0  0  0  0  0  0  0  0  0  0  0
    6.2518   -2.6419    1.0784 N   0  0  0  0  0  0  0  0  0  0  0  0
    7.2209   -1.6994    1.3762 C   0  0  0  0  0  0  0  0  0  0  0  0
    5.3049    0.1641   -0.1784 C   0  0  0  0  0  0  0  0  0  0  0  0
    2.4474   -1.0662   -3.8843 H   0  0  0  0  0  0  0  0  0  0  0  0
    2.5865   -1.6446   -2.2178 H   0  0  0  0  0  0  0  0  0  0  0  0
    3.9916   -0.9292   -3.0525 H   0  0  0  0  0  0  0  0  0  0  0  0
    1.4810    0.4850   -2.4008 H   0  0  0  0  0  0  0  0  0  0  0  0
    2.6944    0.0247   -0.4018 H   0  0  0  0  0  0  0  0  0  0  0  0
    2.6112    1.7293   -0.7990 H   0  0  0  0  0  0  0  0  0  0  0  0
    4.6143    2.3999   -2.6571 H   0  0  0  0  0  0  0  0  0  0  0  0
    7.0742    2.6558   -2.5574 H   0  0  0  0  0  0  0  0  0  0  0  0
    8.3947    1.3611   -0.9325 H   0  0  0  0  0  0  0  0  0  0  0  0
   10.1489    0.2085    2.7893 H   0  0  0  0  0  0  0  0  0  0  0  0
    8.0386   -4.0834    3.2961 H   0  0  0  0  0  0  0  0  0  0  0  0
    5.9822   -4.6110    1.8682 H   0  0  0  0  0  0  0  0  0  0  0  0
    4.7935   -0.5303    0.4868 H   0  0  0  0  0  0  0  0  0  0  0  0
  1  2  1  0  0  0  0
  1 19  1  0  0  0  0
  1 20  1  0  0  0  0
  1 21  1  0  0  0  0
  2  3  1  0  0  0  0
  2 22  1  0  0  0  0
  3  4  1  0  0  0  0
  3 23  1  0  0  0  0
  3 24  1  0  0  0  0
  4  5  1  0  0  0  0
  4 18  2  0  0  0  0
  5  6  2  0  0  0  0
  5 25  1  0  0  0  0
  6  7  1  0  0  0  0
  6 26  1  0  0  0  0
  7  8  2  0  0  0  0
  7 27  1  0  0  0  0
  8  9  1  0  0  0  0
  8 18  1  0  0  0  0
  9 10  1  0  0  0  0
  9 17  2  0  0  0  0
 10 11  2  0  0  0  0
 11 12  1  0  0  0  0
 11 28  1  0  0  0  0
 12 13  2  0  0  0  0
 13 14  1  0  0  0  0
 13 17  1  0  0  0  0
 14 15  1  0  0  0  0
 14 29  1  0  0  0  0
 15 16  2  0  0  0  0
 15 30  1  0  0  0  0
 16 17  1  0  0  0  0
 18 31  1  0  0  0  0
M  END
$$$$
