
 OpenBabel01112422203D

 66 73  0  0  1  0  0  0  0  0999 V2000
    0.8790    1.8849    3.2060 C   0  0  0  0  0  0  0  0  0  0  0  0
    1.1651    1.3633    1.9156 O   0  0  0  0  0  0  0  0  0  0  0  0
    1.9254    2.2486    1.0807 C   0  0  1  0  0  0  0  0  0  0  0  0
    2.3965    1.3728   -0.1663 C   0  0  1  0  0  0  0  0  0  0  0  0
    3.1053    0.1049    0.1675 N   0  0  0  0  0  0  0  0  0  0  0  0
    2.3800   -1.1647    0.1725 C   0  0  0  0  0  0  0  0  0  0  0  0
    4.3944    0.2052    0.7215 C   0  0  0  0  0  0  0  0  0  0  0  0
    4.9986    1.2874    0.6637 O   0  0  0  0  0  0  0  0  0  0  0  0
    5.0501   -1.0290    1.4130 C   0  0  0  0  0  0  0  0  0  0  0  0
    4.2281   -2.0968    1.6177 F   0  0  0  0  0  0  0  0  0  0  0  0
    5.5225   -0.7062    2.6512 F   0  0  0  0  0  0  0  0  0  0  0  0
    6.1137   -1.5064    0.7075 F   0  0  0  0  0  0  0  0  0  0  0  0
    1.2970    1.1625   -1.2163 C   0  0  0  0  0  0  0  0  0  0  0  0
    0.0597    1.9521   -0.9163 C   0  0  2  0  0  0  0  0  0  0  0  0
    0.6310    3.2842   -0.7823 O   0  0  0  0  0  0  0  0  0  0  0  0
    1.1416    3.5529    0.5582 C   0  0  2  0  0  0  0  0  0  0  0  0
    2.1780    4.6750    0.3103 C   0  0  0  0  0  0  0  0  0  0  0  0
   -0.0446    4.0648    1.3239 N   0  0  0  0  0  0  0  0  0  0  0  0
   -0.2672    5.4263    1.7129 C   0  0  0  0  0  0  0  0  0  0  0  0
    0.1364    6.1042    2.8719 C   0  0  0  0  0  0  0  0  0  0  0  0
   -0.3122    7.4198    3.0485 C   0  0  0  0  0  0  0  0  0  0  0  0
   -1.0102    8.0967    2.0469 C   0  0  0  0  0  0  0  0  0  0  0  0
   -1.3896    7.4563    0.8651 C   0  0  0  0  0  0  0  0  0  0  0  0
   -1.1635    6.0734    0.7648 C   0  0  0  0  0  0  0  0  0  0  0  0
   -1.8116    5.0475    0.0619 C   0  0  0  0  0  0  0  0  0  0  0  0
   -2.5392    5.0729   -1.1577 C   0  0  0  0  0  0  0  0  0  0  0  0
   -3.1577    3.8448   -1.4806 C   0  0  0  0  0  0  0  0  0  0  0  0
   -2.8683    2.7916   -0.6077 C   0  0  0  0  0  0  0  0  0  0  0  0
   -2.8280    1.4003   -1.0817 C   0  0  0  0  0  0  0  0  0  0  0  0
   -3.8840    0.6137   -1.5744 C   0  0  0  0  0  0  0  0  0  0  0  0
   -4.8134    0.2716   -0.6032 C   0  0  0  0  0  0  0  0  0  0  0  0
   -4.4128    0.2466    0.7317 C   0  0  0  0  0  0  0  0  0  0  0  0
   -3.0403    0.3780    1.0760 C   0  0  0  0  0  0  0  0  0  0  0  0
   -2.1308    0.8268    0.0497 C   0  0  0  0  0  0  0  0  0  0  0  0
   -0.9456    1.6605    0.1612 N   0  0  0  0  0  0  0  0  0  0  0  0
   -1.7567    2.7663    0.2756 C   0  0  0  0  0  0  0  0  0  0  0  0
   -1.2548    3.9477    0.6971 C   0  0  0  0  0  0  0  0  0  0  0  0
   -3.4086    3.7765   -2.8966 C   0  0  0  0  0  0  0  0  0  0  0  0
   -3.9277    2.9373   -3.6124 O   0  0  0  0  0  0  0  0  0  0  0  0
   -2.6666    4.8415   -3.3873 N   0  0  0  0  0  0  0  0  0  0  0  0
   -2.1986    5.8058   -2.3774 C   0  0  0  0  0  0  0  0  0  0  0  0
   -0.2037    2.0002    3.2946 H   0  0  0  0  0  0  0  0  0  0  0  0
    1.2094    1.1610    3.9544 H   0  0  0  0  0  0  0  0  0  0  0  0
    1.3718    2.8426    3.4021 H   0  0  0  0  0  0  0  0  0  0  0  0
    2.8129    2.5554    1.6515 H   0  0  0  0  0  0  0  0  0  0  0  0
    3.1614    1.9939   -0.6631 H   0  0  0  0  0  0  0  0  0  0  0  0
    1.9688   -1.3366    1.1669 H   0  0  0  0  0  0  0  0  0  0  0  0
    3.0584   -1.9668   -0.1286 H   0  0  0  0  0  0  0  0  0  0  0  0
    1.5707   -1.2219   -0.5480 H   0  0  0  0  0  0  0  0  0  0  0  0
    1.7177    1.6166   -2.1340 H   0  0  0  0  0  0  0  0  0  0  0  0
    1.0552    0.1629   -1.5545 H   0  0  0  0  0  0  0  0  0  0  0  0
   -0.5090    1.9711   -1.8545 H   0  0  0  0  0  0  0  0  0  0  0  0
    1.7697    5.4566   -0.3432 H   0  0  0  0  0  0  0  0  0  0  0  0
    2.5208    5.1374    1.2405 H   0  0  0  0  0  0  0  0  0  0  0  0
    3.0595    4.2887   -0.2143 H   0  0  0  0  0  0  0  0  0  0  0  0
    0.6792    5.5979    3.6646 H   0  0  0  0  0  0  0  0  0  0  0  0
   -0.1327    7.9220    3.9979 H   0  0  0  0  0  0  0  0  0  0  0  0
   -1.3419    9.1187    2.2196 H   0  0  0  0  0  0  0  0  0  0  0  0
   -2.0274    7.9666    0.1509 H   0  0  0  0  0  0  0  0  0  0  0  0
   -4.0824    0.5277   -2.6349 H   0  0  0  0  0  0  0  0  0  0  0  0
   -5.8337    0.0393   -0.8954 H   0  0  0  0  0  0  0  0  0  0  0  0
   -5.1739    0.1532    1.5058 H   0  0  0  0  0  0  0  0  0  0  0  0
   -2.7625    0.4308    2.1273 H   0  0  0  0  0  0  0  0  0  0  0  0
   -1.9590    4.4638   -4.0278 H   0  0  0  0  0  0  0  0  0  0  0  0
   -2.7597    6.7309   -2.4948 H   0  0  0  0  0  0  0  0  0  0  0  0
   -1.1189    5.9434   -2.4989 H   0  0  0  0  0  0  0  0  0  0  0  0
  1  2  1  0  0  0  0
  1 42  1  0  0  0  0
  1 43  1  0  0  0  0
  1 44  1  0  0  0  0
  3  4  1  0  0  0  0
  3 16  1  0  0  0  0
  3  2  1  0  0  0  0
  3 45  1  1  0  0  0
  4 13  1  0  0  0  0
  4  5  1  0  0  0  0
  4 46  1  6  0  0  0
  5  6  1  0  0  0  0
  5  7  1  0  0  0  0
  6 47  1  0  0  0  0
  6 48  1  0  0  0  0
  6 49  1  0  0  0  0
  7  8  2  0  0  0  0
  7  9  1  0  0  0  0
  9 10  1  0  0  0  0
  9 11  1  0  0  0  0
  9 12  1  0  0  0  0
 13 14  1  0  0  0  0
 13 50  1  0  0  0  0
 13 51  1  0  0  0  0
 14 15  1  0  0  0  0
 14 35  1  0  0  0  0
 14 52  1  6  0  0  0
 15 16  1  0  0  0  0
 16 18  1  0  0  0  0
 16 17  1  6  0  0  0
 17 53  1  0  0  0  0
 17 54  1  0  0  0  0
 17 55  1  0  0  0  0
 18 19  1  0  0  0  0
 18 37  1  0  0  0  0
 19 20  1  0  0  0  0
 19 24  2  0  0  0  0
 20 21  2  0  0  0  0
 20 56  1  0  0  0  0
 21 22  1  0  0  0  0
 21 57  1  0  0  0  0
 22 23  2  0  0  0  0
 22 58  1  0  0  0  0
 23 24  1  0  0  0  0
 23 59  1  0  0  0  0
 24 25  1  0  0  0  0
 25 26  1  0  0  0  0
 25 37  2  0  0  0  0
 26 27  2  0  0  0  0
 26 41  1  0  0  0  0
 27 28  1  0  0  0  0
 27 38  1  0  0  0  0
 28 29  1  0  0  0  0
 28 36  2  0  0  0  0
 29 30  1  0  0  0  0
 29 34  2  0  0  0  0
 30 31  2  0  0  0  0
 30 60  1  0  0  0  0
 31 32  1  0  0  0  0
 31 61  1  0  0  0  0
 32 33  2  0  0  0  0
 32 62  1  0  0  0  0
 33 34  1  0  0  0  0
 33 63  1  0  0  0  0
 34 35  1  0  0  0  0
 35 36  1  0  0  0  0
 36 37  1  0  0  0  0
 38 40  1  0  0  0  0
 38 39  2  0  0  0  0
 40 41  1  0  0  0  0
 40 64  1  0  0  0  0
 41 65  1  0  0  0  0
 41 66  1  0  0  0  0
M  END
$$$$
