MODEL 1
REMARK VINA RESULT:    -9.663      0.000      0.000
REMARK INTER + INTRA:         -12.883
REMARK INTER:                 -12.488
REMARK INTRA:                  -0.395
REMARK UNBOUND:                -0.395
REMARK  Name = 
REMARK  7 active torsions:
REMARK  status: ('A' for Active; 'I' for Inactive)
REMARK    1  A    between atoms: C_4  and  O_5
REMARK    2  A    between atoms: C_6  and  O_7
REMARK    3  A    between atoms: C_13  and  O_14
REMARK    4  A    between atoms: C_15  and  O_16
REMARK    5  A    between atoms: N_19  and  C_20
REMARK    6  A    between atoms: C_20  and  C_21
REMARK    7  A    between atoms: C_24  and  N_25
REMARK                            x       y       z     vdW  Elec       q    Type
REMARK                         _______ _______ _______ _____ _____    ______ ____
ROOT
ATOM      1  O   UNL     1      -9.044 -10.380  19.437  0.00  0.00    +0.000 OA
ATOM      2  C   UNL     1      -9.018  -9.723  18.395  0.00  0.00    +0.000 A 
ATOM      3  C   UNL     1      -8.851 -10.454  17.125  0.00  0.00    +0.000 A 
ATOM      4  C   UNL     1      -8.607 -11.839  17.159  0.00  0.00    +0.000 A 
ATOM      5  C   UNL     1      -8.417 -12.541  15.978  0.00  0.00    +0.000 A 
ATOM      6  C   UNL     1      -8.480 -11.897  14.758  0.00  0.00    +0.000 A 
ATOM      7  C   UNL     1      -8.728 -10.520  14.722  0.00  0.00    +0.000 A 
ATOM      8  C   UNL     1      -8.914  -9.760  15.902  0.00  0.00    +0.000 A 
ATOM      9  C   UNL     1      -9.149  -8.300  15.902  0.00  0.00    +0.000 A 
ATOM     10  C   UNL     1      -9.290  -7.560  14.702  0.00  0.00    +0.000 A 
ATOM     11  C   UNL     1      -9.495  -6.186  14.730  0.00  0.00    +0.000 A 
ATOM     12  C   UNL     1      -9.568  -5.521  15.940  0.00  0.00    +0.000 A 
ATOM     13  C   UNL     1      -9.439  -6.210  17.135  0.00  0.00    +0.000 A 
ATOM     14  C   UNL     1      -9.233  -7.603  17.137  0.00  0.00    +0.000 A 
ATOM     15  N   UNL     1      -9.134  -8.336  18.365  0.00  0.00    +0.000 N 
ATOM     16  H   UNL     1      -8.330 -12.458  13.840  0.00  0.00    +0.000 HD
ATOM     17  H   UNL     1      -8.756 -10.064  13.738  0.00  0.00    +0.000 HD
ATOM     18  H   UNL     1      -9.246  -8.050  13.736  0.00  0.00    +0.000 HD
ATOM     19  H   UNL     1      -9.526  -5.631  18.048  0.00  0.00    +0.000 HD
ENDROOT
BRANCH  15  20
ATOM     20  C   UNL     1      -9.210  -7.660  19.664  0.00  0.00    +0.000 C 
ATOM     21  H   UNL     1      -9.190  -8.422  20.455  0.00  0.00    +0.000 HD
ATOM     22  H   UNL     1     -10.188  -7.169  19.766  0.00  0.00    +0.000 HD
BRANCH  20  23
ATOM     23  C   UNL     1      -8.140  -6.616  19.916  0.00  0.00    +0.000 A 
ATOM     24  C   UNL     1      -6.790  -6.813  19.578  0.00  0.00    +0.000 A 
ATOM     25  C   UNL     1      -5.819  -5.877  19.939  0.00  0.00    +0.000 A 
ATOM     26  C   UNL     1      -6.199  -4.717  20.619  0.00  0.00    +0.000 A 
ATOM     27  C   UNL     1      -7.550  -4.457  20.882  0.00  0.00    +0.000 A 
ATOM     28  C   UNL     1      -8.512  -5.404  20.526  0.00  0.00    +0.000 A 
ATOM     29  H   UNL     1      -6.470  -7.714  19.060  0.00  0.00    +0.000 HD
ATOM     30  H   UNL     1      -4.777  -6.082  19.701  0.00  0.00    +0.000 HD
ATOM     31  H   UNL     1      -7.863  -3.542  21.380  0.00  0.00    +0.000 HD
ATOM     32  H   UNL     1      -9.559  -5.205  20.753  0.00  0.00    +0.000 HD
BRANCH  26  33
ATOM     33  N   UNL     1      -5.171  -3.788  21.100  0.00  0.00    +0.000 N 
ATOM     34  O   UNL     1      -4.014  -3.946  20.687  0.00  0.00    +0.000 OA
ATOM     35  O   UNL     1      -5.516  -2.913  21.907  0.00  0.00    +0.000 OA
ENDBRANCH  26  33
ENDBRANCH  20  23
ENDBRANCH  15  20
BRANCH   4  36
ATOM     36  O   UNL     1      -8.529 -12.581  18.315  0.00  0.00    +0.000 OA
ATOM     37  H   UNL     1      -8.716 -13.519  18.074  0.00  0.00    +0.000 HD
ENDBRANCH   4  36
BRANCH   5  38
ATOM     38  O   UNL     1      -8.152 -13.879  16.014  0.00  0.00    +0.000 OA
ATOM     39  H   UNL     1      -8.862 -14.255  16.576  0.00  0.00    +0.000 HD
ENDBRANCH   5  38
BRANCH  11  40
ATOM     40  O   UNL     1      -9.633  -5.446  13.588  0.00  0.00    +0.000 OA
ATOM     41  H   UNL     1      -8.790  -5.453  13.104  0.00  0.00    +0.000 HD
ENDBRANCH  11  40
BRANCH  12  42
ATOM     42  O   UNL     1      -9.773  -4.171  15.968  0.00  0.00    +0.000 OA
ATOM     43  H   UNL     1      -9.908  -3.918  15.032  0.00  0.00    +0.000 HD
ENDBRANCH  12  42
TORSDOF 7
ENDMDL
MODEL 2
REMARK VINA RESULT:    -8.683      2.825      5.732
REMARK INTER + INTRA:         -11.616
REMARK INTER:                 -11.075
REMARK INTRA:                  -0.542
REMARK UNBOUND:                -0.395
REMARK  Name = 
REMARK  7 active torsions:
REMARK  status: ('A' for Active; 'I' for Inactive)
REMARK    1  A    between atoms: C_4  and  O_5
REMARK    2  A    between atoms: C_6  and  O_7
REMARK    3  A    between atoms: C_13  and  O_14
REMARK    4  A    between atoms: C_15  and  O_16
REMARK    5  A    between atoms: N_19  and  C_20
REMARK    6  A    between atoms: C_20  and  C_21
REMARK    7  A    between atoms: C_24  and  N_25
REMARK                            x       y       z     vdW  Elec       q    Type
REMARK                         _______ _______ _______ _____ _____    ______ ____
ROOT
ATOM      1  O   UNL     1     -11.059  -8.314  16.080  0.00  0.00    +0.000 OA
ATOM      2  C   UNL     1     -10.454  -7.791  17.018  0.00  0.00    +0.000 A 
ATOM      3  C   UNL     1      -9.595  -8.655  17.849  0.00  0.00    +0.000 A 
ATOM      4  C   UNL     1      -9.595 -10.042  17.621  0.00  0.00    +0.000 A 
ATOM      5  C   UNL     1      -8.817 -10.877  18.411  0.00  0.00    +0.000 A 
ATOM      6  C   UNL     1      -8.025 -10.358  19.416  0.00  0.00    +0.000 A 
ATOM      7  C   UNL     1      -8.020  -8.976  19.640  0.00  0.00    +0.000 A 
ATOM      8  C   UNL     1      -8.807  -8.089  18.869  0.00  0.00    +0.000 A 
ATOM      9  C   UNL     1      -8.848  -6.628  19.098  0.00  0.00    +0.000 A 
ATOM     10  C   UNL     1      -8.028  -5.994  20.064  0.00  0.00    +0.000 A 
ATOM     11  C   UNL     1      -8.097  -4.621  20.268  0.00  0.00    +0.000 A 
ATOM     12  C   UNL     1      -8.972  -3.853  19.523  0.00  0.00    +0.000 A 
ATOM     13  C   UNL     1      -9.788  -4.435  18.567  0.00  0.00    +0.000 A 
ATOM     14  C   UNL     1      -9.738  -5.823  18.337  0.00  0.00    +0.000 A 
ATOM     15  N   UNL     1     -10.548  -6.436  17.325  0.00  0.00    +0.000 N 
ATOM     16  H   UNL     1      -7.420 -11.021  20.028  0.00  0.00    +0.000 HD
ATOM     17  H   UNL     1      -7.388  -8.625  20.449  0.00  0.00    +0.000 HD
ATOM     18  H   UNL     1      -7.325  -6.564  20.660  0.00  0.00    +0.000 HD
ATOM     19  H   UNL     1     -10.437  -3.772  18.005  0.00  0.00    +0.000 HD
ENDROOT
BRANCH  15  20
ATOM     20  C   UNL     1     -11.484  -5.648  16.518  0.00  0.00    +0.000 C 
ATOM     21  H   UNL     1     -12.168  -5.119  17.195  0.00  0.00    +0.000 HD
ATOM     22  H   UNL     1     -12.127  -6.324  15.937  0.00  0.00    +0.000 HD
BRANCH  20  23
ATOM     23  C   UNL     1     -10.845  -4.671  15.550  0.00  0.00    +0.000 A 
ATOM     24  C   UNL     1     -11.253  -3.331  15.443  0.00  0.00    +0.000 A 
ATOM     25  C   UNL     1     -10.721  -2.499  14.456  0.00  0.00    +0.000 A 
ATOM     26  C   UNL     1      -9.751  -2.999  13.582  0.00  0.00    +0.000 A 
ATOM     27  C   UNL     1      -9.264  -4.303  13.733  0.00  0.00    +0.000 A 
ATOM     28  C   UNL     1      -9.809  -5.130  14.717  0.00  0.00    +0.000 A 
ATOM     29  H   UNL     1     -12.015  -2.925  16.104  0.00  0.00    +0.000 HD
ATOM     30  H   UNL     1     -11.091  -1.479  14.371  0.00  0.00    +0.000 HD
ATOM     31  H   UNL     1      -8.485  -4.694  13.082  0.00  0.00    +0.000 HD
ATOM     32  H   UNL     1      -9.440  -6.150  14.814  0.00  0.00    +0.000 HD
BRANCH  26  33
ATOM     33  N   UNL     1      -9.275  -2.166  12.473  0.00  0.00    +0.000 N 
ATOM     34  O   UNL     1      -8.225  -1.528  12.641  0.00  0.00    +0.000 OA
ATOM     35  O   UNL     1      -9.960  -2.132  11.441  0.00  0.00    +0.000 OA
ENDBRANCH  26  33
ENDBRANCH  20  23
ENDBRANCH  15  20
BRANCH   4  36
ATOM     36  O   UNL     1     -10.339 -10.666  16.647  0.00  0.00    +0.000 OA
ATOM     37  H   UNL     1     -10.416 -11.616  16.899  0.00  0.00    +0.000 HD
ENDBRANCH   4  36
BRANCH   5  38
ATOM     38  O   UNL     1      -8.839 -12.226  18.208  0.00  0.00    +0.000 OA
ATOM     39  H   UNL     1      -9.774 -12.481  18.357  0.00  0.00    +0.000 HD
ENDBRANCH   5  38
BRANCH  11  40
ATOM     40  O   UNL     1      -7.319  -3.982  21.194  0.00  0.00    +0.000 OA
ATOM     41  H   UNL     1      -6.384  -4.091  20.948  0.00  0.00    +0.000 HD
ENDBRANCH  11  40
BRANCH  12  42
ATOM     42  O   UNL     1      -9.038  -2.503  19.722  0.00  0.00    +0.000 OA
ATOM     43  H   UNL     1      -8.108  -2.221  19.841  0.00  0.00    +0.000 HD
ENDBRANCH  12  42
TORSDOF 7
ENDMDL
MODEL 3
REMARK VINA RESULT:    -8.530      3.111      5.876
REMARK INTER + INTRA:         -11.418
REMARK INTER:                 -11.230
REMARK INTRA:                  -0.188
REMARK UNBOUND:                -0.395
REMARK  Name = 
REMARK  7 active torsions:
REMARK  status: ('A' for Active; 'I' for Inactive)
REMARK    1  A    between atoms: C_4  and  O_5
REMARK    2  A    between atoms: C_6  and  O_7
REMARK    3  A    between atoms: C_13  and  O_14
REMARK    4  A    between atoms: C_15  and  O_16
REMARK    5  A    between atoms: N_19  and  C_20
REMARK    6  A    between atoms: C_20  and  C_21
REMARK    7  A    between atoms: C_24  and  N_25
REMARK                            x       y       z     vdW  Elec       q    Type
REMARK                         _______ _______ _______ _____ _____    ______ ____
ROOT
ATOM      1  O   UNL     1     -10.928  -3.794  18.500  0.00  0.00    +0.000 OA
ATOM      2  C   UNL     1      -9.866  -4.349  18.786  0.00  0.00    +0.000 A 
ATOM      3  C   UNL     1      -9.661  -5.729  18.307  0.00  0.00    +0.000 A 
ATOM      4  C   UNL     1     -10.716  -6.393  17.659  0.00  0.00    +0.000 A 
ATOM      5  C   UNL     1     -10.555  -7.702  17.227  0.00  0.00    +0.000 A 
ATOM      6  C   UNL     1      -9.356  -8.361  17.413  0.00  0.00    +0.000 A 
ATOM      7  C   UNL     1      -8.301  -7.699  18.053  0.00  0.00    +0.000 A 
ATOM      8  C   UNL     1      -8.426  -6.370  18.523  0.00  0.00    +0.000 A 
ATOM      9  C   UNL     1      -7.343  -5.651  19.229  0.00  0.00    +0.000 A 
ATOM     10  C   UNL     1      -6.058  -6.219  19.415  0.00  0.00    +0.000 A 
ATOM     11  C   UNL     1      -5.063  -5.527  20.095  0.00  0.00    +0.000 A 
ATOM     12  C   UNL     1      -5.318  -4.265  20.599  0.00  0.00    +0.000 A 
ATOM     13  C   UNL     1      -6.560  -3.674  20.435  0.00  0.00    +0.000 A 
ATOM     14  C   UNL     1      -7.586  -4.351  19.748  0.00  0.00    +0.000 A 
ATOM     15  N   UNL     1      -8.865  -3.738  19.536  0.00  0.00    +0.000 N 
ATOM     16  H   UNL     1      -9.241  -9.385  17.070  0.00  0.00    +0.000 HD
ATOM     17  H   UNL     1      -7.386  -8.267  18.183  0.00  0.00    +0.000 HD
ATOM     18  H   UNL     1      -5.821  -7.202  19.026  0.00  0.00    +0.000 HD
ATOM     19  H   UNL     1      -6.686  -2.675  20.838  0.00  0.00    +0.000 HD
ENDROOT
BRANCH  15  20
ATOM     20  C   UNL     1      -9.164  -2.401  20.057  0.00  0.00    +0.000 C 
ATOM     21  H   UNL     1     -10.189  -2.134  19.764  0.00  0.00    +0.000 HD
ATOM     22  H   UNL     1      -8.525  -1.661  19.557  0.00  0.00    +0.000 HD
BRANCH  20  23
ATOM     23  C   UNL     1      -8.987  -2.231  21.553  0.00  0.00    +0.000 A 
ATOM     24  C   UNL     1      -9.315  -3.237  22.477  0.00  0.00    +0.000 A 
ATOM     25  C   UNL     1      -9.251  -2.995  23.850  0.00  0.00    +0.000 A 
ATOM     26  C   UNL     1      -8.827  -1.744  24.310  0.00  0.00    +0.000 A 
ATOM     27  C   UNL     1      -8.406  -0.760  23.408  0.00  0.00    +0.000 A 
ATOM     28  C   UNL     1      -8.484  -1.009  22.036  0.00  0.00    +0.000 A 
ATOM     29  H   UNL     1      -9.659  -4.213  22.141  0.00  0.00    +0.000 HD
ATOM     30  H   UNL     1      -9.555  -3.781  24.539  0.00  0.00    +0.000 HD
ATOM     31  H   UNL     1      -8.042   0.205  23.753  0.00  0.00    +0.000 HD
ATOM     32  H   UNL     1      -8.175  -0.230  21.339  0.00  0.00    +0.000 HD
BRANCH  26  33
ATOM     33  N   UNL     1      -8.868  -1.448  25.746  0.00  0.00    +0.000 N 
ATOM     34  O   UNL     1      -8.884  -0.257  26.088  0.00  0.00    +0.000 OA
ATOM     35  O   UNL     1      -8.863  -2.405  26.534  0.00  0.00    +0.000 OA
ENDBRANCH  26  33
ENDBRANCH  20  23
ENDBRANCH  15  20
BRANCH   4  36
ATOM     36  O   UNL     1     -11.949  -5.833  17.417  0.00  0.00    +0.000 OA
ATOM     37  H   UNL     1     -12.048  -5.752  16.439  0.00  0.00    +0.000 HD
ENDBRANCH   4  36
BRANCH   5  38
ATOM     38  O   UNL     1     -11.589  -8.355  16.624  0.00  0.00    +0.000 OA
ATOM     39  H   UNL     1     -11.367  -8.338  15.670  0.00  0.00    +0.000 HD
ENDBRANCH   5  38
BRANCH  11  40
ATOM     40  O   UNL     1      -3.815  -6.050  20.291  0.00  0.00    +0.000 OA
ATOM     41  H   UNL     1      -3.834  -6.625  21.075  0.00  0.00    +0.000 HD
ENDBRANCH  11  40
BRANCH  12  42
ATOM     42  O   UNL     1      -4.339  -3.584  21.265  0.00  0.00    +0.000 OA
ATOM     43  H   UNL     1      -3.593  -4.215  21.330  0.00  0.00    +0.000 HD
ENDBRANCH  12  42
TORSDOF 7
ENDMDL
MODEL 4
REMARK VINA RESULT:    -8.498      2.969      5.143
REMARK INTER + INTRA:         -11.376
REMARK INTER:                 -12.856
REMARK INTRA:                   1.480
REMARK UNBOUND:                -0.395
REMARK  Name = 
REMARK  7 active torsions:
REMARK  status: ('A' for Active; 'I' for Inactive)
REMARK    1  A    between atoms: C_4  and  O_5
REMARK    2  A    between atoms: C_6  and  O_7
REMARK    3  A    between atoms: C_13  and  O_14
REMARK    4  A    between atoms: C_15  and  O_16
REMARK    5  A    between atoms: N_19  and  C_20
REMARK    6  A    between atoms: C_20  and  C_21
REMARK    7  A    between atoms: C_24  and  N_25
REMARK                            x       y       z     vdW  Elec       q    Type
REMARK                         _______ _______ _______ _____ _____    ______ ____
ROOT
ATOM      1  O   UNL     1      -8.615 -11.002  14.457  0.00  0.00    +0.000 OA
ATOM      2  C   UNL     1      -8.725 -10.811  15.670  0.00  0.00    +0.000 A 
ATOM      3  C   UNL     1      -8.733 -11.991  16.554  0.00  0.00    +0.000 A 
ATOM      4  C   UNL     1      -8.738 -13.275  15.981  0.00  0.00    +0.000 A 
ATOM      5  C   UNL     1      -8.775 -14.399  16.794  0.00  0.00    +0.000 A 
ATOM      6  C   UNL     1      -8.791 -14.273  18.169  0.00  0.00    +0.000 A 
ATOM      7  C   UNL     1      -8.780 -12.995  18.741  0.00  0.00    +0.000 A 
ATOM      8  C   UNL     1      -8.757 -11.821  17.951  0.00  0.00    +0.000 A 
ATOM      9  C   UNL     1      -8.774 -10.456  18.521  0.00  0.00    +0.000 A 
ATOM     10  C   UNL     1      -8.731 -10.223  19.917  0.00  0.00    +0.000 A 
ATOM     11  C   UNL     1      -8.763  -8.930  20.427  0.00  0.00    +0.000 A 
ATOM     12  C   UNL     1      -8.836  -7.849  19.568  0.00  0.00    +0.000 A 
ATOM     13  C   UNL     1      -8.876  -8.036  18.196  0.00  0.00    +0.000 A 
ATOM     14  C   UNL     1      -8.843  -9.334  17.652  0.00  0.00    +0.000 A 
ATOM     15  N   UNL     1      -8.846  -9.544  16.234  0.00  0.00    +0.000 N 
ATOM     16  H   UNL     1      -8.820 -15.160  18.795  0.00  0.00    +0.000 HD
ATOM     17  H   UNL     1      -8.805 -12.955  19.824  0.00  0.00    +0.000 HD
ATOM     18  H   UNL     1      -8.665 -11.046  20.619  0.00  0.00    +0.000 HD
ATOM     19  H   UNL     1      -8.913  -7.145  17.579  0.00  0.00    +0.000 HD
ENDROOT
BRANCH  15  20
ATOM     20  C   UNL     1      -8.920  -8.418  15.298  0.00  0.00    +0.000 C 
ATOM     21  H   UNL     1      -9.335  -8.781  14.348  0.00  0.00    +0.000 HD
ATOM     22  H   UNL     1      -7.905  -8.077  15.052  0.00  0.00    +0.000 HD
BRANCH  20  23
ATOM     23  C   UNL     1      -9.707  -7.217  15.786  0.00  0.00    +0.000 A 
ATOM     24  C   UNL     1     -10.928  -7.335  16.470  0.00  0.00    +0.000 A 
ATOM     25  C   UNL     1     -11.678  -6.203  16.795  0.00  0.00    +0.000 A 
ATOM     26  C   UNL     1     -11.192  -4.935  16.459  0.00  0.00    +0.000 A 
ATOM     27  C   UNL     1      -9.934  -4.792  15.862  0.00  0.00    +0.000 A 
ATOM     28  C   UNL     1      -9.197  -5.931  15.532  0.00  0.00    +0.000 A 
ATOM     29  H   UNL     1     -11.330  -8.311  16.730  0.00  0.00    +0.000 HD
ATOM     30  H   UNL     1     -12.641  -6.331  17.285  0.00  0.00    +0.000 HD
ATOM     31  H   UNL     1      -9.529  -3.810  15.626  0.00  0.00    +0.000 HD
ATOM     32  H   UNL     1      -8.228  -5.811  15.048  0.00  0.00    +0.000 HD
BRANCH  26  33
ATOM     33  N   UNL     1     -12.028  -3.753  16.694  0.00  0.00    +0.000 N 
ATOM     34  O   UNL     1     -12.205  -2.975  15.746  0.00  0.00    +0.000 OA
ATOM     35  O   UNL     1     -12.490  -3.590  17.832  0.00  0.00    +0.000 OA
ENDBRANCH  26  33
ENDBRANCH  20  23
ENDBRANCH  15  20
BRANCH   4  36
ATOM     36  O   UNL     1      -8.718 -13.518  14.628  0.00  0.00    +0.000 OA
ATOM     37  H   UNL     1      -7.791 -13.750  14.385  0.00  0.00    +0.000 HD
ENDBRANCH   4  36
BRANCH   5  38
ATOM     38  O   UNL     1      -8.809 -15.644  16.237  0.00  0.00    +0.000 OA
ATOM     39  H   UNL     1      -9.470 -15.573  15.517  0.00  0.00    +0.000 HD
ENDBRANCH   5  38
BRANCH  11  40
ATOM     40  O   UNL     1      -8.723  -8.674  21.769  0.00  0.00    +0.000 OA
ATOM     41  H   UNL     1      -9.212  -9.373  22.238  0.00  0.00    +0.000 HD
ENDBRANCH  11  40
BRANCH  12  42
ATOM     42  O   UNL     1      -8.864  -6.578  20.068  0.00  0.00    +0.000 OA
ATOM     43  H   UNL     1      -8.635  -6.004  19.308  0.00  0.00    +0.000 HD
ENDBRANCH  12  42
TORSDOF 7
ENDMDL
MODEL 5
REMARK VINA RESULT:    -8.229      3.365      7.929
REMARK INTER + INTRA:         -11.030
REMARK INTER:                 -10.299
REMARK INTRA:                  -0.731
REMARK UNBOUND:                -0.395
REMARK  Name = 
REMARK  7 active torsions:
REMARK  status: ('A' for Active; 'I' for Inactive)
REMARK    1  A    between atoms: C_4  and  O_5
REMARK    2  A    between atoms: C_6  and  O_7
REMARK    3  A    between atoms: C_13  and  O_14
REMARK    4  A    between atoms: C_15  and  O_16
REMARK    5  A    between atoms: N_19  and  C_20
REMARK    6  A    between atoms: C_20  and  C_21
REMARK    7  A    between atoms: C_24  and  N_25
REMARK                            x       y       z     vdW  Elec       q    Type
REMARK                         _______ _______ _______ _____ _____    ______ ____
ROOT
ATOM      1  O   UNL     1     -10.860  -2.298  18.494  0.00  0.00    +0.000 OA
ATOM      2  C   UNL     1     -10.373  -3.425  18.398  0.00  0.00    +0.000 A 
ATOM      3  C   UNL     1      -9.288  -3.786  19.330  0.00  0.00    +0.000 A 
ATOM      4  C   UNL     1      -8.775  -2.805  20.197  0.00  0.00    +0.000 A 
ATOM      5  C   UNL     1      -7.734  -3.115  21.061  0.00  0.00    +0.000 A 
ATOM      6  C   UNL     1      -7.202  -4.389  21.093  0.00  0.00    +0.000 A 
ATOM      7  C   UNL     1      -7.715  -5.368  20.234  0.00  0.00    +0.000 A 
ATOM      8  C   UNL     1      -8.766  -5.094  19.326  0.00  0.00    +0.000 A 
ATOM      9  C   UNL     1      -9.312  -6.096  18.386  0.00  0.00    +0.000 A 
ATOM     10  C   UNL     1      -8.874  -7.443  18.383  0.00  0.00    +0.000 A 
ATOM     11  C   UNL     1      -9.394  -8.361  17.478  0.00  0.00    +0.000 A 
ATOM     12  C   UNL     1     -10.354  -7.966  16.565  0.00  0.00    +0.000 A 
ATOM     13  C   UNL     1     -10.811  -6.659  16.539  0.00  0.00    +0.000 A 
ATOM     14  C   UNL     1     -10.304  -5.708  17.446  0.00  0.00    +0.000 A 
ATOM     15  N   UNL     1     -10.793  -4.360  17.457  0.00  0.00    +0.000 N 
ATOM     16  H   UNL     1      -6.388  -4.620  21.773  0.00  0.00    +0.000 HD
ATOM     17  H   UNL     1      -7.252  -6.348  20.293  0.00  0.00    +0.000 HD
ATOM     18  H   UNL     1      -8.129  -7.790  19.089  0.00  0.00    +0.000 HD
ATOM     19  H   UNL     1     -11.579  -6.421  15.811  0.00  0.00    +0.000 HD
ENDROOT
BRANCH  15  20
ATOM     20  C   UNL     1     -11.813  -3.912  16.503  0.00  0.00    +0.000 C 
ATOM     21  H   UNL     1     -12.378  -3.088  16.959  0.00  0.00    +0.000 HD
ATOM     22  H   UNL     1     -12.550  -4.712  16.351  0.00  0.00    +0.000 HD
BRANCH  20  23
ATOM     23  C   UNL     1     -11.291  -3.498  15.141  0.00  0.00    +0.000 A 
ATOM     24  C   UNL     1     -10.334  -2.484  14.969  0.00  0.00    +0.000 A 
ATOM     25  C   UNL     1      -9.972  -2.051  13.692  0.00  0.00    +0.000 A 
ATOM     26  C   UNL     1     -10.549  -2.655  12.571  0.00  0.00    +0.000 A 
ATOM     27  C   UNL     1     -11.433  -3.731  12.719  0.00  0.00    +0.000 A 
ATOM     28  C   UNL     1     -11.796  -4.149  14.001  0.00  0.00    +0.000 A 
ATOM     29  H   UNL     1      -9.882  -1.991  15.827  0.00  0.00    +0.000 HD
ATOM     30  H   UNL     1      -9.262  -1.233  13.595  0.00  0.00    +0.000 HD
ATOM     31  H   UNL     1     -11.863  -4.232  11.855  0.00  0.00    +0.000 HD
ATOM     32  H   UNL     1     -12.502  -4.972  14.108  0.00  0.00    +0.000 HD
BRANCH  26  33
ATOM     33  N   UNL     1     -10.259  -2.128  11.233  0.00  0.00    +0.000 N 
ATOM     34  O   UNL     1     -11.044  -2.415  10.318  0.00  0.00    +0.000 OA
ATOM     35  O   UNL     1      -9.236  -1.443  11.092  0.00  0.00    +0.000 OA
ENDBRANCH  26  33
ENDBRANCH  20  23
ENDBRANCH  15  20
BRANCH   4  36
ATOM     36  O   UNL     1      -9.232  -1.510  20.254  0.00  0.00    +0.000 OA
ATOM     37  H   UNL     1     -10.187  -1.545  20.500  0.00  0.00    +0.000 HD
ENDBRANCH   4  36
BRANCH   5  38
ATOM     38  O   UNL     1      -7.219  -2.155  21.882  0.00  0.00    +0.000 OA
ATOM     39  H   UNL     1      -7.961  -1.914  22.474  0.00  0.00    +0.000 HD
ENDBRANCH   5  38
BRANCH  11  40
ATOM     40  O   UNL     1      -8.990  -9.667  17.451  0.00  0.00    +0.000 OA
ATOM     41  H   UNL     1      -8.571  -9.885  18.302  0.00  0.00    +0.000 HD
ENDBRANCH  11  40
BRANCH  12  42
ATOM     42  O   UNL     1     -10.868  -8.869  15.678  0.00  0.00    +0.000 OA
ATOM     43  H   UNL     1     -10.671  -8.493  14.795  0.00  0.00    +0.000 HD
ENDBRANCH  12  42
TORSDOF 7
ENDMDL
MODEL 6
REMARK VINA RESULT:    -8.198      3.357      6.057
REMARK INTER + INTRA:         -10.990
REMARK INTER:                 -10.471
REMARK INTRA:                  -0.519
REMARK UNBOUND:                -0.395
REMARK  Name = 
REMARK  7 active torsions:
REMARK  status: ('A' for Active; 'I' for Inactive)
REMARK    1  A    between atoms: C_4  and  O_5
REMARK    2  A    between atoms: C_6  and  O_7
REMARK    3  A    between atoms: C_13  and  O_14
REMARK    4  A    between atoms: C_15  and  O_16
REMARK    5  A    between atoms: N_19  and  C_20
REMARK    6  A    between atoms: C_20  and  C_21
REMARK    7  A    between atoms: C_24  and  N_25
REMARK                            x       y       z     vdW  Elec       q    Type
REMARK                         _______ _______ _______ _____ _____    ______ ____
ROOT
ATOM      1  O   UNL     1     -11.504  -5.880  16.025  0.00  0.00    +0.000 OA
ATOM      2  C   UNL     1     -10.766  -5.816  17.010  0.00  0.00    +0.000 A 
ATOM      3  C   UNL     1     -10.106  -7.057  17.456  0.00  0.00    +0.000 A 
ATOM      4  C   UNL     1     -10.435  -8.271  16.828  0.00  0.00    +0.000 A 
ATOM      5  C   UNL     1      -9.848  -9.455  17.251  0.00  0.00    +0.000 A 
ATOM      6  C   UNL     1      -8.927  -9.455  18.280  0.00  0.00    +0.000 A 
ATOM      7  C   UNL     1      -8.595  -8.246  18.903  0.00  0.00    +0.000 A 
ATOM      8  C   UNL     1      -9.178  -7.017  18.514  0.00  0.00    +0.000 A 
ATOM      9  C   UNL     1      -8.873  -5.727  19.169  0.00  0.00    +0.000 A 
ATOM     10  C   UNL     1      -7.899  -5.614  20.192  0.00  0.00    +0.000 A 
ATOM     11  C   UNL     1      -7.642  -4.391  20.801  0.00  0.00    +0.000 A 
ATOM     12  C   UNL     1      -8.338  -3.263  20.410  0.00  0.00    +0.000 A 
ATOM     13  C   UNL     1      -9.295  -3.332  19.411  0.00  0.00    +0.000 A 
ATOM     14  C   UNL     1      -9.574  -4.556  18.775  0.00  0.00    +0.000 A 
ATOM     15  N   UNL     1     -10.535  -4.637  17.713  0.00  0.00    +0.000 N 
ATOM     16  H   UNL     1      -8.474 -10.388  18.603  0.00  0.00    +0.000 HD
ATOM     17  H   UNL     1      -7.875  -8.306  19.712  0.00  0.00    +0.000 HD
ATOM     18  H   UNL     1      -7.329  -6.476  20.518  0.00  0.00    +0.000 HD
ATOM     19  H   UNL     1      -9.789  -2.405  19.139  0.00  0.00    +0.000 HD
ENDROOT
BRANCH  15  20
ATOM     20  C   UNL     1     -11.287  -3.457  17.275  0.00  0.00    +0.000 C 
ATOM     21  H   UNL     1     -11.502  -2.835  18.154  0.00  0.00    +0.000 HD
ATOM     22  H   UNL     1     -12.272  -3.769  16.900  0.00  0.00    +0.000 HD
BRANCH  20  23
ATOM     23  C   UNL     1     -10.621  -2.626  16.196  0.00  0.00    +0.000 A 
ATOM     24  C   UNL     1     -10.692  -2.954  14.832  0.00  0.00    +0.000 A 
ATOM     25  C   UNL     1      -9.964  -2.232  13.884  0.00  0.00    +0.000 A 
ATOM     26  C   UNL     1      -9.179  -1.151  14.297  0.00  0.00    +0.000 A 
ATOM     27  C   UNL     1      -9.170  -0.750  15.638  0.00  0.00    +0.000 A 
ATOM     28  C   UNL     1      -9.893  -1.486  16.579  0.00  0.00    +0.000 A 
ATOM     29  H   UNL     1     -11.286  -3.799  14.490  0.00  0.00    +0.000 HD
ATOM     30  H   UNL     1     -10.005  -2.540  12.841  0.00  0.00    +0.000 HD
ATOM     31  H   UNL     1      -8.590   0.110  15.967  0.00  0.00    +0.000 HD
ATOM     32  H   UNL     1      -9.863  -1.180  17.624  0.00  0.00    +0.000 HD
BRANCH  26  33
ATOM     33  N   UNL     1      -8.324  -0.462  13.323  0.00  0.00    +0.000 N 
ATOM     34  O   UNL     1      -8.050  -1.060  12.273  0.00  0.00    +0.000 OA
ATOM     35  O   UNL     1      -7.911   0.668  13.617  0.00  0.00    +0.000 OA
ENDBRANCH  26  33
ENDBRANCH  20  23
ENDBRANCH  15  20
BRANCH   4  36
ATOM     36  O   UNL     1     -11.332  -8.387  15.792  0.00  0.00    +0.000 OA
ATOM     37  H   UNL     1     -11.581  -9.339  15.724  0.00  0.00    +0.000 HD
ENDBRANCH   4  36
BRANCH   5  38
ATOM     38  O   UNL     1     -10.188 -10.636  16.659  0.00  0.00    +0.000 OA
ATOM     39  H   UNL     1      -9.362 -10.943  16.231  0.00  0.00    +0.000 HD
ENDBRANCH   5  38
BRANCH  11  40
ATOM     40  O   UNL     1      -6.709  -4.253  21.792  0.00  0.00    +0.000 OA
ATOM     41  H   UNL     1      -5.912  -3.838  21.418  0.00  0.00    +0.000 HD
ENDBRANCH  11  40
BRANCH  12  42
ATOM     42  O   UNL     1      -8.083  -2.060  21.006  0.00  0.00    +0.000 OA
ATOM     43  H   UNL     1      -7.423  -2.260  21.703  0.00  0.00    +0.000 HD
ENDBRANCH  12  42
TORSDOF 7
ENDMDL
MODEL 7
REMARK VINA RESULT:    -8.161      3.359      7.485
REMARK INTER + INTRA:         -10.942
REMARK INTER:                 -10.272
REMARK INTRA:                  -0.670
REMARK UNBOUND:                -0.395
REMARK  Name = 
REMARK  7 active torsions:
REMARK  status: ('A' for Active; 'I' for Inactive)
REMARK    1  A    between atoms: C_4  and  O_5
REMARK    2  A    between atoms: C_6  and  O_7
REMARK    3  A    between atoms: C_13  and  O_14
REMARK    4  A    between atoms: C_15  and  O_16
REMARK    5  A    between atoms: N_19  and  C_20
REMARK    6  A    between atoms: C_20  and  C_21
REMARK    7  A    between atoms: C_24  and  N_25
REMARK                            x       y       z     vdW  Elec       q    Type
REMARK                         _______ _______ _______ _____ _____    ______ ____
ROOT
ATOM      1  O   UNL     1     -10.489  -2.653  19.150  0.00  0.00    +0.000 OA
ATOM      2  C   UNL     1     -10.077  -3.765  18.818  0.00  0.00    +0.000 A 
ATOM      3  C   UNL     1      -8.825  -4.246  19.431  0.00  0.00    +0.000 A 
ATOM      4  C   UNL     1      -8.095  -3.380  20.264  0.00  0.00    +0.000 A 
ATOM      5  C   UNL     1      -6.898  -3.801  20.827  0.00  0.00    +0.000 A 
ATOM      6  C   UNL     1      -6.420  -5.075  20.592  0.00  0.00    +0.000 A 
ATOM      7  C   UNL     1      -7.149  -5.940  19.767  0.00  0.00    +0.000 A 
ATOM      8  C   UNL     1      -8.366  -5.549  19.160  0.00  0.00    +0.000 A 
ATOM      9  C   UNL     1      -9.147  -6.426  18.261  0.00  0.00    +0.000 A 
ATOM     10  C   UNL     1      -8.770  -7.768  18.005  0.00  0.00    +0.000 A 
ATOM     11  C   UNL     1      -9.514  -8.566  17.144  0.00  0.00    +0.000 A 
ATOM     12  C   UNL     1     -10.640  -8.056  16.525  0.00  0.00    +0.000 A 
ATOM     13  C   UNL     1     -11.042  -6.750  16.752  0.00  0.00    +0.000 A 
ATOM     14  C   UNL     1     -10.310  -5.919  17.621  0.00  0.00    +0.000 A 
ATOM     15  N   UNL     1     -10.733  -4.577  17.897  0.00  0.00    +0.000 N 
ATOM     16  H   UNL     1      -5.483  -5.394  21.038  0.00  0.00    +0.000 HD
ATOM     17  H   UNL     1      -6.721  -6.924  19.608  0.00  0.00    +0.000 HD
ATOM     18  H   UNL     1      -7.899  -8.204  18.479  0.00  0.00    +0.000 HD
ATOM     19  H   UNL     1     -11.945  -6.419  16.250  0.00  0.00    +0.000 HD
ENDROOT
BRANCH  15  20
ATOM     20  C   UNL     1     -11.924  -4.008  17.257  0.00  0.00    +0.000 C 
ATOM     21  H   UNL     1     -12.395  -3.307  17.960  0.00  0.00    +0.000 HD
ATOM     22  H   UNL     1     -12.671  -4.800  17.102  0.00  0.00    +0.000 HD
BRANCH  20  23
ATOM     23  C   UNL     1     -11.684  -3.330  15.923  0.00  0.00    +0.000 A 
ATOM     24  C   UNL     1     -11.504  -4.046  14.727  0.00  0.00    +0.000 A 
ATOM     25  C   UNL     1     -11.165  -3.388  13.544  0.00  0.00    +0.000 A 
ATOM     26  C   UNL     1     -11.030  -1.996  13.544  0.00  0.00    +0.000 A 
ATOM     27  C   UNL     1     -11.297  -1.256  14.703  0.00  0.00    +0.000 A 
ATOM     28  C   UNL     1     -11.626  -1.925  15.883  0.00  0.00    +0.000 A 
ATOM     29  H   UNL     1     -11.592  -5.130  14.707  0.00  0.00    +0.000 HD
ATOM     30  H   UNL     1     -10.989  -3.976  12.645  0.00  0.00    +0.000 HD
ATOM     31  H   UNL     1     -11.229  -0.171  14.708  0.00  0.00    +0.000 HD
ATOM     32  H   UNL     1     -11.810  -1.344  16.786  0.00  0.00    +0.000 HD
BRANCH  26  33
ATOM     33  N   UNL     1     -10.562  -1.312  12.334  0.00  0.00    +0.000 N 
ATOM     34  O   UNL     1     -10.415  -1.993  11.308  0.00  0.00    +0.000 OA
ATOM     35  O   UNL     1     -10.322  -0.099  12.412  0.00  0.00    +0.000 OA
ENDBRANCH  26  33
ENDBRANCH  20  23
ENDBRANCH  15  20
BRANCH   4  36
ATOM     36  O   UNL     1      -8.479  -2.096  20.571  0.00  0.00    +0.000 OA
ATOM     37  H   UNL     1      -9.452  -2.037  20.422  0.00  0.00    +0.000 HD
ENDBRANCH   4  36
BRANCH   5  38
ATOM     38  O   UNL     1      -6.176  -2.951  21.613  0.00  0.00    +0.000 OA
ATOM     39  H   UNL     1      -5.327  -2.839  21.137  0.00  0.00    +0.000 HD
ENDBRANCH   5  38
BRANCH  11  40
ATOM     40  O   UNL     1      -9.174  -9.864  16.877  0.00  0.00    +0.000 OA
ATOM     41  H   UNL     1      -9.446 -10.081  15.969  0.00  0.00    +0.000 HD
ENDBRANCH  11  40
BRANCH  12  42
ATOM     42  O   UNL     1     -11.373  -8.841  15.681  0.00  0.00    +0.000 OA
ATOM     43  H   UNL     1     -11.473  -9.693  16.154  0.00  0.00    +0.000 HD
ENDBRANCH  12  42
TORSDOF 7
ENDMDL
MODEL 8
REMARK VINA RESULT:    -8.112      3.033      7.939
REMARK INTER + INTRA:         -10.878
REMARK INTER:                 -10.265
REMARK INTRA:                  -0.613
REMARK UNBOUND:                -0.395
REMARK  Name = 
REMARK  7 active torsions:
REMARK  status: ('A' for Active; 'I' for Inactive)
REMARK    1  A    between atoms: C_4  and  O_5
REMARK    2  A    between atoms: C_6  and  O_7
REMARK    3  A    between atoms: C_13  and  O_14
REMARK    4  A    between atoms: C_15  and  O_16
REMARK    5  A    between atoms: N_19  and  C_20
REMARK    6  A    between atoms: C_20  and  C_21
REMARK    7  A    between atoms: C_24  and  N_25
REMARK                            x       y       z     vdW  Elec       q    Type
REMARK                         _______ _______ _______ _____ _____    ______ ____
ROOT
ATOM      1  O   UNL     1      -7.059  -4.370  21.824  0.00  0.00    +0.000 OA
ATOM      2  C   UNL     1      -8.014  -3.857  21.239  0.00  0.00    +0.000 A 
ATOM      3  C   UNL     1      -8.914  -2.989  22.021  0.00  0.00    +0.000 A 
ATOM      4  C   UNL     1      -8.724  -2.879  23.409  0.00  0.00    +0.000 A 
ATOM      5  C   UNL     1      -9.577  -2.092  24.169  0.00  0.00    +0.000 A 
ATOM      6  C   UNL     1     -10.610  -1.395  23.573  0.00  0.00    +0.000 A 
ATOM      7  C   UNL     1     -10.797  -1.499  22.189  0.00  0.00    +0.000 A 
ATOM      8  C   UNL     1      -9.961  -2.301  21.377  0.00  0.00    +0.000 A 
ATOM      9  C   UNL     1     -10.147  -2.456  19.918  0.00  0.00    +0.000 A 
ATOM     10  C   UNL     1     -11.140  -1.738  19.206  0.00  0.00    +0.000 A 
ATOM     11  C   UNL     1     -11.304  -1.913  17.837  0.00  0.00    +0.000 A 
ATOM     12  C   UNL     1     -10.492  -2.796  17.150  0.00  0.00    +0.000 A 
ATOM     13  C   UNL     1      -9.508  -3.514  17.810  0.00  0.00    +0.000 A 
ATOM     14  C   UNL     1      -9.317  -3.355  19.196  0.00  0.00    +0.000 A 
ATOM     15  N   UNL     1      -8.280  -4.062  19.887  0.00  0.00    +0.000 N 
ATOM     16  H   UNL     1     -11.271  -0.782  24.177  0.00  0.00    +0.000 HD
ATOM     17  H   UNL     1     -11.630  -0.940  21.775  0.00  0.00    +0.000 HD
ATOM     18  H   UNL     1     -11.788  -1.032  19.711  0.00  0.00    +0.000 HD
ATOM     19  H   UNL     1      -8.893  -4.174  17.207  0.00  0.00    +0.000 HD
ENDROOT
BRANCH  15  20
ATOM     20  C   UNL     1      -7.401  -5.003  19.186  0.00  0.00    +0.000 C 
ATOM     21  H   UNL     1      -6.479  -5.121  19.771  0.00  0.00    +0.000 HD
ATOM     22  H   UNL     1      -7.078  -4.563  18.232  0.00  0.00    +0.000 HD
BRANCH  20  23
ATOM     23  C   UNL     1      -8.009  -6.360  18.887  0.00  0.00    +0.000 A 
ATOM     24  C   UNL     1      -8.334  -7.285  19.893  0.00  0.00    +0.000 A 
ATOM     25  C   UNL     1      -8.777  -8.568  19.567  0.00  0.00    +0.000 A 
ATOM     26  C   UNL     1      -8.926  -8.925  18.223  0.00  0.00    +0.000 A 
ATOM     27  C   UNL     1      -8.697  -7.988  17.209  0.00  0.00    +0.000 A 
ATOM     28  C   UNL     1      -8.244  -6.710  17.545  0.00  0.00    +0.000 A 
ATOM     29  H   UNL     1      -8.214  -7.033  20.944  0.00  0.00    +0.000 HD
ATOM     30  H   UNL     1      -8.978  -9.276  20.369  0.00  0.00    +0.000 HD
ATOM     31  H   UNL     1      -8.841  -8.242  16.161  0.00  0.00    +0.000 HD
ATOM     32  H   UNL     1      -8.048  -5.993  16.749  0.00  0.00    +0.000 HD
BRANCH  26  33
ATOM     33  N   UNL     1      -9.280 -10.305  17.875  0.00  0.00    +0.000 N 
ATOM     34  O   UNL     1      -8.713 -11.219  18.492  0.00  0.00    +0.000 OA
ATOM     35  O   UNL     1     -10.109 -10.478  16.970  0.00  0.00    +0.000 OA
ENDBRANCH  26  33
ENDBRANCH  20  23
ENDBRANCH  15  20
BRANCH   4  36
ATOM     36  O   UNL     1      -7.727  -3.522  24.106  0.00  0.00    +0.000 OA
ATOM     37  H   UNL     1      -7.035  -3.783  23.453  0.00  0.00    +0.000 HD
ENDBRANCH   4  36
BRANCH   5  38
ATOM     38  O   UNL     1      -9.409  -2.009  25.521  0.00  0.00    +0.000 OA
ATOM     39  H   UNL     1      -8.449  -2.153  25.657  0.00  0.00    +0.000 HD
ENDBRANCH   5  38
BRANCH  11  40
ATOM     40  O   UNL     1     -12.253  -1.235  17.124  0.00  0.00    +0.000 OA
ATOM     41  H   UNL     1     -12.944  -0.926  17.734  0.00  0.00    +0.000 HD
ENDBRANCH  11  40
BRANCH  12  42
ATOM     42  O   UNL     1     -10.650  -2.966  15.804  0.00  0.00    +0.000 OA
ATOM     43  H   UNL     1      -9.899  -2.485  15.399  0.00  0.00    +0.000 HD
ENDBRANCH  12  42
TORSDOF 7
ENDMDL
MODEL 9
REMARK VINA RESULT:    -7.885      3.841      8.699
REMARK INTER + INTRA:         -10.585
REMARK INTER:                  -9.911
REMARK INTRA:                  -0.674
REMARK UNBOUND:                -0.395
REMARK  Name = 
REMARK  7 active torsions:
REMARK  status: ('A' for Active; 'I' for Inactive)
REMARK    1  A    between atoms: C_4  and  O_5
REMARK    2  A    between atoms: C_6  and  O_7
REMARK    3  A    between atoms: C_13  and  O_14
REMARK    4  A    between atoms: C_15  and  O_16
REMARK    5  A    between atoms: N_19  and  C_20
REMARK    6  A    between atoms: C_20  and  C_21
REMARK    7  A    between atoms: C_24  and  N_25
REMARK                            x       y       z     vdW  Elec       q    Type
REMARK                         _______ _______ _______ _____ _____    ______ ____
ROOT
ATOM      1  O   UNL     1      -6.846  -4.232  22.409  0.00  0.00    +0.000 OA
ATOM      2  C   UNL     1      -7.838  -3.507  22.313  0.00  0.00    +0.000 A 
ATOM      3  C   UNL     1      -8.457  -3.021  23.560  0.00  0.00    +0.000 A 
ATOM      4  C   UNL     1      -7.977  -3.496  24.793  0.00  0.00    +0.000 A 
ATOM      5  C   UNL     1      -8.565  -3.075  25.978  0.00  0.00    +0.000 A 
ATOM      6  C   UNL     1      -9.614  -2.177  25.963  0.00  0.00    +0.000 A 
ATOM      7  C   UNL     1     -10.090  -1.700  24.736  0.00  0.00    +0.000 A 
ATOM      8  C   UNL     1      -9.531  -2.112  23.503  0.00  0.00    +0.000 A 
ATOM      9  C   UNL     1     -10.027  -1.650  22.189  0.00  0.00    +0.000 A 
ATOM     10  C   UNL     1     -11.058  -0.685  22.070  0.00  0.00    +0.000 A 
ATOM     11  C   UNL     1     -11.517  -0.280  20.822  0.00  0.00    +0.000 A 
ATOM     12  C   UNL     1     -10.965  -0.816  19.674  0.00  0.00    +0.000 A 
ATOM     13  C   UNL     1      -9.952  -1.759  19.748  0.00  0.00    +0.000 A 
ATOM     14  C   UNL     1      -9.467  -2.187  20.998  0.00  0.00    +0.000 A 
ATOM     15  N   UNL     1      -8.395  -3.134  21.093  0.00  0.00    +0.000 N 
ATOM     16  H   UNL     1     -10.066  -1.855  26.896  0.00  0.00    +0.000 HD
ATOM     17  H   UNL     1     -10.923  -1.006  24.782  0.00  0.00    +0.000 HD
ATOM     18  H   UNL     1     -11.508  -0.238  22.948  0.00  0.00    +0.000 HD
ATOM     19  H   UNL     1      -9.551  -2.124  18.809  0.00  0.00    +0.000 HD
ENDROOT
BRANCH  15  20
ATOM     20  C   UNL     1      -7.787  -3.719  19.893  0.00  0.00    +0.000 C 
ATOM     21  H   UNL     1      -6.704  -3.802  20.056  0.00  0.00    +0.000 HD
ATOM     22  H   UNL     1      -7.895  -3.022  19.050  0.00  0.00    +0.000 HD
BRANCH  20  23
ATOM     23  C   UNL     1      -8.356  -5.056  19.463  0.00  0.00    +0.000 A 
ATOM     24  C   UNL     1      -7.875  -6.281  19.955  0.00  0.00    +0.000 A 
ATOM     25  C   UNL     1      -8.343  -7.491  19.442  0.00  0.00    +0.000 A 
ATOM     26  C   UNL     1      -9.326  -7.484  18.447  0.00  0.00    +0.000 A 
ATOM     27  C   UNL     1      -9.886  -6.277  18.010  0.00  0.00    +0.000 A 
ATOM     28  C   UNL     1      -9.402  -5.072  18.523  0.00  0.00    +0.000 A 
ATOM     29  H   UNL     1      -7.102  -6.310  20.720  0.00  0.00    +0.000 HD
ATOM     30  H   UNL     1      -7.917  -8.422  19.813  0.00  0.00    +0.000 HD
ATOM     31  H   UNL     1     -10.674  -6.258  17.261  0.00  0.00    +0.000 HD
ATOM     32  H   UNL     1      -9.828  -4.136  18.162  0.00  0.00    +0.000 HD
BRANCH  26  33
ATOM     33  N   UNL     1      -9.738  -8.747  17.824  0.00  0.00    +0.000 N 
ATOM     34  O   UNL     1      -9.155  -9.781  18.180  0.00  0.00    +0.000 OA
ATOM     35  O   UNL     1     -10.630  -8.703  16.966  0.00  0.00    +0.000 OA
ENDBRANCH  26  33
ENDBRANCH  20  23
ENDBRANCH  15  20
BRANCH   4  36
ATOM     36  O   UNL     1      -6.936  -4.385  24.926  0.00  0.00    +0.000 OA
ATOM     37  H   UNL     1      -6.167  -4.013  24.435  0.00  0.00    +0.000 HD
ENDBRANCH   4  36
BRANCH   5  38
ATOM     38  O   UNL     1      -8.116  -3.558  27.173  0.00  0.00    +0.000 OA
ATOM     39  H   UNL     1      -7.849  -2.760  27.675  0.00  0.00    +0.000 HD
ENDBRANCH   5  38
BRANCH  11  40
ATOM     40  O   UNL     1     -12.511   0.648  20.677  0.00  0.00    +0.000 OA
ATOM     41  H   UNL     1     -13.315   0.320  21.114  0.00  0.00    +0.000 HD
ENDBRANCH  11  40
BRANCH  12  42
ATOM     42  O   UNL     1     -11.413  -0.416  18.447  0.00  0.00    +0.000 OA
ATOM     43  H   UNL     1     -10.605  -0.160  17.956  0.00  0.00    +0.000 HD
ENDBRANCH  12  42
TORSDOF 7
ENDMDL
