REMARK  Name = 
REMARK  2 active torsions:
REMARK  status: ('A' for Active; 'I' for Inactive)
REMARK    1  A    between atoms: C_1  and  N_2
REMARK    2  A    between atoms: C_13  and  O_14
REMARK                            x       y       z     vdW  Elec       q    Type
REMARK                         _______ _______ _______ _____ _____    ______ ____
ROOT
ATOM      1  N   UNL     1      -3.209   0.754   2.429  0.00  0.00    +0.000 N 
ATOM      2  C   UNL     1      -3.899   1.878   2.851  0.00  0.00    +0.000 A 
ATOM      3  C   UNL     1      -3.754   2.802   1.856  0.00  0.00    +0.000 A 
ATOM      4  C   UNL     1      -2.592   2.426   1.143  0.00  0.00    +0.000 A 
ATOM      5  C   UNL     1      -1.884   3.142   0.167  0.00  0.00    +0.000 A 
ATOM      6  C   UNL     1      -0.792   2.571  -0.449  0.00  0.00    +0.000 A 
ATOM      7  C   UNL     1      -0.494   1.243  -0.183  0.00  0.00    +0.000 A 
ATOM      8  C   UNL     1       0.484   0.656  -0.989  0.00  0.00    +0.000 A 
ATOM      9  N   UNL     1       1.474   1.155  -1.800  0.00  0.00    +0.000 N 
ATOM     10  C   UNL     1       2.376   0.161  -2.132  0.00  0.00    +0.000 A 
ATOM     11  C   UNL     1       3.636   0.286  -2.718  0.00  0.00    +0.000 A 
ATOM     12  C   UNL     1       4.357  -0.883  -2.919  0.00  0.00    +0.000 A 
ATOM     13  C   UNL     1       3.845  -2.128  -2.576  0.00  0.00    +0.000 A 
ATOM     14  C   UNL     1       2.583  -2.237  -1.987  0.00  0.00    +0.000 A 
ATOM     15  C   UNL     1       1.835  -1.070  -1.733  0.00  0.00    +0.000 A 
ATOM     16  C   UNL     1       0.668  -0.694  -1.064  0.00  0.00    +0.000 A 
ATOM     17  C   UNL     1       0.021  -1.545  -0.132  0.00  0.00    +0.000 A 
ATOM     18  C   UNL     1      -0.564  -0.831   0.964  0.00  0.00    +0.000 A 
ATOM     19  C   UNL     1      -1.122   0.465   0.848  0.00  0.00    +0.000 A 
ATOM     20  C   UNL     1      -2.206   1.111   1.525  0.00  0.00    +0.000 A 
ATOM     21  C   UNL     1       0.059  -1.489   2.104  0.00  0.00    +0.000 C 
ATOM     22  O   UNL     1       0.509  -1.059   3.162  0.00  0.00    +0.000 OA
ATOM     23  N   UNL     1       0.393  -2.747   1.620  0.00  0.00    +0.000 N 
ATOM     24  C   UNL     1       0.344  -2.883   0.263  0.00  0.00    +0.000 C 
ATOM     25  O   UNL     1       0.548  -3.937  -0.343  0.00  0.00    +0.000 OA
ATOM     26  H   UNL     1      -4.596   1.845   3.679  0.00  0.00    +0.000 HD
ATOM     27  H   UNL     1      -4.348   3.694   1.705  0.00  0.00    +0.000 HD
ATOM     28  H   UNL     1      -2.207   4.140  -0.115  0.00  0.00    +0.000 HD
ATOM     29  H   UNL     1      -0.255   3.152  -1.189  0.00  0.00    +0.000 HD
ATOM     30  H   UNL     1       1.653   2.140  -1.917  0.00  0.00    +0.000 HD
ATOM     31  H   UNL     1       4.034   1.260  -2.971  0.00  0.00    +0.000 HD
ATOM     32  H   UNL     1       4.435  -3.025  -2.748  0.00  0.00    +0.000 HD
ATOM     33  H   UNL     1       2.222  -3.224  -1.719  0.00  0.00    +0.000 HD
ATOM     34  H   UNL     1       1.040  -3.347   2.111  0.00  0.00    +0.000 HD
ENDROOT
BRANCH   1  35
ATOM     35  C   UNL     1      -3.870  -0.530   2.560  0.00  0.00    +0.000 C 
ATOM     36  H   UNL     1      -3.308  -1.176   3.229  0.00  0.00    +0.000 HD
ATOM     37  H   UNL     1      -4.002  -0.951   1.561  0.00  0.00    +0.000 HD
ATOM     38  H   UNL     1      -4.874  -0.358   2.977  0.00  0.00    +0.000 HD
ENDBRANCH   1  35
BRANCH  12  39
ATOM     39  O   UNL     1       5.612  -0.849  -3.454  0.00  0.00    +0.000 OA
ATOM     40  H   UNL     1       5.848   0.080  -3.612  0.00  0.00    +0.000 HD
ENDBRANCH  12  39
TORSDOF 2
