MODEL 1
REMARK VINA RESULT:   -11.288      0.000      0.000
REMARK INTER + INTRA:         -15.357
REMARK INTER:                 -15.247
REMARK INTRA:                  -0.110
REMARK UNBOUND:                -0.110
REMARK  Name = 
REMARK  8 active torsions:
REMARK  status: ('A' for Active; 'I' for Inactive)
REMARK    1  A    between atoms: C_4  and  O_5
REMARK    2  A    between atoms: C_6  and  O_7
REMARK    3  A    between atoms: C_13  and  O_14
REMARK    4  A    between atoms: C_15  and  O_16
REMARK    5  A    between atoms: N_19  and  C_20
REMARK    6  A    between atoms: C_20  and  C_21
REMARK    7  A    between atoms: C_24  and  S_25
REMARK    8  A    between atoms: S_25  and  C_28
REMARK                            x       y       z     vdW  Elec       q    Type
REMARK                         _______ _______ _______ _____ _____    ______ ____
ROOT
ATOM      1  O   UNL     1      -8.709  -3.285  18.860  0.00  0.00    +0.000 OA
ATOM      2  C   UNL     1      -8.856  -2.993  20.049  0.00  0.00    +0.000 A 
ATOM      3  C   UNL     1      -9.810  -1.905  20.371  0.00  0.00    +0.000 A 
ATOM      4  C   UNL     1     -10.445  -1.205  19.327  0.00  0.00    +0.000 A 
ATOM      5  C   UNL     1     -11.333  -0.175  19.610  0.00  0.00    +0.000 A 
ATOM      6  C   UNL     1     -11.610   0.173  20.915  0.00  0.00    +0.000 A 
ATOM      7  C   UNL     1     -10.979  -0.517  21.955  0.00  0.00    +0.000 A 
ATOM      8  C   UNL     1     -10.062  -1.568  21.712  0.00  0.00    +0.000 A 
ATOM      9  C   UNL     1      -9.367  -2.303  22.792  0.00  0.00    +0.000 A 
ATOM     10  C   UNL     1      -9.612  -2.028  24.162  0.00  0.00    +0.000 A 
ATOM     11  C   UNL     1      -8.940  -2.717  25.163  0.00  0.00    +0.000 A 
ATOM     12  C   UNL     1      -8.021  -3.692  24.829  0.00  0.00    +0.000 A 
ATOM     13  C   UNL     1      -7.770  -4.000  23.502  0.00  0.00    +0.000 A 
ATOM     14  C   UNL     1      -8.422  -3.311  22.463  0.00  0.00    +0.000 A 
ATOM     15  N   UNL     1      -8.166  -3.625  21.086  0.00  0.00    +0.000 N 
ATOM     16  H   UNL     1     -12.309   0.980  21.129  0.00  0.00    +0.000 HD
ATOM     17  H   UNL     1     -11.229  -0.195  22.961  0.00  0.00    +0.000 HD
ATOM     18  H   UNL     1     -10.331  -1.275  24.461  0.00  0.00    +0.000 HD
ATOM     19  H   UNL     1      -7.065  -4.800  23.324  0.00  0.00    +0.000 HD
ENDROOT
BRANCH  15  20
ATOM     20  C   UNL     1      -7.122  -4.590  20.695  0.00  0.00    +0.000 C 
ATOM     21  H   UNL     1      -6.736  -5.090  21.593  0.00  0.00    +0.000 HD
ATOM     22  H   UNL     1      -6.245  -4.084  20.281  0.00  0.00    +0.000 HD
BRANCH  20  23
ATOM     23  C   UNL     1      -7.651  -5.653  19.746  0.00  0.00    +0.000 A 
ATOM     24  C   UNL     1      -7.051  -5.876  18.498  0.00  0.00    +0.000 A 
ATOM     25  C   UNL     1      -7.650  -6.714  17.556  0.00  0.00    +0.000 A 
ATOM     26  C   UNL     1      -8.852  -7.347  17.872  0.00  0.00    +0.000 A 
ATOM     27  C   UNL     1      -9.406  -7.232  19.148  0.00  0.00    +0.000 A 
ATOM     28  C   UNL     1      -8.808  -6.379  20.077  0.00  0.00    +0.000 A 
ATOM     29  H   UNL     1      -6.127  -5.377  18.221  0.00  0.00    +0.000 HD
ATOM     30  H   UNL     1      -7.195  -6.830  16.576  0.00  0.00    +0.000 HD
ATOM     31  H   UNL     1     -10.318  -7.762  19.412  0.00  0.00    +0.000 HD
ATOM     32  H   UNL     1      -9.272  -6.254  21.055  0.00  0.00    +0.000 HD
BRANCH  26  33
ATOM     33  S   UNL     1      -9.729  -8.220  16.598  0.00  0.00    +0.000 S 
ATOM     34  O   UNL     1     -11.143  -8.161  16.914  0.00  0.00    +0.000 OA
ATOM     35  O   UNL     1      -9.243  -7.741  15.315  0.00  0.00    +0.000 OA
BRANCH  33  36
ATOM     36  C   UNL     1      -9.205  -9.915  16.775  0.00  0.00    +0.000 A 
ATOM     37  C   UNL     1      -9.166 -10.747  15.651  0.00  0.00    +0.000 A 
ATOM     38  C   UNL     1      -8.809 -12.086  15.803  0.00  0.00    +0.000 A 
ATOM     39  C   UNL     1      -8.481 -12.586  17.066  0.00  0.00    +0.000 A 
ATOM     40  C   UNL     1      -8.497 -11.744  18.179  0.00  0.00    +0.000 A 
ATOM     41  C   UNL     1      -8.856 -10.402  18.038  0.00  0.00    +0.000 A 
ATOM     42  H   UNL     1      -9.420 -10.368  14.664  0.00  0.00    +0.000 HD
ATOM     43  H   UNL     1      -8.785 -12.745  14.938  0.00  0.00    +0.000 HD
ATOM     44  H   UNL     1      -8.206 -13.632  17.182  0.00  0.00    +0.000 HD
ATOM     45  H   UNL     1      -8.232 -12.135  19.159  0.00  0.00    +0.000 HD
ATOM     46  H   UNL     1      -8.870  -9.754  18.911  0.00  0.00    +0.000 HD
ENDBRANCH  33  36
ENDBRANCH  26  33
ENDBRANCH  20  23
ENDBRANCH  15  20
BRANCH   4  47
ATOM     47  O   UNL     1     -10.245  -1.465  17.991  0.00  0.00    +0.000 OA
ATOM     48  H   UNL     1      -9.934  -0.627  17.575  0.00  0.00    +0.000 HD
ENDBRANCH   4  47
BRANCH   5  49
ATOM     49  O   UNL     1     -11.936   0.511  18.596  0.00  0.00    +0.000 OA
ATOM     50  H   UNL     1     -11.219   0.674  17.949  0.00  0.00    +0.000 HD
ENDBRANCH   5  49
BRANCH  11  51
ATOM     51  O   UNL     1      -9.156  -2.476  26.490  0.00  0.00    +0.000 OA
ATOM     52  H   UNL     1     -10.009  -2.869  26.746  0.00  0.00    +0.000 HD
ENDBRANCH  11  51
BRANCH  12  53
ATOM     53  O   UNL     1      -7.356  -4.376  25.805  0.00  0.00    +0.000 OA
ATOM     54  H   UNL     1      -7.848  -5.217  25.901  0.00  0.00    +0.000 HD
ENDBRANCH  12  53
TORSDOF 8
ENDMDL
MODEL 2
REMARK VINA RESULT:   -10.927      0.915      4.140
REMARK INTER + INTRA:         -14.870
REMARK INTER:                 -14.511
REMARK INTRA:                  -0.359
REMARK UNBOUND:                -0.110
REMARK  Name = 
REMARK  8 active torsions:
REMARK  status: ('A' for Active; 'I' for Inactive)
REMARK    1  A    between atoms: C_4  and  O_5
REMARK    2  A    between atoms: C_6  and  O_7
REMARK    3  A    between atoms: C_13  and  O_14
REMARK    4  A    between atoms: C_15  and  O_16
REMARK    5  A    between atoms: N_19  and  C_20
REMARK    6  A    between atoms: C_20  and  C_21
REMARK    7  A    between atoms: C_24  and  S_25
REMARK    8  A    between atoms: S_25  and  C_28
REMARK                            x       y       z     vdW  Elec       q    Type
REMARK                         _______ _______ _______ _____ _____    ______ ____
ROOT
ATOM      1  O   UNL     1      -6.442  -4.348  23.336  0.00  0.00    +0.000 OA
ATOM      2  C   UNL     1      -7.358  -3.799  22.720  0.00  0.00    +0.000 A 
ATOM      3  C   UNL     1      -8.378  -3.076  23.516  0.00  0.00    +0.000 A 
ATOM      4  C   UNL     1      -8.310  -3.104  24.922  0.00  0.00    +0.000 A 
ATOM      5  C   UNL     1      -9.265  -2.443  25.685  0.00  0.00    +0.000 A 
ATOM      6  C   UNL     1     -10.287  -1.745  25.077  0.00  0.00    +0.000 A 
ATOM      7  C   UNL     1     -10.360  -1.717  23.681  0.00  0.00    +0.000 A 
ATOM      8  C   UNL     1      -9.413  -2.383  22.866  0.00  0.00    +0.000 A 
ATOM      9  C   UNL     1      -9.477  -2.386  21.387  0.00  0.00    +0.000 A 
ATOM     10  C   UNL     1     -10.478  -1.673  20.679  0.00  0.00    +0.000 A 
ATOM     11  C   UNL     1     -10.532  -1.698  19.292  0.00  0.00    +0.000 A 
ATOM     12  C   UNL     1      -9.594  -2.421  18.581  0.00  0.00    +0.000 A 
ATOM     13  C   UNL     1      -8.591  -3.114  19.238  0.00  0.00    +0.000 A 
ATOM     14  C   UNL     1      -8.517  -3.122  20.643  0.00  0.00    +0.000 A 
ATOM     15  N   UNL     1      -7.480  -3.839  21.329  0.00  0.00    +0.000 N 
ATOM     16  H   UNL     1     -11.030  -1.227  25.681  0.00  0.00    +0.000 HD
ATOM     17  H   UNL     1     -11.190  -1.159  23.258  0.00  0.00    +0.000 HD
ATOM     18  H   UNL     1     -11.226  -1.090  21.205  0.00  0.00    +0.000 HD
ATOM     19  H   UNL     1      -7.875  -3.624  18.609  0.00  0.00    +0.000 HD
ENDROOT
BRANCH  15  20
ATOM     20  C   UNL     1      -6.525  -4.697  20.605  0.00  0.00    +0.000 C 
ATOM     21  H   UNL     1      -5.912  -5.250  21.329  0.00  0.00    +0.000 HD
ATOM     22  H   UNL     1      -5.797  -4.102  20.047  0.00  0.00    +0.000 HD
BRANCH  20  23
ATOM     23  C   UNL     1      -7.227  -5.703  19.706  0.00  0.00    +0.000 A 
ATOM     24  C   UNL     1      -6.831  -5.887  18.373  0.00  0.00    +0.000 A 
ATOM     25  C   UNL     1      -7.592  -6.667  17.502  0.00  0.00    +0.000 A 
ATOM     26  C   UNL     1      -8.753  -7.281  17.973  0.00  0.00    +0.000 A 
ATOM     27  C   UNL     1      -9.103  -7.208  19.321  0.00  0.00    +0.000 A 
ATOM     28  C   UNL     1      -8.343  -6.413  20.181  0.00  0.00    +0.000 A 
ATOM     29  H   UNL     1      -5.943  -5.401  17.978  0.00  0.00    +0.000 HD
ATOM     30  H   UNL     1      -7.295  -6.752  16.460  0.00  0.00    +0.000 HD
ATOM     31  H   UNL     1      -9.981  -7.725  19.701  0.00  0.00    +0.000 HD
ATOM     32  H   UNL     1      -8.649  -6.319  21.223  0.00  0.00    +0.000 HD
BRANCH  26  33
ATOM     33  S   UNL     1      -9.841  -8.075  16.814  0.00  0.00    +0.000 S 
ATOM     34  O   UNL     1     -11.178  -8.049  17.374  0.00  0.00    +0.000 OA
ATOM     35  O   UNL     1      -9.583  -7.506  15.502  0.00  0.00    +0.000 OA
BRANCH  33  36
ATOM     36  C   UNL     1      -9.300  -9.773  16.782  0.00  0.00    +0.000 A 
ATOM     37  C   UNL     1      -9.255 -10.461  15.566  0.00  0.00    +0.000 A 
ATOM     38  C   UNL     1      -8.885 -11.805  15.553  0.00  0.00    +0.000 A 
ATOM     39  C   UNL     1      -8.549 -12.452  16.745  0.00  0.00    +0.000 A 
ATOM     40  C   UNL     1      -8.571 -11.753  17.953  0.00  0.00    +0.000 A 
ATOM     41  C   UNL     1      -8.944 -10.407  17.977  0.00  0.00    +0.000 A 
ATOM     42  H   UNL     1      -9.514  -9.968  14.632  0.00  0.00    +0.000 HD
ATOM     43  H   UNL     1      -8.856 -12.354  14.615  0.00  0.00    +0.000 HD
ATOM     44  H   UNL     1      -8.264 -13.502  16.733  0.00  0.00    +0.000 HD
ATOM     45  H   UNL     1      -8.301 -12.257  18.878  0.00  0.00    +0.000 HD
ATOM     46  H   UNL     1      -8.961  -9.871  18.922  0.00  0.00    +0.000 HD
ENDBRANCH  33  36
ENDBRANCH  26  33
ENDBRANCH  20  23
ENDBRANCH  15  20
BRANCH   4  47
ATOM     47  O   UNL     1      -7.338  -3.767  25.635  0.00  0.00    +0.000 OA
ATOM     48  H   UNL     1      -7.748  -4.063  26.481  0.00  0.00    +0.000 HD
ENDBRANCH   4  47
BRANCH   5  49
ATOM     49  O   UNL     1      -9.205  -2.483  27.048  0.00  0.00    +0.000 OA
ATOM     50  H   UNL     1     -10.098  -2.775  27.324  0.00  0.00    +0.000 HD
ENDBRANCH   5  49
BRANCH  11  51
ATOM     51  O   UNL     1     -11.483  -1.021  18.583  0.00  0.00    +0.000 OA
ATOM     52  H   UNL     1     -11.225  -1.008  17.645  0.00  0.00    +0.000 HD
ENDBRANCH  11  51
BRANCH  12  53
ATOM     53  O   UNL     1      -9.637  -2.452  17.217  0.00  0.00    +0.000 OA
ATOM     54  H   UNL     1      -8.786  -2.853  16.949  0.00  0.00    +0.000 HD
ENDBRANCH  12  53
TORSDOF 8
ENDMDL
MODEL 3
REMARK VINA RESULT:   -10.499      3.457      5.173
REMARK INTER + INTRA:         -14.292
REMARK INTER:                 -14.237
REMARK INTRA:                  -0.056
REMARK UNBOUND:                -0.110
REMARK  Name = 
REMARK  8 active torsions:
REMARK  status: ('A' for Active; 'I' for Inactive)
REMARK    1  A    between atoms: C_4  and  O_5
REMARK    2  A    between atoms: C_6  and  O_7
REMARK    3  A    between atoms: C_13  and  O_14
REMARK    4  A    between atoms: C_15  and  O_16
REMARK    5  A    between atoms: N_19  and  C_20
REMARK    6  A    between atoms: C_20  and  C_21
REMARK    7  A    between atoms: C_24  and  S_25
REMARK    8  A    between atoms: S_25  and  C_28
REMARK                            x       y       z     vdW  Elec       q    Type
REMARK                         _______ _______ _______ _____ _____    ______ ____
ROOT
ATOM      1  O   UNL     1     -11.859  -4.954  15.660  0.00  0.00    +0.000 OA
ATOM      2  C   UNL     1     -11.250  -3.929  15.976  0.00  0.00    +0.000 A 
ATOM      3  C   UNL     1     -11.013  -2.923  14.915  0.00  0.00    +0.000 A 
ATOM      4  C   UNL     1     -11.413  -3.198  13.593  0.00  0.00    +0.000 A 
ATOM      5  C   UNL     1     -11.186  -2.271  12.583  0.00  0.00    +0.000 A 
ATOM      6  C   UNL     1     -10.573  -1.067  12.860  0.00  0.00    +0.000 A 
ATOM      7  C   UNL     1     -10.171  -0.791  14.171  0.00  0.00    +0.000 A 
ATOM      8  C   UNL     1     -10.375  -1.710  15.229  0.00  0.00    +0.000 A 
ATOM      9  C   UNL     1      -9.944  -1.452  16.621  0.00  0.00    +0.000 A 
ATOM     10  C   UNL     1      -9.330  -0.231  17.000  0.00  0.00    +0.000 A 
ATOM     11  C   UNL     1      -8.918  -0.011  18.308  0.00  0.00    +0.000 A 
ATOM     12  C   UNL     1      -9.111  -0.989  19.263  0.00  0.00    +0.000 A 
ATOM     13  C   UNL     1      -9.724  -2.186  18.933  0.00  0.00    +0.000 A 
ATOM     14  C   UNL     1     -10.139  -2.447  17.615  0.00  0.00    +0.000 A 
ATOM     15  N   UNL     1     -10.774  -3.686  17.267  0.00  0.00    +0.000 N 
ATOM     16  H   UNL     1     -10.402  -0.345  12.064  0.00  0.00    +0.000 HD
ATOM     17  H   UNL     1      -9.687   0.168  14.329  0.00  0.00    +0.000 HD
ATOM     18  H   UNL     1      -9.169   0.561  16.278  0.00  0.00    +0.000 HD
ATOM     19  H   UNL     1      -9.872  -2.885  19.745  0.00  0.00    +0.000 HD
ENDROOT
BRANCH  15  20
ATOM     20  C   UNL     1     -10.907  -4.787  18.239  0.00  0.00    +0.000 C 
ATOM     21  H   UNL     1     -11.962  -4.897  18.521  0.00  0.00    +0.000 HD
ATOM     22  H   UNL     1     -10.409  -4.547  19.183  0.00  0.00    +0.000 HD
BRANCH  20  23
ATOM     23  C   UNL     1     -10.421  -6.112  17.674  0.00  0.00    +0.000 A 
ATOM     24  C   UNL     1      -9.120  -6.254  17.168  0.00  0.00    +0.000 A 
ATOM     25  C   UNL     1      -8.742  -7.407  16.481  0.00  0.00    +0.000 A 
ATOM     26  C   UNL     1      -9.668  -8.436  16.311  0.00  0.00    +0.000 A 
ATOM     27  C   UNL     1     -10.929  -8.367  16.905  0.00  0.00    +0.000 A 
ATOM     28  C   UNL     1     -11.304  -7.202  17.577  0.00  0.00    +0.000 A 
ATOM     29  H   UNL     1      -8.389  -5.457  17.269  0.00  0.00    +0.000 HD
ATOM     30  H   UNL     1      -7.745  -7.473  16.052  0.00  0.00    +0.000 HD
ATOM     31  H   UNL     1     -11.637  -9.187  16.814  0.00  0.00    +0.000 HD
ATOM     32  H   UNL     1     -12.307  -7.133  17.996  0.00  0.00    +0.000 HD
BRANCH  26  33
ATOM     33  S   UNL     1      -9.263  -9.795  15.241  0.00  0.00    +0.000 S 
ATOM     34  O   UNL     1     -10.454 -10.133  14.486  0.00  0.00    +0.000 OA
ATOM     35  O   UNL     1      -8.026  -9.466  14.553  0.00  0.00    +0.000 OA
BRANCH  33  36
ATOM     36  C   UNL     1      -8.922 -11.150  16.348  0.00  0.00    +0.000 A 
ATOM     37  C   UNL     1      -8.762 -10.902  17.715  0.00  0.00    +0.000 A 
ATOM     38  C   UNL     1      -8.439 -11.955  18.569  0.00  0.00    +0.000 A 
ATOM     39  C   UNL     1      -8.291 -13.249  18.062  0.00  0.00    +0.000 A 
ATOM     40  C   UNL     1      -8.478 -13.495  16.701  0.00  0.00    +0.000 A 
ATOM     41  C   UNL     1      -8.798 -12.446  15.837  0.00  0.00    +0.000 A 
ATOM     42  H   UNL     1      -8.874  -9.899  18.120  0.00  0.00    +0.000 HD
ATOM     43  H   UNL     1      -8.303 -11.773  19.632  0.00  0.00    +0.000 HD
ATOM     44  H   UNL     1      -8.037 -14.069  18.731  0.00  0.00    +0.000 HD
ATOM     45  H   UNL     1      -8.370 -14.505  16.312  0.00  0.00    +0.000 HD
ATOM     46  H   UNL     1      -8.937 -12.645  14.777  0.00  0.00    +0.000 HD
ENDBRANCH  33  36
ENDBRANCH  26  33
ENDBRANCH  20  23
ENDBRANCH  15  20
BRANCH   4  47
ATOM     47  O   UNL     1     -12.031  -4.362  13.201  0.00  0.00    +0.000 OA
ATOM     48  H   UNL     1     -11.483  -5.110  13.536  0.00  0.00    +0.000 HD
ENDBRANCH   4  47
BRANCH   5  49
ATOM     49  O   UNL     1     -11.563  -2.545  11.300  0.00  0.00    +0.000 OA
ATOM     50  H   UNL     1     -10.835  -2.191  10.750  0.00  0.00    +0.000 HD
ENDBRANCH   5  49
BRANCH  11  51
ATOM     51  O   UNL     1      -8.326   1.155  18.703  0.00  0.00    +0.000 OA
ATOM     52  H   UNL     1      -8.825   1.522  19.452  0.00  0.00    +0.000 HD
ENDBRANCH  11  51
BRANCH  12  53
ATOM     53  O   UNL     1      -8.710  -0.782  20.551  0.00  0.00    +0.000 OA
ATOM     54  H   UNL     1      -8.963   0.143  20.747  0.00  0.00    +0.000 HD
ENDBRANCH  12  53
TORSDOF 8
ENDMDL
MODEL 4
REMARK VINA RESULT:    -9.921      1.378      4.391
REMARK INTER + INTRA:         -13.511
REMARK INTER:                 -13.083
REMARK INTRA:                  -0.428
REMARK UNBOUND:                -0.110
REMARK  Name = 
REMARK  8 active torsions:
REMARK  status: ('A' for Active; 'I' for Inactive)
REMARK    1  A    between atoms: C_4  and  O_5
REMARK    2  A    between atoms: C_6  and  O_7
REMARK    3  A    between atoms: C_13  and  O_14
REMARK    4  A    between atoms: C_15  and  O_16
REMARK    5  A    between atoms: N_19  and  C_20
REMARK    6  A    between atoms: C_20  and  C_21
REMARK    7  A    between atoms: C_24  and  S_25
REMARK    8  A    between atoms: S_25  and  C_28
REMARK                            x       y       z     vdW  Elec       q    Type
REMARK                         _______ _______ _______ _____ _____    ______ ____
ROOT
ATOM      1  O   UNL     1      -7.213  -3.633  21.593  0.00  0.00    +0.000 OA
ATOM      2  C   UNL     1      -8.215  -2.936  21.771  0.00  0.00    +0.000 A 
ATOM      3  C   UNL     1      -8.683  -2.759  23.166  0.00  0.00    +0.000 A 
ATOM      4  C   UNL     1      -8.028  -3.439  24.211  0.00  0.00    +0.000 A 
ATOM      5  C   UNL     1      -8.461  -3.295  25.523  0.00  0.00    +0.000 A 
ATOM      6  C   UNL     1      -9.532  -2.480  25.823  0.00  0.00    +0.000 A 
ATOM      7  C   UNL     1     -10.187  -1.805  24.788  0.00  0.00    +0.000 A 
ATOM      8  C   UNL     1      -9.785  -1.929  23.436  0.00  0.00    +0.000 A 
ATOM      9  C   UNL     1     -10.471  -1.241  22.320  0.00  0.00    +0.000 A 
ATOM     10  C   UNL     1     -11.564  -0.364  22.540  0.00  0.00    +0.000 A 
ATOM     11  C   UNL     1     -12.205   0.263  21.480  0.00  0.00    +0.000 A 
ATOM     12  C   UNL     1     -11.775   0.039  20.187  0.00  0.00    +0.000 A 
ATOM     13  C   UNL     1     -10.699  -0.797  19.936  0.00  0.00    +0.000 A 
ATOM     14  C   UNL     1     -10.037  -1.458  20.986  0.00  0.00    +0.000 A 
ATOM     15  N   UNL     1      -8.922  -2.326  20.732  0.00  0.00    +0.000 N 
ATOM     16  H   UNL     1      -9.864  -2.370  26.854  0.00  0.00    +0.000 HD
ATOM     17  H   UNL     1     -11.028  -1.183  25.081  0.00  0.00    +0.000 HD
ATOM     18  H   UNL     1     -11.923  -0.160  23.541  0.00  0.00    +0.000 HD
ATOM     19  H   UNL     1     -10.400  -0.891  18.901  0.00  0.00    +0.000 HD
ENDROOT
BRANCH  15  20
ATOM     20  C   UNL     1      -8.500  -2.661  19.359  0.00  0.00    +0.000 C 
ATOM     21  H   UNL     1      -7.405  -2.628  19.297  0.00  0.00    +0.000 HD
ATOM     22  H   UNL     1      -8.826  -1.900  18.645  0.00  0.00    +0.000 HD
BRANCH  20  23
ATOM     23  C   UNL     1      -8.960  -4.049  18.942  0.00  0.00    +0.000 A 
ATOM     24  C   UNL     1      -8.050  -5.109  18.814  0.00  0.00    +0.000 A 
ATOM     25  C   UNL     1      -8.441  -6.324  18.251  0.00  0.00    +0.000 A 
ATOM     26  C   UNL     1      -9.759  -6.487  17.827  0.00  0.00    +0.000 A 
ATOM     27  C   UNL     1     -10.710  -5.490  18.050  0.00  0.00    +0.000 A 
ATOM     28  C   UNL     1     -10.305  -4.272  18.599  0.00  0.00    +0.000 A 
ATOM     29  H   UNL     1      -7.012  -4.998  19.117  0.00  0.00    +0.000 HD
ATOM     30  H   UNL     1      -7.705  -7.112  18.113  0.00  0.00    +0.000 HD
ATOM     31  H   UNL     1     -11.749  -5.633  17.763  0.00  0.00    +0.000 HD
ATOM     32  H   UNL     1     -11.041  -3.479  18.726  0.00  0.00    +0.000 HD
BRANCH  26  33
ATOM     33  S   UNL     1     -10.196  -7.940  16.902  0.00  0.00    +0.000 S 
ATOM     34  O   UNL     1     -11.632  -8.113  17.003  0.00  0.00    +0.000 OA
ATOM     35  O   UNL     1      -9.557  -7.846  15.600  0.00  0.00    +0.000 OA
BRANCH  33  36
ATOM     36  C   UNL     1      -9.424  -9.282  17.786  0.00  0.00    +0.000 A 
ATOM     37  C   UNL     1      -8.962  -9.075  19.089  0.00  0.00    +0.000 A 
ATOM     38  C   UNL     1      -8.309 -10.110  19.756  0.00  0.00    +0.000 A 
ATOM     39  C   UNL     1      -8.132 -11.347  19.130  0.00  0.00    +0.000 A 
ATOM     40  C   UNL     1      -8.618 -11.555  17.839  0.00  0.00    +0.000 A 
ATOM     41  C   UNL     1      -9.270 -10.523  17.161  0.00  0.00    +0.000 A 
ATOM     42  H   UNL     1      -9.095  -8.116  19.586  0.00  0.00    +0.000 HD
ATOM     43  H   UNL     1      -7.937  -9.958  20.767  0.00  0.00    +0.000 HD
ATOM     44  H   UNL     1      -7.619 -12.152  19.652  0.00  0.00    +0.000 HD
ATOM     45  H   UNL     1      -8.486 -12.522  17.358  0.00  0.00    +0.000 HD
ATOM     46  H   UNL     1      -9.643 -10.693  16.153  0.00  0.00    +0.000 HD
ENDBRANCH  33  36
ENDBRANCH  26  33
ENDBRANCH  20  23
ENDBRANCH  15  20
BRANCH   4  47
ATOM     47  O   UNL     1      -6.953  -4.277  24.031  0.00  0.00    +0.000 OA
ATOM     48  H   UNL     1      -6.259  -3.763  23.556  0.00  0.00    +0.000 HD
ENDBRANCH   4  47
BRANCH   5  49
ATOM     49  O   UNL     1      -7.834  -3.966  26.532  0.00  0.00    +0.000 OA
ATOM     50  H   UNL     1      -8.412  -3.835  27.311  0.00  0.00    +0.000 HD
ENDBRANCH   5  49
BRANCH  11  51
ATOM     51  O   UNL     1     -13.258   1.113  21.660  0.00  0.00    +0.000 OA
ATOM     52  H   UNL     1     -13.900   0.696  22.260  0.00  0.00    +0.000 HD
ENDBRANCH  11  51
BRANCH  12  53
ATOM     53  O   UNL     1     -12.398   0.650  19.138  0.00  0.00    +0.000 OA
ATOM     54  H   UNL     1     -11.788   0.532  18.381  0.00  0.00    +0.000 HD
ENDBRANCH  12  53
TORSDOF 8
ENDMDL
MODEL 5
REMARK VINA RESULT:    -9.855      3.556      5.128
REMARK INTER + INTRA:         -13.422
REMARK INTER:                 -12.617
REMARK INTRA:                  -0.804
REMARK UNBOUND:                -0.110
REMARK  Name = 
REMARK  8 active torsions:
REMARK  status: ('A' for Active; 'I' for Inactive)
REMARK    1  A    between atoms: C_4  and  O_5
REMARK    2  A    between atoms: C_6  and  O_7
REMARK    3  A    between atoms: C_13  and  O_14
REMARK    4  A    between atoms: C_15  and  O_16
REMARK    5  A    between atoms: N_19  and  C_20
REMARK    6  A    between atoms: C_20  and  C_21
REMARK    7  A    between atoms: C_24  and  S_25
REMARK    8  A    between atoms: S_25  and  C_28
REMARK                            x       y       z     vdW  Elec       q    Type
REMARK                         _______ _______ _______ _____ _____    ______ ____
ROOT
ATOM      1  O   UNL     1     -10.008  -2.888  13.456  0.00  0.00    +0.000 OA
ATOM      2  C   UNL     1     -10.060  -2.536  14.637  0.00  0.00    +0.000 A 
ATOM      3  C   UNL     1      -9.295  -1.328  15.023  0.00  0.00    +0.000 A 
ATOM      4  C   UNL     1      -8.489  -0.680  14.067  0.00  0.00    +0.000 A 
ATOM      5  C   UNL     1      -7.754   0.447  14.415  0.00  0.00    +0.000 A 
ATOM      6  C   UNL     1      -7.808   0.951  15.697  0.00  0.00    +0.000 A 
ATOM      7  C   UNL     1      -8.604   0.309  16.650  0.00  0.00    +0.000 A 
ATOM      8  C   UNL     1      -9.363  -0.846  16.342  0.00  0.00    +0.000 A 
ATOM      9  C   UNL     1     -10.200  -1.556  17.335  0.00  0.00    +0.000 A 
ATOM     10  C   UNL     1     -10.333  -1.092  18.669  0.00  0.00    +0.000 A 
ATOM     11  C   UNL     1     -11.111  -1.778  19.592  0.00  0.00    +0.000 A 
ATOM     12  C   UNL     1     -11.774  -2.929  19.213  0.00  0.00    +0.000 A 
ATOM     13  C   UNL     1     -11.681  -3.401  17.914  0.00  0.00    +0.000 A 
ATOM     14  C   UNL     1     -10.890  -2.738  16.958  0.00  0.00    +0.000 A 
ATOM     15  N   UNL     1     -10.789  -3.223  15.611  0.00  0.00    +0.000 N 
ATOM     16  H   UNL     1      -7.232   1.836  15.961  0.00  0.00    +0.000 HD
ATOM     17  H   UNL     1      -8.602   0.745  17.645  0.00  0.00    +0.000 HD
ATOM     18  H   UNL     1      -9.833  -0.189  18.999  0.00  0.00    +0.000 HD
ATOM     19  H   UNL     1     -12.259  -4.286  17.687  0.00  0.00    +0.000 HD
ENDROOT
BRANCH  15  20
ATOM     20  C   UNL     1     -11.405  -4.499  15.201  0.00  0.00    +0.000 C 
ATOM     21  H   UNL     1     -11.245  -4.649  14.125  0.00  0.00    +0.000 HD
ATOM     22  H   UNL     1     -12.493  -4.467  15.301  0.00  0.00    +0.000 HD
BRANCH  20  23
ATOM     23  C   UNL     1     -10.811  -5.685  15.943  0.00  0.00    +0.000 A 
ATOM     24  C   UNL     1     -11.616  -6.540  16.710  0.00  0.00    +0.000 A 
ATOM     25  C   UNL     1     -11.047  -7.508  17.538  0.00  0.00    +0.000 A 
ATOM     26  C   UNL     1      -9.659  -7.633  17.587  0.00  0.00    +0.000 A 
ATOM     27  C   UNL     1      -8.843  -6.874  16.748  0.00  0.00    +0.000 A 
ATOM     28  C   UNL     1      -9.421  -5.897  15.935  0.00  0.00    +0.000 A 
ATOM     29  H   UNL     1     -12.699  -6.447  16.704  0.00  0.00    +0.000 HD
ATOM     30  H   UNL     1     -11.689  -8.124  18.163  0.00  0.00    +0.000 HD
ATOM     31  H   UNL     1      -7.763  -7.002  16.750  0.00  0.00    +0.000 HD
ATOM     32  H   UNL     1      -8.776  -5.273  15.318  0.00  0.00    +0.000 HD
BRANCH  26  33
ATOM     33  S   UNL     1      -8.930  -8.698  18.809  0.00  0.00    +0.000 S 
ATOM     34  O   UNL     1      -7.585  -8.221  19.066  0.00  0.00    +0.000 OA
ATOM     35  O   UNL     1      -9.881  -8.838  19.899  0.00  0.00    +0.000 OA
BRANCH  33  36
ATOM     36  C   UNL     1      -8.798 -10.282  18.001  0.00  0.00    +0.000 A 
ATOM     37  C   UNL     1      -8.436 -11.408  18.745  0.00  0.00    +0.000 A 
ATOM     38  C   UNL     1      -8.279 -12.634  18.098  0.00  0.00    +0.000 A 
ATOM     39  C   UNL     1      -8.497 -12.734  16.722  0.00  0.00    +0.000 A 
ATOM     40  C   UNL     1      -8.884 -11.610  15.989  0.00  0.00    +0.000 A 
ATOM     41  C   UNL     1      -9.040 -10.378  16.627  0.00  0.00    +0.000 A 
ATOM     42  H   UNL     1      -8.264 -11.342  19.816  0.00  0.00    +0.000 HD
ATOM     43  H   UNL     1      -7.987 -13.515  18.665  0.00  0.00    +0.000 HD
ATOM     44  H   UNL     1      -8.371 -13.691  16.220  0.00  0.00    +0.000 HD
ATOM     45  H   UNL     1      -9.061 -11.695  14.920  0.00  0.00    +0.000 HD
ATOM     46  H   UNL     1      -9.338  -9.507  16.048  0.00  0.00    +0.000 HD
ENDBRANCH  33  36
ENDBRANCH  26  33
ENDBRANCH  20  23
ENDBRANCH  15  20
BRANCH   4  47
ATOM     47  O   UNL     1      -8.358  -1.093  12.762  0.00  0.00    +0.000 OA
ATOM     48  H   UNL     1      -9.162  -1.618  12.540  0.00  0.00    +0.000 HD
ENDBRANCH   4  47
BRANCH   5  49
ATOM     49  O   UNL     1      -6.963   1.065  13.490  0.00  0.00    +0.000 OA
ATOM     50  H   UNL     1      -7.114   2.021  13.638  0.00  0.00    +0.000 HD
ENDBRANCH   5  49
BRANCH  11  51
ATOM     51  O   UNL     1     -11.260  -1.355  20.882  0.00  0.00    +0.000 OA
ATOM     52  H   UNL     1     -11.470  -0.406  20.880  0.00  0.00    +0.000 HD
ENDBRANCH  11  51
BRANCH  12  53
ATOM     53  O   UNL     1     -12.541  -3.610  20.113  0.00  0.00    +0.000 OA
ATOM     54  H   UNL     1     -13.159  -2.942  20.472  0.00  0.00    +0.000 HD
ENDBRANCH  12  53
TORSDOF 8
ENDMDL
MODEL 6
REMARK VINA RESULT:    -9.792      3.852      5.696
REMARK INTER + INTRA:         -13.337
REMARK INTER:                 -12.655
REMARK INTRA:                  -0.681
REMARK UNBOUND:                -0.110
REMARK  Name = 
REMARK  8 active torsions:
REMARK  status: ('A' for Active; 'I' for Inactive)
REMARK    1  A    between atoms: C_4  and  O_5
REMARK    2  A    between atoms: C_6  and  O_7
REMARK    3  A    between atoms: C_13  and  O_14
REMARK    4  A    between atoms: C_15  and  O_16
REMARK    5  A    between atoms: N_19  and  C_20
REMARK    6  A    between atoms: C_20  and  C_21
REMARK    7  A    between atoms: C_24  and  S_25
REMARK    8  A    between atoms: S_25  and  C_28
REMARK                            x       y       z     vdW  Elec       q    Type
REMARK                         _______ _______ _______ _____ _____    ______ ____
ROOT
ATOM      1  O   UNL     1     -11.854  -4.035  15.087  0.00  0.00    +0.000 OA
ATOM      2  C   UNL     1     -11.102  -3.125  15.445  0.00  0.00    +0.000 A 
ATOM      3  C   UNL     1     -10.369  -2.390  14.388  0.00  0.00    +0.000 A 
ATOM      4  C   UNL     1     -10.492  -2.797  13.045  0.00  0.00    +0.000 A 
ATOM      5  C   UNL     1      -9.801  -2.128  12.042  0.00  0.00    +0.000 A 
ATOM      6  C   UNL     1      -8.991  -1.054  12.345  0.00  0.00    +0.000 A 
ATOM      7  C   UNL     1      -8.863  -0.649  13.677  0.00  0.00    +0.000 A 
ATOM      8  C   UNL     1      -9.543  -1.306  14.731  0.00  0.00    +0.000 A 
ATOM      9  C   UNL     1      -9.412  -0.910  16.151  0.00  0.00    +0.000 A 
ATOM     10  C   UNL     1      -8.621   0.199  16.549  0.00  0.00    +0.000 A 
ATOM     11  C   UNL     1      -8.498   0.548  17.888  0.00  0.00    +0.000 A 
ATOM     12  C   UNL     1      -9.157  -0.187  18.853  0.00  0.00    +0.000 A 
ATOM     13  C   UNL     1      -9.952  -1.265  18.500  0.00  0.00    +0.000 A 
ATOM     14  C   UNL     1     -10.087  -1.654  17.155  0.00  0.00    +0.000 A 
ATOM     15  N   UNL     1     -10.909  -2.770  16.782  0.00  0.00    +0.000 N 
ATOM     16  H   UNL     1      -8.456  -0.533  11.553  0.00  0.00    +0.000 HD
ATOM     17  H   UNL     1      -8.207   0.197  13.857  0.00  0.00    +0.000 HD
ATOM     18  H   UNL     1      -8.096   0.801  15.818  0.00  0.00    +0.000 HD
ATOM     19  H   UNL     1     -10.464  -1.765  19.310  0.00  0.00    +0.000 HD
ENDROOT
BRANCH  15  20
ATOM     20  C   UNL     1     -11.546  -3.633  17.795  0.00  0.00    +0.000 C 
ATOM     21  H   UNL     1     -12.565  -3.881  17.470  0.00  0.00    +0.000 HD
ATOM     22  H   UNL     1     -11.695  -3.098  18.737  0.00  0.00    +0.000 HD
BRANCH  20  23
ATOM     23  C   UNL     1     -10.782  -4.930  18.005  0.00  0.00    +0.000 A 
ATOM     24  C   UNL     1     -11.422  -6.175  17.906  0.00  0.00    +0.000 A 
ATOM     25  C   UNL     1     -10.767  -7.347  18.284  0.00  0.00    +0.000 A 
ATOM     26  C   UNL     1      -9.455  -7.277  18.749  0.00  0.00    +0.000 A 
ATOM     27  C   UNL     1      -8.759  -6.067  18.746  0.00  0.00    +0.000 A 
ATOM     28  C   UNL     1      -9.428  -4.897  18.381  0.00  0.00    +0.000 A 
ATOM     29  H   UNL     1     -12.451  -6.252  17.567  0.00  0.00    +0.000 HD
ATOM     30  H   UNL     1     -11.301  -8.294  18.249  0.00  0.00    +0.000 HD
ATOM     31  H   UNL     1      -7.721  -6.017  19.064  0.00  0.00    +0.000 HD
ATOM     32  H   UNL     1      -8.896  -3.948  18.428  0.00  0.00    +0.000 HD
BRANCH  26  33
ATOM     33  S   UNL     1      -8.706  -8.730  19.447  0.00  0.00    +0.000 S 
ATOM     34  O   UNL     1      -7.302  -8.442  19.666  0.00  0.00    +0.000 OA
ATOM     35  O   UNL     1      -9.545  -9.176  20.547  0.00  0.00    +0.000 OA
BRANCH  33  36
ATOM     36  C   UNL     1      -8.813  -9.953  18.155  0.00  0.00    +0.000 A 
ATOM     37  C   UNL     1      -8.475 -11.281  18.432  0.00  0.00    +0.000 A 
ATOM     38  C   UNL     1      -8.506 -12.223  17.404  0.00  0.00    +0.000 A 
ATOM     39  C   UNL     1      -8.886 -11.843  16.114  0.00  0.00    +0.000 A 
ATOM     40  C   UNL     1      -9.247 -10.521  15.851  0.00  0.00    +0.000 A 
ATOM     41  C   UNL     1      -9.216  -9.570  16.872  0.00  0.00    +0.000 A 
ATOM     42  H   UNL     1      -8.178 -11.588  19.432  0.00  0.00    +0.000 HD
ATOM     43  H   UNL     1      -8.236 -13.257  17.605  0.00  0.00    +0.000 HD
ATOM     44  H   UNL     1      -8.906 -12.580  15.315  0.00  0.00    +0.000 HD
ATOM     45  H   UNL     1      -9.550 -10.231  14.847  0.00  0.00    +0.000 HD
ATOM     46  H   UNL     1      -9.495  -8.541  16.657  0.00  0.00    +0.000 HD
ENDBRANCH  33  36
ENDBRANCH  26  33
ENDBRANCH  20  23
ENDBRANCH  15  20
BRANCH   4  47
ATOM     47  O   UNL     1     -11.268  -3.853  12.627  0.00  0.00    +0.000 OA
ATOM     48  H   UNL     1     -10.898  -4.164  11.768  0.00  0.00    +0.000 HD
ENDBRANCH   4  47
BRANCH   5  49
ATOM     49  O   UNL     1      -9.911  -2.533  10.744  0.00  0.00    +0.000 OA
ATOM     50  H   UNL     1      -9.177  -3.169  10.622  0.00  0.00    +0.000 HD
ENDBRANCH   5  49
BRANCH  11  51
ATOM     51  O   UNL     1      -7.746   1.610  18.301  0.00  0.00    +0.000 OA
ATOM     52  H   UNL     1      -8.155   2.430  17.975  0.00  0.00    +0.000 HD
ENDBRANCH  11  51
BRANCH  12  53
ATOM     53  O   UNL     1      -9.043   0.148  20.171  0.00  0.00    +0.000 OA
ATOM     54  H   UNL     1      -9.906  -0.094  20.567  0.00  0.00    +0.000 HD
ENDBRANCH  12  53
TORSDOF 8
ENDMDL
MODEL 7
REMARK VINA RESULT:    -9.783      3.818      6.361
REMARK INTER + INTRA:         -13.325
REMARK INTER:                 -12.663
REMARK INTRA:                  -0.662
REMARK UNBOUND:                -0.110
REMARK  Name = 
REMARK  8 active torsions:
REMARK  status: ('A' for Active; 'I' for Inactive)
REMARK    1  A    between atoms: C_4  and  O_5
REMARK    2  A    between atoms: C_6  and  O_7
REMARK    3  A    between atoms: C_13  and  O_14
REMARK    4  A    between atoms: C_15  and  O_16
REMARK    5  A    between atoms: N_19  and  C_20
REMARK    6  A    between atoms: C_20  and  C_21
REMARK    7  A    between atoms: C_24  and  S_25
REMARK    8  A    between atoms: S_25  and  C_28
REMARK                            x       y       z     vdW  Elec       q    Type
REMARK                         _______ _______ _______ _____ _____    ______ ____
ROOT
ATOM      1  O   UNL     1     -10.103  -1.758  19.106  0.00  0.00    +0.000 OA
ATOM      2  C   UNL     1     -10.036  -1.706  17.876  0.00  0.00    +0.000 A 
ATOM      3  C   UNL     1      -9.280  -0.579  17.281  0.00  0.00    +0.000 A 
ATOM      4  C   UNL     1      -8.740   0.416  18.119  0.00  0.00    +0.000 A 
ATOM      5  C   UNL     1      -8.039   1.486  17.577  0.00  0.00    +0.000 A 
ATOM      6  C   UNL     1      -7.856   1.587  16.215  0.00  0.00    +0.000 A 
ATOM      7  C   UNL     1      -8.393   0.603  15.378  0.00  0.00    +0.000 A 
ATOM      8  C   UNL     1      -9.120  -0.500  15.887  0.00  0.00    +0.000 A 
ATOM      9  C   UNL     1      -9.715  -1.546  15.024  0.00  0.00    +0.000 A 
ATOM     10  C   UNL     1      -9.553  -1.535  13.615  0.00  0.00    +0.000 A 
ATOM     11  C   UNL     1     -10.130  -2.516  12.819  0.00  0.00    +0.000 A 
ATOM     12  C   UNL     1     -10.870  -3.526  13.401  0.00  0.00    +0.000 A 
ATOM     13  C   UNL     1     -11.033  -3.579  14.776  0.00  0.00    +0.000 A 
ATOM     14  C   UNL     1     -10.475  -2.593  15.609  0.00  0.00    +0.000 A 
ATOM     15  N   UNL     1     -10.641  -2.643  17.034  0.00  0.00    +0.000 N 
ATOM     16  H   UNL     1      -7.303   2.427  15.798  0.00  0.00    +0.000 HD
ATOM     17  H   UNL     1      -8.225   0.738  14.314  0.00  0.00    +0.000 HD
ATOM     18  H   UNL     1      -8.974  -0.761  13.125  0.00  0.00    +0.000 HD
ATOM     19  H   UNL     1     -11.594  -4.422  15.156  0.00  0.00    +0.000 HD
ENDROOT
BRANCH  15  20
ATOM     20  C   UNL     1     -11.504  -3.651  17.677  0.00  0.00    +0.000 C 
ATOM     21  H   UNL     1     -12.376  -3.842  17.038  0.00  0.00    +0.000 HD
ATOM     22  H   UNL     1     -11.939  -3.270  18.605  0.00  0.00    +0.000 HD
BRANCH  20  23
ATOM     23  C   UNL     1     -10.777  -4.967  17.901  0.00  0.00    +0.000 A 
ATOM     24  C   UNL     1     -11.474  -6.184  17.942  0.00  0.00    +0.000 A 
ATOM     25  C   UNL     1     -10.835  -7.361  18.334  0.00  0.00    +0.000 A 
ATOM     26  C   UNL     1      -9.483  -7.324  18.674  0.00  0.00    +0.000 A 
ATOM     27  C   UNL     1      -8.743  -6.150  18.530  0.00  0.00    +0.000 A 
ATOM     28  C   UNL     1      -9.394  -4.974  18.152  0.00  0.00    +0.000 A 
ATOM     29  H   UNL     1     -12.532  -6.234  17.702  0.00  0.00    +0.000 HD
ATOM     30  H   UNL     1     -11.408  -8.282  18.409  0.00  0.00    +0.000 HD
ATOM     31  H   UNL     1      -7.678  -6.129  18.750  0.00  0.00    +0.000 HD
ATOM     32  H   UNL     1      -8.821  -4.050  18.089  0.00  0.00    +0.000 HD
BRANCH  26  33
ATOM     33  S   UNL     1      -8.734  -8.764  19.395  0.00  0.00    +0.000 S 
ATOM     34  O   UNL     1      -7.333  -8.467  19.623  0.00  0.00    +0.000 OA
ATOM     35  O   UNL     1      -9.579  -9.202  20.493  0.00  0.00    +0.000 OA
BRANCH  33  36
ATOM     36  C   UNL     1      -8.824 -10.003  18.116  0.00  0.00    +0.000 A 
ATOM     37  C   UNL     1      -8.512 -11.332  18.419  0.00  0.00    +0.000 A 
ATOM     38  C   UNL     1      -8.529 -12.287  17.404  0.00  0.00    +0.000 A 
ATOM     39  C   UNL     1      -8.870 -11.919  16.100  0.00  0.00    +0.000 A 
ATOM     40  C   UNL     1      -9.206 -10.596  15.810  0.00  0.00    +0.000 A 
ATOM     41  C   UNL     1      -9.188  -9.631  16.819  0.00  0.00    +0.000 A 
ATOM     42  H   UNL     1      -8.245 -11.629  19.431  0.00  0.00    +0.000 HD
ATOM     43  H   UNL     1      -8.278 -13.322  17.625  0.00  0.00    +0.000 HD
ATOM     44  H   UNL     1      -8.880 -12.666  15.309  0.00  0.00    +0.000 HD
ATOM     45  H   UNL     1      -9.479 -10.315  14.795  0.00  0.00    +0.000 HD
ATOM     46  H   UNL     1      -9.448  -8.602  16.583  0.00  0.00    +0.000 HD
ENDBRANCH  33  36
ENDBRANCH  26  33
ENDBRANCH  20  23
ENDBRANCH  15  20
BRANCH   4  47
ATOM     47  O   UNL     1      -8.861   0.419  19.489  0.00  0.00    +0.000 OA
ATOM     48  H   UNL     1      -8.853   1.360  19.780  0.00  0.00    +0.000 HD
ENDBRANCH   4  47
BRANCH   5  49
ATOM     49  O   UNL     1      -7.529   2.456  18.390  0.00  0.00    +0.000 OA
ATOM     50  H   UNL     1      -8.098   3.236  18.229  0.00  0.00    +0.000 HD
ENDBRANCH   5  49
BRANCH  11  51
ATOM     51  O   UNL     1      -9.991  -2.532  11.461  0.00  0.00    +0.000 OA
ATOM     52  H   UNL     1      -9.648  -3.402  11.191  0.00  0.00    +0.000 HD
ENDBRANCH  11  51
BRANCH  12  53
ATOM     53  O   UNL     1     -11.440  -4.495  12.628  0.00  0.00    +0.000 OA
ATOM     54  H   UNL     1     -11.557  -5.259  13.230  0.00  0.00    +0.000 HD
ENDBRANCH  12  53
TORSDOF 8
ENDMDL
MODEL 8
REMARK VINA RESULT:    -9.696      5.789      8.663
REMARK INTER + INTRA:         -13.207
REMARK INTER:                 -12.766
REMARK INTRA:                  -0.441
REMARK UNBOUND:                -0.110
REMARK  Name = 
REMARK  8 active torsions:
REMARK  status: ('A' for Active; 'I' for Inactive)
REMARK    1  A    between atoms: C_4  and  O_5
REMARK    2  A    between atoms: C_6  and  O_7
REMARK    3  A    between atoms: C_13  and  O_14
REMARK    4  A    between atoms: C_15  and  O_16
REMARK    5  A    between atoms: N_19  and  C_20
REMARK    6  A    between atoms: C_20  and  C_21
REMARK    7  A    between atoms: C_24  and  S_25
REMARK    8  A    between atoms: S_25  and  C_28
REMARK                            x       y       z     vdW  Elec       q    Type
REMARK                         _______ _______ _______ _____ _____    ______ ____
ROOT
ATOM      1  O   UNL     1      -9.817  -1.718  15.493  0.00  0.00    +0.000 OA
ATOM      2  C   UNL     1      -9.794  -1.707  14.260  0.00  0.00    +0.000 A 
ATOM      3  C   UNL     1      -8.790  -0.835  13.606  0.00  0.00    +0.000 A 
ATOM      4  C   UNL     1      -7.967  -0.008  14.395  0.00  0.00    +0.000 A 
ATOM      5  C   UNL     1      -7.029   0.825  13.797  0.00  0.00    +0.000 A 
ATOM      6  C   UNL     1      -6.886   0.851  12.426  0.00  0.00    +0.000 A 
ATOM      7  C   UNL     1      -7.704   0.034  11.639  0.00  0.00    +0.000 A 
ATOM      8  C   UNL     1      -8.677  -0.825  12.205  0.00  0.00    +0.000 A 
ATOM      9  C   UNL     1      -9.568  -1.686  11.395  0.00  0.00    +0.000 A 
ATOM     10  C   UNL     1      -9.472  -1.742   9.981  0.00  0.00    +0.000 A 
ATOM     11  C   UNL     1     -10.325  -2.544   9.235  0.00  0.00    +0.000 A 
ATOM     12  C   UNL     1     -11.282  -3.309   9.873  0.00  0.00    +0.000 A 
ATOM     13  C   UNL     1     -11.393  -3.293  11.254  0.00  0.00    +0.000 A 
ATOM     14  C   UNL     1     -10.554  -2.480  12.038  0.00  0.00    +0.000 A 
ATOM     15  N   UNL     1     -10.664  -2.459  13.469  0.00  0.00    +0.000 N 
ATOM     16  H   UNL     1      -6.148   1.504  11.965  0.00  0.00    +0.000 HD
ATOM     17  H   UNL     1      -7.553   0.100  10.565  0.00  0.00    +0.000 HD
ATOM     18  H   UNL     1      -8.729  -1.161   9.448  0.00  0.00    +0.000 HD
ATOM     19  H   UNL     1     -12.141  -3.947  11.679  0.00  0.00    +0.000 HD
ENDROOT
BRANCH  15  20
ATOM     20  C   UNL     1     -11.737  -3.187  14.172  0.00  0.00    +0.000 C 
ATOM     21  H   UNL     1     -12.471  -3.548  13.439  0.00  0.00    +0.000 HD
ATOM     22  H   UNL     1     -12.316  -2.520  14.815  0.00  0.00    +0.000 HD
BRANCH  20  23
ATOM     23  C   UNL     1     -11.205  -4.384  14.945  0.00  0.00    +0.000 A 
ATOM     24  C   UNL     1     -11.879  -4.879  16.071  0.00  0.00    +0.000 A 
ATOM     25  C   UNL     1     -11.294  -5.850  16.885  0.00  0.00    +0.000 A 
ATOM     26  C   UNL     1     -10.029  -6.341  16.561  0.00  0.00    +0.000 A 
ATOM     27  C   UNL     1      -9.391  -5.949  15.384  0.00  0.00    +0.000 A 
ATOM     28  C   UNL     1      -9.977  -4.966  14.584  0.00  0.00    +0.000 A 
ATOM     29  H   UNL     1     -12.855  -4.496  16.355  0.00  0.00    +0.000 HD
ATOM     30  H   UNL     1     -11.812  -6.180  17.782  0.00  0.00    +0.000 HD
ATOM     31  H   UNL     1      -8.426  -6.365  15.105  0.00  0.00    +0.000 HD
ATOM     32  H   UNL     1      -9.452  -4.627  13.692  0.00  0.00    +0.000 HD
BRANCH  26  33
ATOM     33  S   UNL     1      -9.190  -7.395  17.719  0.00  0.00    +0.000 S 
ATOM     34  O   UNL     1      -7.802  -6.978  17.771  0.00  0.00    +0.000 OA
ATOM     35  O   UNL     1      -9.987  -7.447  18.932  0.00  0.00    +0.000 OA
BRANCH  33  36
ATOM     36  C   UNL     1      -9.241  -9.012  16.969  0.00  0.00    +0.000 A 
ATOM     37  C   UNL     1      -8.963 -10.142  17.745  0.00  0.00    +0.000 A 
ATOM     38  C   UNL     1      -8.949 -11.399  17.142  0.00  0.00    +0.000 A 
ATOM     39  C   UNL     1      -9.224 -11.527  15.778  0.00  0.00    +0.000 A 
ATOM     40  C   UNL     1      -9.527 -10.398  15.015  0.00  0.00    +0.000 A 
ATOM     41  C   UNL     1      -9.540  -9.134  15.608  0.00  0.00    +0.000 A 
ATOM     42  H   UNL     1      -8.747 -10.054  18.807  0.00  0.00    +0.000 HD
ATOM     43  H   UNL     1      -8.724 -12.284  17.733  0.00  0.00    +0.000 HD
ATOM     44  H   UNL     1      -9.210 -12.509  15.310  0.00  0.00    +0.000 HD
ATOM     45  H   UNL     1      -9.749 -10.502  13.956  0.00  0.00    +0.000 HD
ATOM     46  H   UNL     1      -9.772  -8.259  15.006  0.00  0.00    +0.000 HD
ENDBRANCH  33  36
ENDBRANCH  26  33
ENDBRANCH  20  23
ENDBRANCH  15  20
BRANCH   4  47
ATOM     47  O   UNL     1      -8.021   0.050  15.767  0.00  0.00    +0.000 OA
ATOM     48  H   UNL     1      -7.092   0.064  16.096  0.00  0.00    +0.000 HD
ENDBRANCH   4  47
BRANCH   5  49
ATOM     49  O   UNL     1      -6.242   1.636  14.563  0.00  0.00    +0.000 OA
ATOM     50  H   UNL     1      -6.221   2.486  14.078  0.00  0.00    +0.000 HD
ENDBRANCH   5  49
BRANCH  11  51
ATOM     51  O   UNL     1     -10.256  -2.620   7.874  0.00  0.00    +0.000 OA
ATOM     52  H   UNL     1     -10.609  -3.481   7.589  0.00  0.00    +0.000 HD
ENDBRANCH  11  51
BRANCH  12  53
ATOM     53  O   UNL     1     -12.125  -4.102   9.150  0.00  0.00    +0.000 OA
ATOM     54  H   UNL     1     -13.022  -3.763   9.351  0.00  0.00    +0.000 HD
ENDBRANCH  12  53
TORSDOF 8
ENDMDL
MODEL 9
REMARK VINA RESULT:    -9.642      4.654      6.478
REMARK INTER + INTRA:         -13.134
REMARK INTER:                 -12.323
REMARK INTRA:                  -0.812
REMARK UNBOUND:                -0.110
REMARK  Name = 
REMARK  8 active torsions:
REMARK  status: ('A' for Active; 'I' for Inactive)
REMARK    1  A    between atoms: C_4  and  O_5
REMARK    2  A    between atoms: C_6  and  O_7
REMARK    3  A    between atoms: C_13  and  O_14
REMARK    4  A    between atoms: C_15  and  O_16
REMARK    5  A    between atoms: N_19  and  C_20
REMARK    6  A    between atoms: C_20  and  C_21
REMARK    7  A    between atoms: C_24  and  S_25
REMARK    8  A    between atoms: S_25  and  C_28
REMARK                            x       y       z     vdW  Elec       q    Type
REMARK                         _______ _______ _______ _____ _____    ______ ____
ROOT
ATOM      1  O   UNL     1     -10.795  -2.638  12.269  0.00  0.00    +0.000 OA
ATOM      2  C   UNL     1     -10.274  -2.069  13.231  0.00  0.00    +0.000 A 
ATOM      3  C   UNL     1      -9.118  -1.184  12.955  0.00  0.00    +0.000 A 
ATOM      4  C   UNL     1      -8.615  -1.085  11.643  0.00  0.00    +0.000 A 
ATOM      5  C   UNL     1      -7.524  -0.270  11.368  0.00  0.00    +0.000 A 
ATOM      6  C   UNL     1      -6.922   0.458  12.373  0.00  0.00    +0.000 A 
ATOM      7  C   UNL     1      -7.416   0.360  13.677  0.00  0.00    +0.000 A 
ATOM      8  C   UNL     1      -8.521  -0.464  14.003  0.00  0.00    +0.000 A 
ATOM      9  C   UNL     1      -9.052  -0.600  15.378  0.00  0.00    +0.000 A 
ATOM     10  C   UNL     1      -8.511   0.131  16.466  0.00  0.00    +0.000 A 
ATOM     11  C   UNL     1      -9.012  -0.019  17.752  0.00  0.00    +0.000 A 
ATOM     12  C   UNL     1     -10.060  -0.889  17.984  0.00  0.00    +0.000 A 
ATOM     13  C   UNL     1     -10.625  -1.606  16.942  0.00  0.00    +0.000 A 
ATOM     14  C   UNL     1     -10.132  -1.488  15.630  0.00  0.00    +0.000 A 
ATOM     15  N   UNL     1     -10.713  -2.228  14.547  0.00  0.00    +0.000 N 
ATOM     16  H   UNL     1      -6.070   1.097  12.149  0.00  0.00    +0.000 HD
ATOM     17  H   UNL     1      -6.899   0.949  14.429  0.00  0.00    +0.000 HD
ATOM     18  H   UNL     1      -7.693   0.827  16.320  0.00  0.00    +0.000 HD
ATOM     19  H   UNL     1     -11.465  -2.237  17.199  0.00  0.00    +0.000 HD
ENDROOT
BRANCH  15  20
ATOM     20  C   UNL     1     -11.766  -3.235  14.777  0.00  0.00    +0.000 C 
ATOM     21  H   UNL     1     -12.214  -3.517  13.815  0.00  0.00    +0.000 HD
ATOM     22  H   UNL     1     -12.602  -2.816  15.342  0.00  0.00    +0.000 HD
BRANCH  20  23
ATOM     23  C   UNL     1     -11.221  -4.492  15.437  0.00  0.00    +0.000 A 
ATOM     24  C   UNL     1     -11.887  -5.093  16.516  0.00  0.00    +0.000 A 
ATOM     25  C   UNL     1     -11.291  -6.128  17.237  0.00  0.00    +0.000 A 
ATOM     26  C   UNL     1     -10.024  -6.577  16.867  0.00  0.00    +0.000 A 
ATOM     27  C   UNL     1      -9.392  -6.074  15.729  0.00  0.00    +0.000 A 
ATOM     28  C   UNL     1      -9.990  -5.028  15.023  0.00  0.00    +0.000 A 
ATOM     29  H   UNL     1     -12.865  -4.746  16.836  0.00  0.00    +0.000 HD
ATOM     30  H   UNL     1     -11.803  -6.543  18.102  0.00  0.00    +0.000 HD
ATOM     31  H   UNL     1      -8.425  -6.455  15.411  0.00  0.00    +0.000 HD
ATOM     32  H   UNL     1      -9.470  -4.606  14.164  0.00  0.00    +0.000 HD
BRANCH  26  33
ATOM     33  S   UNL     1      -9.171  -7.724  17.922  0.00  0.00    +0.000 S 
ATOM     34  O   UNL     1      -7.790  -7.292  18.021  0.00  0.00    +0.000 OA
ATOM     35  O   UNL     1      -9.972  -7.904  19.121  0.00  0.00    +0.000 OA
BRANCH  33  36
ATOM     36  C   UNL     1      -9.194  -9.263  17.021  0.00  0.00    +0.000 A 
ATOM     37  C   UNL     1      -8.863 -10.452  17.677  0.00  0.00    +0.000 A 
ATOM     38  C   UNL     1      -8.827 -11.644  16.956  0.00  0.00    +0.000 A 
ATOM     39  C   UNL     1      -9.135 -11.649  15.593  0.00  0.00    +0.000 A 
ATOM     40  C   UNL     1      -9.490 -10.462  14.950  0.00  0.00    +0.000 A 
ATOM     41  C   UNL     1      -9.525  -9.263  15.663  0.00  0.00    +0.000 A 
ATOM     42  H   UNL     1      -8.621 -10.459  18.738  0.00  0.00    +0.000 HD
ATOM     43  H   UNL     1      -8.561 -12.574  17.453  0.00  0.00    +0.000 HD
ATOM     44  H   UNL     1      -9.104 -12.581  15.032  0.00  0.00    +0.000 HD
ATOM     45  H   UNL     1      -9.737 -10.472  13.891  0.00  0.00    +0.000 HD
ATOM     46  H   UNL     1      -9.799  -8.342  15.153  0.00  0.00    +0.000 HD
ENDBRANCH  33  36
ENDBRANCH  26  33
ENDBRANCH  20  23
ENDBRANCH  15  20
BRANCH   4  47
ATOM     47  O   UNL     1      -9.134  -1.763  10.565  0.00  0.00    +0.000 OA
ATOM     48  H   UNL     1      -9.341  -2.678  10.868  0.00  0.00    +0.000 HD
ENDBRANCH   4  47
BRANCH   5  49
ATOM     49  O   UNL     1      -7.030  -0.186  10.099  0.00  0.00    +0.000 OA
ATOM     50  H   UNL     1      -6.371  -0.907  10.044  0.00  0.00    +0.000 HD
ENDBRANCH   5  49
BRANCH  11  51
ATOM     51  O   UNL     1      -8.513   0.672  18.819  0.00  0.00    +0.000 OA
ATOM     52  H   UNL     1      -8.417   0.062  19.571  0.00  0.00    +0.000 HD
ENDBRANCH  11  51
BRANCH  12  53
ATOM     53  O   UNL     1     -10.560  -1.044  19.244  0.00  0.00    +0.000 OA
ATOM     54  H   UNL     1     -10.463  -0.165  19.662  0.00  0.00    +0.000 HD
ENDBRANCH  12  53
TORSDOF 8
ENDMDL
