REMARK  Name = 
REMARK  5 active torsions:
REMARK  status: ('A' for Active; 'I' for Inactive)
REMARK    1  A    between atoms: N_1  and  C_2
REMARK    2  A    between atoms: C_2  and  C_3
REMARK    3  A    between atoms: C_3  and  N_4
REMARK    4  A    between atoms: N_4  and  S_5
REMARK    5  A    between atoms: S_5  and  C_8
REMARK                            x       y       z     vdW  Elec       q    Type
REMARK                         _______ _______ _______ _____ _____    ______ ____
ROOT
ATOM      1  C   UNL     1       0.245   1.104   0.311  0.00  0.00    +0.000 A 
ATOM      2  C   UNL     1       0.907   1.031   1.554  0.00  0.00    +0.000 A 
ATOM      3  C   UNL     1       2.293   0.996   1.622  0.00  0.00    +0.000 A 
ATOM      4  C   UNL     1       3.034   1.048   0.449  0.00  0.00    +0.000 A 
ATOM      5  C   UNL     1       2.399   1.138  -0.802  0.00  0.00    +0.000 A 
ATOM      6  C   UNL     1       3.166   1.211  -1.968  0.00  0.00    +0.000 A 
ATOM      7  N   UNL     1       2.665   1.312  -3.216  0.00  0.00    +0.000 NA
ATOM      8  C   UNL     1       1.327   1.349  -3.314  0.00  0.00    +0.000 A 
ATOM      9  C   UNL     1       0.469   1.281  -2.224  0.00  0.00    +0.000 A 
ATOM     10  C   UNL     1       0.984   1.170  -0.909  0.00  0.00    +0.000 A 
ATOM     11  H   UNL     1       0.341   1.030   2.486  0.00  0.00    +0.000 HD
ATOM     12  H   UNL     1       2.797   0.947   2.585  0.00  0.00    +0.000 HD
ATOM     13  H   UNL     1       4.121   1.035   0.516  0.00  0.00    +0.000 HD
ATOM     14  H   UNL     1       4.253   1.196  -1.929  0.00  0.00    +0.000 HD
ATOM     15  H   UNL     1       0.936   1.441  -4.324  0.00  0.00    +0.000 HD
ATOM     16  H   UNL     1      -0.590   1.327  -2.441  0.00  0.00    +0.000 HD
ENDROOT
BRANCH   1  17
ATOM     17  S   UNL     1      -1.540   1.208   0.429  0.00  0.00    +0.000 S 
ATOM     18  O   UNL     1      -2.147   1.318  -0.876  0.00  0.00    +0.000 OA
ATOM     19  O   UNL     1      -1.814   2.178   1.467  0.00  0.00    +0.000 OA
BRANCH  17  20
ATOM     20  N   UNL     1      -1.955  -0.310   1.069  0.00  0.00    +0.000 NA
ATOM     21  H   UNL     1      -1.283  -0.601   1.779  0.00  0.00    +0.000 HD
BRANCH  20  22
ATOM     22  C   UNL     1      -2.162  -1.395   0.079  0.00  0.00    +0.000 C 
ATOM     23  H   UNL     1      -2.941  -1.107  -0.633  0.00  0.00    +0.000 HD
ATOM     24  H   UNL     1      -1.229  -1.585  -0.460  0.00  0.00    +0.000 HD
BRANCH  22  25
ATOM     25  C   UNL     1      -2.621  -2.672   0.804  0.00  0.00    +0.000 C 
ATOM     26  H   UNL     1      -3.581  -2.497   1.306  0.00  0.00    +0.000 HD
ATOM     27  H   UNL     1      -2.776  -3.466   0.066  0.00  0.00    +0.000 HD
BRANCH  25  28
ATOM     28  N   UNL     1      -1.647  -3.130   1.804  0.00  0.00    +0.000 NA
ATOM     29  H   UNL     1      -1.952  -4.040   2.153  0.00  0.00    +0.000 HD
ATOM     30  H   UNL     1      -1.697  -2.515   2.617  0.00  0.00    +0.000 HD
ENDBRANCH  25  28
ENDBRANCH  22  25
ENDBRANCH  20  22
ENDBRANCH  17  20
ENDBRANCH   1  17
TORSDOF 5
