MODEL 1
REMARK VINA RESULT:   -12.178      0.000      0.000
REMARK INTER + INTRA:         -14.277
REMARK INTER:                 -13.957
REMARK INTRA:                  -0.319
REMARK UNBOUND:                -0.319
REMARK  Name = 
REMARK  3 active torsions:
REMARK  status: ('A' for Active; 'I' for Inactive)
REMARK    1  A    between atoms: C_1  and  N_2
REMARK    2  A    between atoms: C_4  and  C_5
REMARK    3  A    between atoms: C_6  and  C_7
REMARK                            x       y       z     vdW  Elec       q    Type
REMARK                         _______ _______ _______ _____ _____    ______ ____
ROOT
ATOM      1  C   UNL     1      -9.147  -5.798  18.783  0.00  0.00    +0.000 C 
ATOM      2  C   UNL     1      -9.736  -6.992  18.624  0.00  0.00    +0.000 C 
ATOM      3  C   UNL     1     -10.998  -6.767  17.882  0.00  0.00    +0.000 C 
ATOM      4  O   UNL     1     -11.798  -7.616  17.533  0.00  0.00    +0.000 OA
ATOM      5  N   UNL     1     -11.095  -5.444  17.652  0.00  0.00    +0.000 N 
ATOM      6  C   UNL     1     -10.032  -4.786  18.161  0.00  0.00    +0.000 C 
ATOM      7  O   UNL     1      -9.849  -3.584  18.117  0.00  0.00    +0.000 OA
ATOM      8  H   UNL     1     -11.857  -5.004  17.163  0.00  0.00    +0.000 HD
ENDROOT
BRANCH   2   9
ATOM      9  C   UNL     1      -9.297  -8.272  19.037  0.00  0.00    +0.000 A 
ATOM     10  C   UNL     1      -8.906  -8.582  20.321  0.00  0.00    +0.000 A 
ATOM     11  N   UNL     1      -8.479  -9.885  20.323  0.00  0.00    +0.000 N 
ATOM     12  C   UNL     1      -8.593 -10.426  19.062  0.00  0.00    +0.000 A 
ATOM     13  C   UNL     1      -8.248 -11.699  18.593  0.00  0.00    +0.000 A 
ATOM     14  C   UNL     1      -8.476 -11.966  17.246  0.00  0.00    +0.000 A 
ATOM     15  F   UNL     1      -8.141 -13.169  16.756  0.00  0.00    +0.000 F 
ATOM     16  C   UNL     1      -9.038 -11.023  16.395  0.00  0.00    +0.000 A 
ATOM     17  C   UNL     1      -9.376  -9.752  16.877  0.00  0.00    +0.000 A 
ATOM     18  C   UNL     1      -9.137  -9.439  18.233  0.00  0.00    +0.000 A 
ATOM     19  H   UNL     1      -8.871  -7.991  21.227  0.00  0.00    +0.000 HD
ATOM     20  H   UNL     1      -8.110 -10.375  21.126  0.00  0.00    +0.000 HD
ATOM     21  H   UNL     1      -7.807 -12.451  19.237  0.00  0.00    +0.000 HD
ATOM     22  H   UNL     1      -9.202 -11.277  15.352  0.00  0.00    +0.000 HD
ATOM     23  H   UNL     1      -9.808  -9.016  16.206  0.00  0.00    +0.000 HD
ENDBRANCH   2   9
BRANCH   1  26
ATOM     24  N   UNL     1      -5.757  -5.524  19.916  0.00  0.00    +0.000 N 
ATOM     25  C   UNL     1      -6.712  -6.079  19.105  0.00  0.00    +0.000 A 
ATOM     26  C   UNL     1      -7.915  -5.483  19.406  0.00  0.00    +0.000 A 
ATOM     27  C   UNL     1      -7.686  -4.522  20.435  0.00  0.00    +0.000 A 
ATOM     28  C   UNL     1      -8.502  -3.610  21.136  0.00  0.00    +0.000 A 
ATOM     29  C   UNL     1      -7.941  -2.802  22.132  0.00  0.00    +0.000 A 
ATOM     30  C   UNL     1      -6.587  -2.892  22.438  0.00  0.00    +0.000 A 
ATOM     31  C   UNL     1      -5.754  -3.782  21.754  0.00  0.00    +0.000 A 
ATOM     32  C   UNL     1      -6.324  -4.582  20.751  0.00  0.00    +0.000 A 
ATOM     33  H   UNL     1      -6.457  -6.850  18.387  0.00  0.00    +0.000 HD
ATOM     34  H   UNL     1      -9.562  -3.533  20.914  0.00  0.00    +0.000 HD
ATOM     35  H   UNL     1      -8.571  -2.103  22.676  0.00  0.00    +0.000 HD
ATOM     36  H   UNL     1      -6.169  -2.263  23.221  0.00  0.00    +0.000 HD
ATOM     37  H   UNL     1      -4.699  -3.848  22.002  0.00  0.00    +0.000 HD
BRANCH  24  38
ATOM     38  C   UNL     1      -4.354  -5.871  19.900  0.00  0.00    +0.000 C 
ATOM     39  H   UNL     1      -3.895  -5.585  20.851  0.00  0.00    +0.000 HD
ATOM     40  H   UNL     1      -3.873  -5.333  19.080  0.00  0.00    +0.000 HD
ATOM     41  H   UNL     1      -4.267  -6.952  19.759  0.00  0.00    +0.000 HD
ENDBRANCH  24  38
ENDBRANCH   1  26
TORSDOF 3
ENDMDL
MODEL 2
REMARK VINA RESULT:   -11.080      2.458      6.660
REMARK INTER + INTRA:         -13.018
REMARK INTER:                 -12.361
REMARK INTRA:                  -0.657
REMARK UNBOUND:                -0.319
REMARK  Name = 
REMARK  3 active torsions:
REMARK  status: ('A' for Active; 'I' for Inactive)
REMARK    1  A    between atoms: C_1  and  N_2
REMARK    2  A    between atoms: C_4  and  C_5
REMARK    3  A    between atoms: C_6  and  C_7
REMARK                            x       y       z     vdW  Elec       q    Type
REMARK                         _______ _______ _______ _____ _____    ______ ____
ROOT
ATOM      1  C   UNL     1      -9.884  -7.305  17.980  0.00  0.00    +0.000 C 
ATOM      2  C   UNL     1      -9.215  -6.163  18.192  0.00  0.00    +0.000 C 
ATOM      3  C   UNL     1     -10.204  -5.060  18.166  0.00  0.00    +0.000 C 
ATOM      4  O   UNL     1      -9.980  -3.877  18.340  0.00  0.00    +0.000 OA
ATOM      5  N   UNL     1     -11.410  -5.612  17.928  0.00  0.00    +0.000 N 
ATOM      6  C   UNL     1     -11.310  -6.952  17.798  0.00  0.00    +0.000 C 
ATOM      7  O   UNL     1     -12.229  -7.717  17.567  0.00  0.00    +0.000 OA
ATOM      8  H   UNL     1     -12.270  -5.095  17.859  0.00  0.00    +0.000 HD
ENDROOT
BRANCH   2   9
ATOM      9  C   UNL     1      -7.834  -5.959  18.421  0.00  0.00    +0.000 A 
ATOM     10  C   UNL     1      -6.831  -6.482  17.636  0.00  0.00    +0.000 A 
ATOM     11  N   UNL     1      -5.633  -6.138  18.207  0.00  0.00    +0.000 N 
ATOM     12  C   UNL     1      -5.844  -5.394  19.347  0.00  0.00    +0.000 A 
ATOM     13  C   UNL     1      -4.925  -4.863  20.259  0.00  0.00    +0.000 A 
ATOM     14  C   UNL     1      -5.438  -4.146  21.337  0.00  0.00    +0.000 A 
ATOM     15  F   UNL     1      -4.589  -3.638  22.242  0.00  0.00    +0.000 F 
ATOM     16  C   UNL     1      -6.802  -3.947  21.504  0.00  0.00    +0.000 A 
ATOM     17  C   UNL     1      -7.711  -4.487  20.585  0.00  0.00    +0.000 A 
ATOM     18  C   UNL     1      -7.227  -5.239  19.491  0.00  0.00    +0.000 A 
ATOM     19  H   UNL     1      -6.857  -7.086  16.739  0.00  0.00    +0.000 HD
ATOM     20  H   UNL     1      -4.723  -6.408  17.860  0.00  0.00    +0.000 HD
ATOM     21  H   UNL     1      -3.855  -5.006  20.151  0.00  0.00    +0.000 HD
ATOM     22  H   UNL     1      -7.157  -3.378  22.358  0.00  0.00    +0.000 HD
ATOM     23  H   UNL     1      -8.777  -4.334  20.724  0.00  0.00    +0.000 HD
ENDBRANCH   2   9
BRANCH   1  26
ATOM     24  N   UNL     1      -8.496 -10.557  18.575  0.00  0.00    +0.000 N 
ATOM     25  C   UNL     1      -8.870  -9.312  19.009  0.00  0.00    +0.000 A 
ATOM     26  C   UNL     1      -9.394  -8.634  17.932  0.00  0.00    +0.000 A 
ATOM     27  C   UNL     1      -9.347  -9.499  16.800  0.00  0.00    +0.000 A 
ATOM     28  C   UNL     1      -9.739  -9.383  15.449  0.00  0.00    +0.000 A 
ATOM     29  C   UNL     1      -9.522 -10.452  14.572  0.00  0.00    +0.000 A 
ATOM     30  C   UNL     1      -8.922 -11.625  15.017  0.00  0.00    +0.000 A 
ATOM     31  C   UNL     1      -8.531 -11.768  16.351  0.00  0.00    +0.000 A 
ATOM     32  C   UNL     1      -8.760 -10.695  17.226  0.00  0.00    +0.000 A 
ATOM     33  H   UNL     1      -8.728  -9.014  20.041  0.00  0.00    +0.000 HD
ATOM     34  H   UNL     1     -10.202  -8.471  15.085  0.00  0.00    +0.000 HD
ATOM     35  H   UNL     1      -9.819 -10.360  13.530  0.00  0.00    +0.000 HD
ATOM     36  H   UNL     1      -8.753 -12.442  14.319  0.00  0.00    +0.000 HD
ATOM     37  H   UNL     1      -8.060 -12.687  16.689  0.00  0.00    +0.000 HD
BRANCH  24  38
ATOM     38  C   UNL     1      -7.912 -11.584  19.408  0.00  0.00    +0.000 C 
ATOM     39  H   UNL     1      -7.903 -11.251  20.449  0.00  0.00    +0.000 HD
ATOM     40  H   UNL     1      -6.890 -11.768  19.067  0.00  0.00    +0.000 HD
ATOM     41  H   UNL     1      -8.520 -12.489  19.315  0.00  0.00    +0.000 HD
ENDBRANCH  24  38
ENDBRANCH   1  26
TORSDOF 3
ENDMDL
MODEL 3
REMARK VINA RESULT:   -10.947      0.919      2.074
REMARK INTER + INTRA:         -12.865
REMARK INTER:                 -12.855
REMARK INTRA:                  -0.011
REMARK UNBOUND:                -0.319
REMARK  Name = 
REMARK  3 active torsions:
REMARK  status: ('A' for Active; 'I' for Inactive)
REMARK    1  A    between atoms: C_1  and  N_2
REMARK    2  A    between atoms: C_4  and  C_5
REMARK    3  A    between atoms: C_6  and  C_7
REMARK                            x       y       z     vdW  Elec       q    Type
REMARK                         _______ _______ _______ _____ _____    ______ ____
ROOT
ATOM      1  C   UNL     1      -9.449  -5.200  18.561  0.00  0.00    +0.000 C 
ATOM      2  C   UNL     1      -9.842  -6.452  18.282  0.00  0.00    +0.000 C 
ATOM      3  C   UNL     1     -10.832  -6.369  17.183  0.00  0.00    +0.000 C 
ATOM      4  O   UNL     1     -11.399  -7.300  16.643  0.00  0.00    +0.000 OA
ATOM      5  N   UNL     1     -10.982  -5.065  16.879  0.00  0.00    +0.000 N 
ATOM      6  C   UNL     1     -10.195  -4.294  17.659  0.00  0.00    +0.000 C 
ATOM      7  O   UNL     1     -10.126  -3.079  17.623  0.00  0.00    +0.000 OA
ATOM      8  H   UNL     1     -11.596  -4.713  16.164  0.00  0.00    +0.000 HD
ENDROOT
BRANCH   2   9
ATOM      9  C   UNL     1      -9.428  -7.674  18.861  0.00  0.00    +0.000 A 
ATOM     10  C   UNL     1      -9.122  -7.837  20.194  0.00  0.00    +0.000 A 
ATOM     11  N   UNL     1      -8.693  -9.128  20.368  0.00  0.00    +0.000 N 
ATOM     12  C   UNL     1      -8.722  -9.805  19.169  0.00  0.00    +0.000 A 
ATOM     13  C   UNL     1      -8.344 -11.119  18.868  0.00  0.00    +0.000 A 
ATOM     14  C   UNL     1      -8.483 -11.535  17.546  0.00  0.00    +0.000 A 
ATOM     15  F   UNL     1      -8.114 -12.781  17.215  0.00  0.00    +0.000 F 
ATOM     16  C   UNL     1      -8.990 -10.697  16.562  0.00  0.00    +0.000 A 
ATOM     17  C   UNL     1      -9.362  -9.383  16.877  0.00  0.00    +0.000 A 
ATOM     18  C   UNL     1      -9.213  -8.920  18.203  0.00  0.00    +0.000 A 
ATOM     19  H   UNL     1      -9.148  -7.150  21.029  0.00  0.00    +0.000 HD
ATOM     20  H   UNL     1      -8.377  -9.523  21.242  0.00  0.00    +0.000 HD
ATOM     21  H   UNL     1      -7.945 -11.792  19.618  0.00  0.00    +0.000 HD
ATOM     22  H   UNL     1      -9.084 -11.065  15.545  0.00  0.00    +0.000 HD
ATOM     23  H   UNL     1      -9.750  -8.729  16.102  0.00  0.00    +0.000 HD
ENDBRANCH   2   9
BRANCH   1  26
ATOM     24  N   UNL     1      -7.630  -3.690  21.256  0.00  0.00    +0.000 N 
ATOM     25  C   UNL     1      -8.792  -3.903  20.561  0.00  0.00    +0.000 A 
ATOM     26  C   UNL     1      -8.504  -4.751  19.516  0.00  0.00    +0.000 A 
ATOM     27  C   UNL     1      -7.116  -5.074  19.579  0.00  0.00    +0.000 A 
ATOM     28  C   UNL     1      -6.254  -5.885  18.812  0.00  0.00    +0.000 A 
ATOM     29  C   UNL     1      -4.898  -5.966  19.149  0.00  0.00    +0.000 A 
ATOM     30  C   UNL     1      -4.392  -5.251  20.230  0.00  0.00    +0.000 A 
ATOM     31  C   UNL     1      -5.226  -4.446  21.011  0.00  0.00    +0.000 A 
ATOM     32  C   UNL     1      -6.586  -4.379  20.672  0.00  0.00    +0.000 A 
ATOM     33  H   UNL     1      -9.720  -3.433  20.865  0.00  0.00    +0.000 HD
ATOM     34  H   UNL     1      -6.632  -6.443  17.961  0.00  0.00    +0.000 HD
ATOM     35  H   UNL     1      -4.231  -6.586  18.554  0.00  0.00    +0.000 HD
ATOM     36  H   UNL     1      -3.334  -5.317  20.472  0.00  0.00    +0.000 HD
ATOM     37  H   UNL     1      -4.822  -3.889  21.851  0.00  0.00    +0.000 HD
BRANCH  24  38
ATOM     38  C   UNL     1      -7.511  -2.865  22.438  0.00  0.00    +0.000 C 
ATOM     39  H   UNL     1      -8.025  -1.914  22.274  0.00  0.00    +0.000 HD
ATOM     40  H   UNL     1      -6.451  -2.687  22.631  0.00  0.00    +0.000 HD
ATOM     41  H   UNL     1      -7.974  -3.395  23.275  0.00  0.00    +0.000 HD
ENDBRANCH  24  38
ENDBRANCH   1  26
TORSDOF 3
ENDMDL
MODEL 4
REMARK VINA RESULT:   -10.853      2.353      6.183
REMARK INTER + INTRA:         -12.759
REMARK INTER:                 -12.963
REMARK INTRA:                   0.204
REMARK UNBOUND:                -0.319
REMARK  Name = 
REMARK  3 active torsions:
REMARK  status: ('A' for Active; 'I' for Inactive)
REMARK    1  A    between atoms: C_1  and  N_2
REMARK    2  A    between atoms: C_4  and  C_5
REMARK    3  A    between atoms: C_6  and  C_7
REMARK                            x       y       z     vdW  Elec       q    Type
REMARK                         _______ _______ _______ _____ _____    ______ ____
ROOT
ATOM      1  C   UNL     1      -9.857  -7.186  17.558  0.00  0.00    +0.000 C 
ATOM      2  C   UNL     1      -9.630  -5.887  17.798  0.00  0.00    +0.000 C 
ATOM      3  C   UNL     1     -10.309  -5.115  16.731  0.00  0.00    +0.000 C 
ATOM      4  O   UNL     1     -10.346  -3.904  16.620  0.00  0.00    +0.000 OA
ATOM      5  N   UNL     1     -10.895  -6.005  15.907  0.00  0.00    +0.000 N 
ATOM      6  C   UNL     1     -10.671  -7.269  16.324  0.00  0.00    +0.000 C 
ATOM      7  O   UNL     1     -11.064  -8.282  15.775  0.00  0.00    +0.000 OA
ATOM      8  H   UNL     1     -11.430  -5.761  15.091  0.00  0.00    +0.000 HD
ENDROOT
BRANCH   2   9
ATOM      9  C   UNL     1      -8.907  -5.280  18.852  0.00  0.00    +0.000 A 
ATOM     10  C   UNL     1      -9.455  -4.419  19.775  0.00  0.00    +0.000 A 
ATOM     11  N   UNL     1      -8.442  -3.979  20.587  0.00  0.00    +0.000 N 
ATOM     12  C   UNL     1      -7.247  -4.547  20.209  0.00  0.00    +0.000 A 
ATOM     13  C   UNL     1      -5.959  -4.364  20.726  0.00  0.00    +0.000 A 
ATOM     14  C   UNL     1      -4.925  -5.081  20.130  0.00  0.00    +0.000 A 
ATOM     15  F   UNL     1      -3.674  -4.918  20.586  0.00  0.00    +0.000 F 
ATOM     16  C   UNL     1      -5.150  -5.956  19.076  0.00  0.00    +0.000 A 
ATOM     17  C   UNL     1      -6.444  -6.129  18.567  0.00  0.00    +0.000 A 
ATOM     18  C   UNL     1      -7.514  -5.400  19.133  0.00  0.00    +0.000 A 
ATOM     19  H   UNL     1     -10.466  -4.060  19.915  0.00  0.00    +0.000 HD
ATOM     20  H   UNL     1      -8.548  -3.315  21.342  0.00  0.00    +0.000 HD
ATOM     21  H   UNL     1      -5.757  -3.685  21.547  0.00  0.00    +0.000 HD
ATOM     22  H   UNL     1      -4.314  -6.498  18.644  0.00  0.00    +0.000 HD
ATOM     23  H   UNL     1      -6.614  -6.808  17.738  0.00  0.00    +0.000 HD
ENDBRANCH   2   9
BRANCH   1  26
ATOM     24  N   UNL     1      -8.844  -9.597  20.011  0.00  0.00    +0.000 N 
ATOM     25  C   UNL     1      -9.257  -8.337  19.662  0.00  0.00    +0.000 A 
ATOM     26  C   UNL     1      -9.440  -8.320  18.299  0.00  0.00    +0.000 A 
ATOM     27  C   UNL     1      -9.136  -9.619  17.795  0.00  0.00    +0.000 A 
ATOM     28  C   UNL     1      -9.147 -10.211  16.515  0.00  0.00    +0.000 A 
ATOM     29  C   UNL     1      -8.758 -11.548  16.367  0.00  0.00    +0.000 A 
ATOM     30  C   UNL     1      -8.359 -12.296  17.470  0.00  0.00    +0.000 A 
ATOM     31  C   UNL     1      -8.345 -11.736  18.750  0.00  0.00    +0.000 A 
ATOM     32  C   UNL     1      -8.745 -10.398  18.890  0.00  0.00    +0.000 A 
ATOM     33  H   UNL     1      -9.380  -7.563  20.410  0.00  0.00    +0.000 HD
ATOM     34  H   UNL     1      -9.449  -9.638  15.643  0.00  0.00    +0.000 HD
ATOM     35  H   UNL     1      -8.761 -12.003  15.379  0.00  0.00    +0.000 HD
ATOM     36  H   UNL     1      -8.050 -13.330  17.335  0.00  0.00    +0.000 HD
ATOM     37  H   UNL     1      -8.028 -12.326  19.604  0.00  0.00    +0.000 HD
BRANCH  24  38
ATOM     38  C   UNL     1      -8.556 -10.031  21.359  0.00  0.00    +0.000 C 
ATOM     39  H   UNL     1      -8.787  -9.225  22.061  0.00  0.00    +0.000 HD
ATOM     40  H   UNL     1      -7.496 -10.287  21.423  0.00  0.00    +0.000 HD
ATOM     41  H   UNL     1      -9.179 -10.902  21.580  0.00  0.00    +0.000 HD
ENDBRANCH  24  38
ENDBRANCH   1  26
TORSDOF 3
ENDMDL
MODEL 5
REMARK VINA RESULT:    -9.663      3.127      5.274
REMARK INTER + INTRA:         -11.395
REMARK INTER:                 -10.333
REMARK INTRA:                  -1.062
REMARK UNBOUND:                -0.319
REMARK  Name = 
REMARK  3 active torsions:
REMARK  status: ('A' for Active; 'I' for Inactive)
REMARK    1  A    between atoms: C_1  and  N_2
REMARK    2  A    between atoms: C_4  and  C_5
REMARK    3  A    between atoms: C_6  and  C_7
REMARK                            x       y       z     vdW  Elec       q    Type
REMARK                         _______ _______ _______ _____ _____    ______ ____
ROOT
ATOM      1  C   UNL     1      -8.669  -7.446  18.851  0.00  0.00    +0.000 C 
ATOM      2  C   UNL     1      -9.205  -7.638  17.638  0.00  0.00    +0.000 C 
ATOM      3  C   UNL     1      -9.569  -9.071  17.537  0.00  0.00    +0.000 C 
ATOM      4  O   UNL     1     -10.100  -9.622  16.591  0.00  0.00    +0.000 OA
ATOM      5  N   UNL     1      -9.215  -9.655  18.699  0.00  0.00    +0.000 N 
ATOM      6  C   UNL     1      -8.663  -8.756  19.542  0.00  0.00    +0.000 C 
ATOM      7  O   UNL     1      -8.238  -8.992  20.657  0.00  0.00    +0.000 OA
ATOM      8  H   UNL     1      -9.346 -10.629  18.911  0.00  0.00    +0.000 HD
ENDROOT
BRANCH   2   9
ATOM      9  C   UNL     1      -9.434  -6.706  16.598  0.00  0.00    +0.000 A 
ATOM     10  C   UNL     1      -8.725  -6.670  15.418  0.00  0.00    +0.000 A 
ATOM     11  N   UNL     1      -9.173  -5.594  14.696  0.00  0.00    +0.000 N 
ATOM     12  C   UNL     1     -10.166  -4.936  15.388  0.00  0.00    +0.000 A 
ATOM     13  C   UNL     1     -10.880  -3.779  15.055  0.00  0.00    +0.000 A 
ATOM     14  C   UNL     1     -11.837  -3.337  15.965  0.00  0.00    +0.000 A 
ATOM     15  F   UNL     1     -12.529  -2.222  15.690  0.00  0.00    +0.000 F 
ATOM     16  C   UNL     1     -12.093  -4.015  17.149  0.00  0.00    +0.000 A 
ATOM     17  C   UNL     1     -11.369  -5.171  17.471  0.00  0.00    +0.000 A 
ATOM     18  C   UNL     1     -10.374  -5.635  16.581  0.00  0.00    +0.000 A 
ATOM     19  H   UNL     1      -7.929  -7.294  15.035  0.00  0.00    +0.000 HD
ATOM     20  H   UNL     1      -8.814  -5.306  13.796  0.00  0.00    +0.000 HD
ATOM     21  H   UNL     1     -10.697  -3.231  14.137  0.00  0.00    +0.000 HD
ATOM     22  H   UNL     1     -12.851  -3.636  17.827  0.00  0.00    +0.000 HD
ATOM     23  H   UNL     1     -11.567  -5.693  18.402  0.00  0.00    +0.000 HD
ENDBRANCH   2   9
BRANCH   1  26
ATOM     24  N   UNL     1      -8.152  -4.222  20.331  0.00  0.00    +0.000 N 
ATOM     25  C   UNL     1      -8.974  -5.192  19.822  0.00  0.00    +0.000 A 
ATOM     26  C   UNL     1      -8.183  -6.251  19.437  0.00  0.00    +0.000 A 
ATOM     27  C   UNL     1      -6.828  -5.918  19.729  0.00  0.00    +0.000 A 
ATOM     28  C   UNL     1      -5.592  -6.582  19.579  0.00  0.00    +0.000 A 
ATOM     29  C   UNL     1      -4.409  -5.939  19.962  0.00  0.00    +0.000 A 
ATOM     30  C   UNL     1      -4.441  -4.650  20.487  0.00  0.00    +0.000 A 
ATOM     31  C   UNL     1      -5.652  -3.973  20.652  0.00  0.00    +0.000 A 
ATOM     32  C   UNL     1      -6.834  -4.629  20.274  0.00  0.00    +0.000 A 
ATOM     33  H   UNL     1     -10.047  -5.047  19.772  0.00  0.00    +0.000 HD
ATOM     34  H   UNL     1      -5.550  -7.585  19.165  0.00  0.00    +0.000 HD
ATOM     35  H   UNL     1      -3.456  -6.448  19.842  0.00  0.00    +0.000 HD
ATOM     36  H   UNL     1      -3.512  -4.161  20.770  0.00  0.00    +0.000 HD
ATOM     37  H   UNL     1      -5.667  -2.966  21.059  0.00  0.00    +0.000 HD
BRANCH  24  38
ATOM     38  C   UNL     1      -8.597  -2.952  20.860  0.00  0.00    +0.000 C 
ATOM     39  H   UNL     1      -9.469  -2.607  20.298  0.00  0.00    +0.000 HD
ATOM     40  H   UNL     1      -7.783  -2.231  20.763  0.00  0.00    +0.000 HD
ATOM     41  H   UNL     1      -8.868  -3.093  21.911  0.00  0.00    +0.000 HD
ENDBRANCH  24  38
ENDBRANCH   1  26
TORSDOF 3
ENDMDL
MODEL 6
REMARK VINA RESULT:    -9.478      3.327      5.164
REMARK INTER + INTRA:         -11.183
REMARK INTER:                 -10.239
REMARK INTRA:                  -0.944
REMARK UNBOUND:                -0.319
REMARK  Name = 
REMARK  3 active torsions:
REMARK  status: ('A' for Active; 'I' for Inactive)
REMARK    1  A    between atoms: C_1  and  N_2
REMARK    2  A    between atoms: C_4  and  C_5
REMARK    3  A    between atoms: C_6  and  C_7
REMARK                            x       y       z     vdW  Elec       q    Type
REMARK                         _______ _______ _______ _____ _____    ______ ____
ROOT
ATOM      1  C   UNL     1      -7.004  -4.160  20.984  0.00  0.00    +0.000 C 
ATOM      2  C   UNL     1      -7.042  -5.274  20.239  0.00  0.00    +0.000 C 
ATOM      3  C   UNL     1      -5.641  -5.670  19.967  0.00  0.00    +0.000 C 
ATOM      4  O   UNL     1      -5.270  -6.644  19.338  0.00  0.00    +0.000 OA
ATOM      5  N   UNL     1      -4.846  -4.758  20.558  0.00  0.00    +0.000 N 
ATOM      6  C   UNL     1      -5.579  -3.814  21.186  0.00  0.00    +0.000 C 
ATOM      7  O   UNL     1      -5.138  -2.858  21.796  0.00  0.00    +0.000 OA
ATOM      8  H   UNL     1      -3.840  -4.778  20.537  0.00  0.00    +0.000 HD
ENDROOT
BRANCH   2   9
ATOM      9  C   UNL     1      -8.159  -6.006  19.773  0.00  0.00    +0.000 A 
ATOM     10  C   UNL     1      -8.486  -7.276  20.193  0.00  0.00    +0.000 A 
ATOM     11  N   UNL     1      -9.577  -7.685  19.471  0.00  0.00    +0.000 N 
ATOM     12  C   UNL     1      -9.967  -6.697  18.594  0.00  0.00    +0.000 A 
ATOM     13  C   UNL     1     -10.998  -6.689  17.648  0.00  0.00    +0.000 A 
ATOM     14  C   UNL     1     -11.156  -5.533  16.887  0.00  0.00    +0.000 A 
ATOM     15  F   UNL     1     -12.122  -5.494  15.958  0.00  0.00    +0.000 F 
ATOM     16  C   UNL     1     -10.341  -4.422  17.062  0.00  0.00    +0.000 A 
ATOM     17  C   UNL     1      -9.310  -4.446  18.011  0.00  0.00    +0.000 A 
ATOM     18  C   UNL     1      -9.107  -5.610  18.784  0.00  0.00    +0.000 A 
ATOM     19  H   UNL     1      -8.030  -7.935  20.920  0.00  0.00    +0.000 HD
ATOM     20  H   UNL     1     -10.021  -8.590  19.550  0.00  0.00    +0.000 HD
ATOM     21  H   UNL     1     -11.647  -7.544  17.492  0.00  0.00    +0.000 HD
ATOM     22  H   UNL     1     -10.503  -3.541  16.449  0.00  0.00    +0.000 HD
ATOM     23  H   UNL     1      -8.671  -3.578  18.138  0.00  0.00    +0.000 HD
ENDBRANCH   2   9
BRANCH   1  26
ATOM     24  N   UNL     1      -9.848  -2.075  21.632  0.00  0.00    +0.000 N 
ATOM     25  C   UNL     1      -8.968  -2.672  20.768  0.00  0.00    +0.000 A 
ATOM     26  C   UNL     1      -8.077  -3.404  21.520  0.00  0.00    +0.000 A 
ATOM     27  C   UNL     1      -8.430  -3.254  22.893  0.00  0.00    +0.000 A 
ATOM     28  C   UNL     1      -7.915  -3.756  24.107  0.00  0.00    +0.000 A 
ATOM     29  C   UNL     1      -8.508  -3.381  25.318  0.00  0.00    +0.000 A 
ATOM     30  C   UNL     1      -9.597  -2.516  25.336  0.00  0.00    +0.000 A 
ATOM     31  C   UNL     1     -10.131  -2.009  24.148  0.00  0.00    +0.000 A 
ATOM     32  C   UNL     1      -9.536  -2.398  22.937  0.00  0.00    +0.000 A 
ATOM     33  H   UNL     1      -9.047  -2.524  19.697  0.00  0.00    +0.000 HD
ATOM     34  H   UNL     1      -7.062  -4.427  24.110  0.00  0.00    +0.000 HD
ATOM     35  H   UNL     1      -8.109  -3.764  26.254  0.00  0.00    +0.000 HD
ATOM     36  H   UNL     1     -10.040  -2.227  26.287  0.00  0.00    +0.000 HD
ATOM     37  H   UNL     1     -10.979  -1.331  24.172  0.00  0.00    +0.000 HD
BRANCH  24  38
ATOM     38  C   UNL     1     -10.952  -1.229  21.236  0.00  0.00    +0.000 C 
ATOM     39  H   UNL     1     -10.648  -0.180  21.289  0.00  0.00    +0.000 HD
ATOM     40  H   UNL     1     -11.787  -1.408  21.917  0.00  0.00    +0.000 HD
ATOM     41  H   UNL     1     -11.228  -1.482  20.209  0.00  0.00    +0.000 HD
ENDBRANCH  24  38
ENDBRANCH   1  26
TORSDOF 3
ENDMDL
MODEL 7
REMARK VINA RESULT:    -9.403      3.752      7.617
REMARK INTER + INTRA:         -11.097
REMARK INTER:                 -10.602
REMARK INTRA:                  -0.494
REMARK UNBOUND:                -0.319
REMARK  Name = 
REMARK  3 active torsions:
REMARK  status: ('A' for Active; 'I' for Inactive)
REMARK    1  A    between atoms: C_1  and  N_2
REMARK    2  A    between atoms: C_4  and  C_5
REMARK    3  A    between atoms: C_6  and  C_7
REMARK                            x       y       z     vdW  Elec       q    Type
REMARK                         _______ _______ _______ _____ _____    ______ ____
ROOT
ATOM      1  C   UNL     1      -6.885  -4.937  19.980  0.00  0.00    +0.000 C 
ATOM      2  C   UNL     1      -6.938  -3.988  20.926  0.00  0.00    +0.000 C 
ATOM      3  C   UNL     1      -5.545  -3.691  21.331  0.00  0.00    +0.000 C 
ATOM      4  O   UNL     1      -5.186  -2.870  22.154  0.00  0.00    +0.000 OA
ATOM      5  N   UNL     1      -4.739  -4.493  20.608  0.00  0.00    +0.000 N 
ATOM      6  C   UNL     1      -5.458  -5.275  19.776  0.00  0.00    +0.000 C 
ATOM      7  O   UNL     1      -5.007  -6.107  19.011  0.00  0.00    +0.000 OA
ATOM      8  H   UNL     1      -3.736  -4.505  20.676  0.00  0.00    +0.000 HD
ENDROOT
BRANCH   2   9
ATOM      9  C   UNL     1      -8.063  -3.331  21.477  0.00  0.00    +0.000 A 
ATOM     10  C   UNL     1      -8.998  -2.641  20.739  0.00  0.00    +0.000 A 
ATOM     11  N   UNL     1      -9.889  -2.079  21.617  0.00  0.00    +0.000 N 
ATOM     12  C   UNL     1      -9.550  -2.400  22.912  0.00  0.00    +0.000 A 
ATOM     13  C   UNL     1     -10.148  -2.024  24.120  0.00  0.00    +0.000 A 
ATOM     14  C   UNL     1      -9.574  -2.505  25.293  0.00  0.00    +0.000 A 
ATOM     15  F   UNL     1     -10.109  -2.151  26.471  0.00  0.00    +0.000 F 
ATOM     16  C   UNL     1      -8.464  -3.339  25.279  0.00  0.00    +0.000 A 
ATOM     17  C   UNL     1      -7.873  -3.706  24.063  0.00  0.00    +0.000 A 
ATOM     18  C   UNL     1      -8.416  -3.217  22.854  0.00  0.00    +0.000 A 
ATOM     19  H   UNL     1      -9.100  -2.477  19.674  0.00  0.00    +0.000 HD
ATOM     20  H   UNL     1     -10.671  -1.494  21.357  0.00  0.00    +0.000 HD
ATOM     21  H   UNL     1     -11.015  -1.373  24.157  0.00  0.00    +0.000 HD
ATOM     22  H   UNL     1      -8.052  -3.694  26.219  0.00  0.00    +0.000 HD
ATOM     23  H   UNL     1      -7.000  -4.352  24.058  0.00  0.00    +0.000 HD
ENDBRANCH   2   9
BRANCH   1  26
ATOM     24  N   UNL     1      -9.693  -5.788  17.918  0.00  0.00    +0.000 N 
ATOM     25  C   UNL     1      -8.802  -4.875  18.418  0.00  0.00    +0.000 A 
ATOM     26  C   UNL     1      -7.945  -5.545  19.261  0.00  0.00    +0.000 A 
ATOM     27  C   UNL     1      -8.320  -6.920  19.270  0.00  0.00    +0.000 A 
ATOM     28  C   UNL     1      -7.828  -8.076  19.913  0.00  0.00    +0.000 A 
ATOM     29  C   UNL     1      -8.466  -9.305  19.711  0.00  0.00    +0.000 A 
ATOM     30  C   UNL     1      -9.582  -9.398  18.886  0.00  0.00    +0.000 A 
ATOM     31  C   UNL     1     -10.086  -8.270  18.232  0.00  0.00    +0.000 A 
ATOM     32  C   UNL     1      -9.434  -7.043  18.432  0.00  0.00    +0.000 A 
ATOM     33  H   UNL     1      -8.855  -3.829  18.137  0.00  0.00    +0.000 HD
ATOM     34  H   UNL     1      -6.962  -8.018  20.566  0.00  0.00    +0.000 HD
ATOM     35  H   UNL     1      -8.090 -10.195  20.211  0.00  0.00    +0.000 HD
ATOM     36  H   UNL     1     -10.071 -10.359  18.748  0.00  0.00    +0.000 HD
ATOM     37  H   UNL     1     -10.959  -8.351  17.592  0.00  0.00    +0.000 HD
BRANCH  24  38
ATOM     38  C   UNL     1     -10.751  -5.486  16.981  0.00  0.00    +0.000 C 
ATOM     39  H   UNL     1     -10.365  -4.840  16.188  0.00  0.00    +0.000 HD
ATOM     40  H   UNL     1     -11.554  -4.975  17.518  0.00  0.00    +0.000 HD
ATOM     41  H   UNL     1     -11.109  -6.425  16.551  0.00  0.00    +0.000 HD
ENDBRANCH  24  38
ENDBRANCH   1  26
TORSDOF 3
ENDMDL
MODEL 8
REMARK VINA RESULT:    -9.399      4.456      6.712
REMARK INTER + INTRA:         -11.091
REMARK INTER:                  -9.571
REMARK INTRA:                  -1.520
REMARK UNBOUND:                -0.319
REMARK  Name = 
REMARK  3 active torsions:
REMARK  status: ('A' for Active; 'I' for Inactive)
REMARK    1  A    between atoms: C_1  and  N_2
REMARK    2  A    between atoms: C_4  and  C_5
REMARK    3  A    between atoms: C_6  and  C_7
REMARK                            x       y       z     vdW  Elec       q    Type
REMARK                         _______ _______ _______ _____ _____    ______ ____
ROOT
ATOM      1  C   UNL     1     -10.226  -1.745  21.412  0.00  0.00    +0.000 C 
ATOM      2  C   UNL     1      -9.353  -2.243  22.300  0.00  0.00    +0.000 C 
ATOM      3  C   UNL     1     -10.076  -2.412  23.582  0.00  0.00    +0.000 C 
ATOM      4  O   UNL     1      -9.623  -2.858  24.619  0.00  0.00    +0.000 OA
ATOM      5  N   UNL     1     -11.341  -1.991  23.386  0.00  0.00    +0.000 N 
ATOM      6  C   UNL     1     -11.517  -1.570  22.116  0.00  0.00    +0.000 C 
ATOM      7  O   UNL     1     -12.549  -1.123  21.649  0.00  0.00    +0.000 OA
ATOM      8  H   UNL     1     -12.058  -1.992  24.091  0.00  0.00    +0.000 HD
ENDROOT
BRANCH   2   9
ATOM      9  C   UNL     1      -7.992  -2.587  22.126  0.00  0.00    +0.000 A 
ATOM     10  C   UNL     1      -6.938  -1.879  22.659  0.00  0.00    +0.000 A 
ATOM     11  N   UNL     1      -5.779  -2.463  22.218  0.00  0.00    +0.000 N 
ATOM     12  C   UNL     1      -6.066  -3.543  21.413  0.00  0.00    +0.000 A 
ATOM     13  C   UNL     1      -5.205  -4.406  20.724  0.00  0.00    +0.000 A 
ATOM     14  C   UNL     1      -5.790  -5.422  19.973  0.00  0.00    +0.000 A 
ATOM     15  F   UNL     1      -4.999  -6.258  19.284  0.00  0.00    +0.000 F 
ATOM     16  C   UNL     1      -7.166  -5.594  19.915  0.00  0.00    +0.000 A 
ATOM     17  C   UNL     1      -8.016  -4.722  20.608  0.00  0.00    +0.000 A 
ATOM     18  C   UNL     1      -7.458  -3.665  21.361  0.00  0.00    +0.000 A 
ATOM     19  H   UNL     1      -6.905  -1.001  23.291  0.00  0.00    +0.000 HD
ATOM     20  H   UNL     1      -4.846  -2.138  22.431  0.00  0.00    +0.000 HD
ATOM     21  H   UNL     1      -4.127  -4.291  20.752  0.00  0.00    +0.000 HD
ATOM     22  H   UNL     1      -7.578  -6.404  19.319  0.00  0.00    +0.000 HD
ATOM     23  H   UNL     1      -9.092  -4.856  20.552  0.00  0.00    +0.000 HD
ENDBRANCH   2   9
BRANCH   1  26
ATOM     24  N   UNL     1      -9.339  -0.373  18.220  0.00  0.00    +0.000 N 
ATOM     25  C   UNL     1      -9.290  -0.360  19.590  0.00  0.00    +0.000 A 
ATOM     26  C   UNL     1     -10.030  -1.427  20.045  0.00  0.00    +0.000 A 
ATOM     27  C   UNL     1     -10.544  -2.124  18.912  0.00  0.00    +0.000 A 
ATOM     28  C   UNL     1     -11.342  -3.274  18.736  0.00  0.00    +0.000 A 
ATOM     29  C   UNL     1     -11.690  -3.684  17.444  0.00  0.00    +0.000 A 
ATOM     30  C   UNL     1     -11.260  -2.966  16.332  0.00  0.00    +0.000 A 
ATOM     31  C   UNL     1     -10.463  -1.828  16.478  0.00  0.00    +0.000 A 
ATOM     32  C   UNL     1     -10.111  -1.429  17.777  0.00  0.00    +0.000 A 
ATOM     33  H   UNL     1      -8.738   0.406  20.122  0.00  0.00    +0.000 HD
ATOM     34  H   UNL     1     -11.692  -3.840  19.594  0.00  0.00    +0.000 HD
ATOM     35  H   UNL     1     -12.310  -4.567  17.308  0.00  0.00    +0.000 HD
ATOM     36  H   UNL     1     -11.548  -3.294  15.336  0.00  0.00    +0.000 HD
ATOM     37  H   UNL     1     -10.134  -1.272  15.605  0.00  0.00    +0.000 HD
BRANCH  24  38
ATOM     38  C   UNL     1      -8.675   0.578  17.358  0.00  0.00    +0.000 C 
ATOM     39  H   UNL     1      -8.444   1.485  17.923  0.00  0.00    +0.000 HD
ATOM     40  H   UNL     1      -9.341   0.817  16.527  0.00  0.00    +0.000 HD
ATOM     41  H   UNL     1      -7.748   0.124  16.995  0.00  0.00    +0.000 HD
ENDBRANCH  24  38
ENDBRANCH   1  26
TORSDOF 3
ENDMDL
MODEL 9
REMARK VINA RESULT:    -9.382      4.293      7.542
REMARK INTER + INTRA:         -11.073
REMARK INTER:                  -9.524
REMARK INTRA:                  -1.549
REMARK UNBOUND:                -0.319
REMARK  Name = 
REMARK  3 active torsions:
REMARK  status: ('A' for Active; 'I' for Inactive)
REMARK    1  A    between atoms: C_1  and  N_2
REMARK    2  A    between atoms: C_4  and  C_5
REMARK    3  A    between atoms: C_6  and  C_7
REMARK                            x       y       z     vdW  Elec       q    Type
REMARK                         _______ _______ _______ _____ _____    ______ ____
ROOT
ATOM      1  C   UNL     1      -9.860  -1.703  18.696  0.00  0.00    +0.000 C 
ATOM      2  C   UNL     1     -10.161  -1.045  19.825  0.00  0.00    +0.000 C 
ATOM      3  C   UNL     1      -9.931   0.397  19.570  0.00  0.00    +0.000 C 
ATOM      4  O   UNL     1     -10.113   1.312  20.351  0.00  0.00    +0.000 OA
ATOM      5  N   UNL     1      -9.493   0.512  18.301  0.00  0.00    +0.000 N 
ATOM      6  C   UNL     1      -9.416  -0.697  17.705  0.00  0.00    +0.000 C 
ATOM      7  O   UNL     1      -9.042  -0.908  16.566  0.00  0.00    +0.000 OA
ATOM      8  H   UNL     1      -9.258   1.383  17.856  0.00  0.00    +0.000 HD
ENDROOT
BRANCH   2   9
ATOM      9  C   UNL     1     -10.630  -1.547  21.061  0.00  0.00    +0.000 A 
ATOM     10  C   UNL     1     -11.946  -1.853  21.326  0.00  0.00    +0.000 A 
ATOM     11  N   UNL     1     -12.029  -2.237  22.639  0.00  0.00    +0.000 N 
ATOM     12  C   UNL     1     -10.785  -2.190  23.228  0.00  0.00    +0.000 A 
ATOM     13  C   UNL     1     -10.403  -2.461  24.547  0.00  0.00    +0.000 A 
ATOM     14  C   UNL     1      -9.052  -2.324  24.861  0.00  0.00    +0.000 A 
ATOM     15  F   UNL     1      -8.651  -2.557  26.119  0.00  0.00    +0.000 F 
ATOM     16  C   UNL     1      -8.112  -1.951  23.909  0.00  0.00    +0.000 A 
ATOM     17  C   UNL     1      -8.509  -1.680  22.593  0.00  0.00    +0.000 A 
ATOM     18  C   UNL     1      -9.875  -1.787  22.246  0.00  0.00    +0.000 A 
ATOM     19  H   UNL     1     -12.835  -1.812  20.709  0.00  0.00    +0.000 HD
ATOM     20  H   UNL     1     -12.881  -2.495  23.118  0.00  0.00    +0.000 HD
ATOM     21  H   UNL     1     -11.118  -2.753  25.308  0.00  0.00    +0.000 HD
ATOM     22  H   UNL     1      -7.069  -1.860  24.198  0.00  0.00    +0.000 HD
ATOM     23  H   UNL     1      -7.771  -1.381  21.856  0.00  0.00    +0.000 HD
ENDBRANCH   2   9
BRANCH   1  26
ATOM     24  N   UNL     1     -10.585  -5.019  17.540  0.00  0.00    +0.000 N 
ATOM     25  C   UNL     1     -10.800  -3.665  17.521  0.00  0.00    +0.000 A 
ATOM     26  C   UNL     1      -9.934  -3.092  18.423  0.00  0.00    +0.000 A 
ATOM     27  C   UNL     1      -9.155  -4.132  19.010  0.00  0.00    +0.000 A 
ATOM     28  C   UNL     1      -8.119  -4.172  19.968  0.00  0.00    +0.000 A 
ATOM     29  C   UNL     1      -7.572  -5.404  20.344  0.00  0.00    +0.000 A 
ATOM     30  C   UNL     1      -8.041  -6.589  19.785  0.00  0.00    +0.000 A 
ATOM     31  C   UNL     1      -9.061  -6.576  18.830  0.00  0.00    +0.000 A 
ATOM     32  C   UNL     1      -9.597  -5.336  18.451  0.00  0.00    +0.000 A 
ATOM     33  H   UNL     1     -11.550  -3.227  16.873  0.00  0.00    +0.000 HD
ATOM     34  H   UNL     1      -7.747  -3.257  20.418  0.00  0.00    +0.000 HD
ATOM     35  H   UNL     1      -6.778  -5.436  21.086  0.00  0.00    +0.000 HD
ATOM     36  H   UNL     1      -7.611  -7.538  20.096  0.00  0.00    +0.000 HD
ATOM     37  H   UNL     1      -9.423  -7.506  18.401  0.00  0.00    +0.000 HD
BRANCH  24  38
ATOM     38  C   UNL     1     -11.287  -5.980  16.721  0.00  0.00    +0.000 C 
ATOM     39  H   UNL     1     -12.312  -5.640  16.553  0.00  0.00    +0.000 HD
ATOM     40  H   UNL     1     -11.296  -6.940  17.242  0.00  0.00    +0.000 HD
ATOM     41  H   UNL     1     -10.765  -6.064  15.764  0.00  0.00    +0.000 HD
ENDBRANCH  24  38
ENDBRANCH   1  26
TORSDOF 3
ENDMDL
