
 OpenBabel01112422323D

 37 42  0  0  0  0  0  0  0  0999 V2000
    2.3157    0.8719    0.0960 O   0  0  0  0  0  0  0  0  0  0  0  0
    3.0682   -0.0701   -0.1521 C   0  0  0  0  0  0  0  0  0  0  0  0
    3.8204   -0.6945    0.8132 N   0  0  0  0  0  0  0  0  0  0  0  0
    4.5796   -1.7496    0.3947 C   0  0  0  0  0  0  0  0  0  0  0  0
    5.1557   -2.4978    1.1737 O   0  0  0  0  0  0  0  0  0  0  0  0
    4.4049   -1.7150   -1.0224 C   0  0  0  0  0  0  0  0  0  0  0  0
    3.4123   -0.7596   -1.3606 C   0  0  0  0  0  0  0  0  0  0  0  0
    2.8648   -0.6035   -2.6434 C   0  0  0  0  0  0  0  0  0  0  0  0
    3.4306   -1.3751   -3.6942 C   0  0  0  0  0  0  0  0  0  0  0  0
    2.9029   -1.3794   -4.9903 C   0  0  0  0  0  0  0  0  0  0  0  0
    1.6919   -0.7342   -5.2370 C   0  0  0  0  0  0  0  0  0  0  0  0
    1.1193    0.0668   -4.2336 C   0  0  0  0  0  0  0  0  0  0  0  0
   -0.0809    0.8185   -4.1589 C   0  0  0  0  0  0  0  0  0  0  0  0
    0.0817    1.7001   -3.1178 C   0  0  0  0  0  0  0  0  0  0  0  0
    1.1317    1.2507   -2.3608 N   0  0  0  0  0  0  0  0  0  0  0  0
    1.7753    0.2100   -3.0039 C   0  0  0  0  0  0  0  0  0  0  0  0
    4.5711   -2.1379   -3.3777 C   0  0  0  0  0  0  0  0  0  0  0  0
    5.5005   -2.8098   -4.1535 N   0  0  0  0  0  0  0  0  0  0  0  0
    6.5166   -3.3321   -3.3673 C   0  0  0  0  0  0  0  0  0  0  0  0
    7.7077   -3.9626   -3.7585 C   0  0  0  0  0  0  0  0  0  0  0  0
    8.5628   -4.3881   -2.7430 C   0  0  0  0  0  0  0  0  0  0  0  0
    9.7544   -4.9859   -3.0344 O   0  0  0  0  0  0  0  0  0  0  0  0
    8.2510   -4.2216   -1.4044 C   0  0  0  0  0  0  0  0  0  0  0  0
    7.0653   -3.5844   -1.0276 C   0  0  0  0  0  0  0  0  0  0  0  0
    6.1904   -3.1069   -2.0206 C   0  0  0  0  0  0  0  0  0  0  0  0
    5.0243   -2.3566   -2.1097 C   0  0  0  0  0  0  0  0  0  0  0  0
    3.7668   -0.4510    1.7862 H   0  0  0  0  0  0  0  0  0  0  0  0
    3.3728   -1.9281   -5.7990 H   0  0  0  0  0  0  0  0  0  0  0  0
    1.2220   -0.8010   -6.2141 H   0  0  0  0  0  0  0  0  0  0  0  0
   -0.8973    0.8121   -4.8696 H   0  0  0  0  0  0  0  0  0  0  0  0
   -0.4771    2.5825   -2.8382 H   0  0  0  0  0  0  0  0  0  0  0  0
    1.4424    1.6593   -1.4847 H   0  0  0  0  0  0  0  0  0  0  0  0
    5.5100   -2.8072   -5.1645 H   0  0  0  0  0  0  0  0  0  0  0  0
    7.9546   -4.0793   -4.8061 H   0  0  0  0  0  0  0  0  0  0  0  0
    9.8291   -5.0681   -3.9979 H   0  0  0  0  0  0  0  0  0  0  0  0
    8.9364   -4.5667   -0.6350 H   0  0  0  0  0  0  0  0  0  0  0  0
    6.8612   -3.4596    0.0295 H   0  0  0  0  0  0  0  0  0  0  0  0
  1  2  2  0  0  0  0
  2  3  1  0  0  0  0
  2  7  1  0  0  0  0
  3  4  1  0  0  0  0
  3 27  1  0  0  0  0
  4  5  2  0  0  0  0
  4  6  1  0  0  0  0
  6  7  1  0  0  0  0
  6 26  2  0  0  0  0
  7  8  2  0  0  0  0
  8  9  1  0  0  0  0
  8 16  1  0  0  0  0
  9 10  1  0  0  0  0
  9 17  2  0  0  0  0
 10 11  2  0  0  0  0
 10 28  1  0  0  0  0
 11 12  1  0  0  0  0
 11 29  1  0  0  0  0
 12 13  1  0  0  0  0
 12 16  2  0  0  0  0
 13 14  2  0  0  0  0
 13 30  1  0  0  0  0
 14 15  1  0  0  0  0
 14 31  1  0  0  0  0
 15 16  1  0  0  0  0
 15 32  1  0  0  0  0
 17 18  1  0  0  0  0
 17 26  1  0  0  0  0
 18 19  1  0  0  0  0
 18 33  1  0  0  0  0
 19 20  1  0  0  0  0
 19 25  2  0  0  0  0
 20 21  2  0  0  0  0
 20 34  1  0  0  0  0
 21 22  1  0  0  0  0
 21 23  1  0  0  0  0
 22 35  1  0  0  0  0
 23 24  2  0  0  0  0
 23 36  1  0  0  0  0
 24 25  1  0  0  0  0
 24 37  1  0  0  0  0
 25 26  1  0  0  0  0
M  END
$$$$
