MODEL 1
REMARK VINA RESULT:   -10.491      0.000      0.000
REMARK INTER + INTRA:         -12.278
REMARK INTER:                 -12.331
REMARK INTRA:                   0.054
REMARK UNBOUND:                 0.054
REMARK  Name = 
REMARK  4 active torsions:
REMARK  status: ('A' for Active; 'I' for Inactive)
REMARK    1  A    between atoms: C_1  and  O_2
REMARK    2  A    between atoms: O_2  and  C_3
REMARK    3  A    between atoms: C_12  and  C_13
REMARK    4  A    between atoms: C_17  and  O_18
REMARK                            x       y       z     vdW  Elec       q    Type
REMARK                         _______ _______ _______ _____ _____    ______ ____
ROOT
ATOM      1  C   UNL     1      -8.769 -13.458  16.655  0.00  0.00    +0.000 A 
ATOM      2  C   UNL     1      -8.734 -13.199  18.040  0.00  0.00    +0.000 A 
ATOM      3  C   UNL     1      -8.748 -11.890  18.528  0.00  0.00    +0.000 A 
ATOM      4  C   UNL     1      -8.787 -10.863  17.604  0.00  0.00    +0.000 A 
ATOM      5  C   UNL     1      -8.803 -11.108  16.233  0.00  0.00    +0.000 A 
ATOM      6  C   UNL     1      -8.782 -12.400  15.733  0.00  0.00    +0.000 A 
ATOM      7  C   UNL     1      -8.855  -9.834  15.500  0.00  0.00    +0.000 C 
ATOM      8  O   UNL     1      -8.879  -9.691  14.296  0.00  0.00    +0.000 OA
ATOM      9  C   UNL     1      -8.877  -8.777  16.545  0.00  0.00    +0.000 C 
ATOM     10  C   UNL     1      -8.944  -7.466  16.273  0.00  0.00    +0.000 C 
ATOM     11  C   UNL     1      -8.822  -9.427  17.881  0.00  0.00    +0.000 C 
ATOM     12  O   UNL     1      -8.805  -8.922  18.983  0.00  0.00    +0.000 OA
ATOM     13  H   UNL     1      -8.682 -14.005  18.766  0.00  0.00    +0.000 HD
ATOM     14  H   UNL     1      -8.725 -11.685  19.594  0.00  0.00    +0.000 HD
ATOM     15  H   UNL     1      -8.792 -12.589  14.665  0.00  0.00    +0.000 HD
ATOM     16  H   UNL     1      -8.987  -7.123  15.240  0.00  0.00    +0.000 HD
ENDROOT
BRANCH  10  17
ATOM     17  C   UNL     1      -8.981  -6.412  17.292  0.00  0.00    +0.000 A 
ATOM     18  C   UNL     1     -10.104  -5.587  17.412  0.00  0.00    +0.000 A 
ATOM     19  C   UNL     1     -10.122  -4.568  18.368  0.00  0.00    +0.000 A 
ATOM     20 BR   UNL     1     -11.658  -3.461  18.496  0.00  0.00    +0.000 Br
ATOM     21  C   UNL     1      -9.027  -4.367  19.214  0.00  0.00    +0.000 A 
ATOM     22  C   UNL     1      -7.905  -5.191  19.092  0.00  0.00    +0.000 A 
ATOM     23 BR   UNL     1      -6.384  -4.963  20.203  0.00  0.00    +0.000 Br
ATOM     24  C   UNL     1      -7.881  -6.211  18.135  0.00  0.00    +0.000 A 
ATOM     25  H   UNL     1     -10.959  -5.730  16.755  0.00  0.00    +0.000 HD
ATOM     26  H   UNL     1      -7.000  -6.840  18.040  0.00  0.00    +0.000 HD
BRANCH  21  27
ATOM     27  O   UNL     1      -9.040  -3.377  20.162  0.00  0.00    +0.000 OA
ATOM     28  H   UNL     1      -9.117  -3.800  21.036  0.00  0.00    +0.000 HD
ENDBRANCH  21  27
ENDBRANCH  10  17
BRANCH   1  29
ATOM     29  O   UNL     1      -8.759 -14.715  16.111  0.00  0.00    +0.000 OA
BRANCH  29  30
ATOM     30  C   UNL     1      -8.757 -14.762  14.685  0.00  0.00    +0.000 C 
ATOM     31  H   UNL     1      -7.847 -14.271  14.329  0.00  0.00    +0.000 HD
ATOM     32  H   UNL     1      -9.617 -14.217  14.278  0.00  0.00    +0.000 HD
ATOM     33  H   UNL     1      -8.735 -15.792  14.314  0.00  0.00    +0.000 HD
ENDBRANCH  29  30
ENDBRANCH   1  29
TORSDOF 4
ENDMDL
MODEL 2
REMARK VINA RESULT:   -10.415      0.113      1.973
REMARK INTER + INTRA:         -12.188
REMARK INTER:                 -12.215
REMARK INTRA:                   0.027
REMARK UNBOUND:                 0.054
REMARK  Name = 
REMARK  4 active torsions:
REMARK  status: ('A' for Active; 'I' for Inactive)
REMARK    1  A    between atoms: C_1  and  O_2
REMARK    2  A    between atoms: O_2  and  C_3
REMARK    3  A    between atoms: C_12  and  C_13
REMARK    4  A    between atoms: C_17  and  O_18
REMARK                            x       y       z     vdW  Elec       q    Type
REMARK                         _______ _______ _______ _____ _____    ______ ____
ROOT
ATOM      1  C   UNL     1      -8.789 -13.512  16.641  0.00  0.00    +0.000 A 
ATOM      2  C   UNL     1      -8.706 -13.249  18.023  0.00  0.00    +0.000 A 
ATOM      3  C   UNL     1      -8.690 -11.938  18.505  0.00  0.00    +0.000 A 
ATOM      4  C   UNL     1      -8.749 -10.914  17.579  0.00  0.00    +0.000 A 
ATOM      5  C   UNL     1      -8.813 -11.165  16.209  0.00  0.00    +0.000 A 
ATOM      6  C   UNL     1      -8.822 -12.459  15.715  0.00  0.00    +0.000 A 
ATOM      7  C   UNL     1      -8.876  -9.893  15.473  0.00  0.00    +0.000 C 
ATOM      8  O   UNL     1      -8.938  -9.754  14.270  0.00  0.00    +0.000 OA
ATOM      9  C   UNL     1      -8.852  -8.831  16.514  0.00  0.00    +0.000 C 
ATOM     10  C   UNL     1      -8.915  -7.520  16.238  0.00  0.00    +0.000 C 
ATOM     11  C   UNL     1      -8.760  -9.477  17.850  0.00  0.00    +0.000 C 
ATOM     12  O   UNL     1      -8.702  -8.967  18.949  0.00  0.00    +0.000 OA
ATOM     13  H   UNL     1      -8.638 -14.053  18.750  0.00  0.00    +0.000 HD
ATOM     14  H   UNL     1      -8.630 -11.729  19.569  0.00  0.00    +0.000 HD
ATOM     15  H   UNL     1      -8.869 -12.651  14.649  0.00  0.00    +0.000 HD
ATOM     16  H   UNL     1      -8.988  -7.181  15.206  0.00  0.00    +0.000 HD
ENDROOT
BRANCH  10  17
ATOM     17  C   UNL     1      -8.907  -6.463  17.253  0.00  0.00    +0.000 A 
ATOM     18  C   UNL     1      -7.779  -6.265  18.057  0.00  0.00    +0.000 A 
ATOM     19  C   UNL     1      -7.788  -5.273  19.041  0.00  0.00    +0.000 A 
ATOM     20 BR   UNL     1      -6.245  -5.040  20.120  0.00  0.00    +0.000 Br
ATOM     21  C   UNL     1      -8.916  -4.467  19.227  0.00  0.00    +0.000 A 
ATOM     22  C   UNL     1     -10.042  -4.666  18.425  0.00  0.00    +0.000 A 
ATOM     23 BR   UNL     1     -11.607  -3.612  18.635  0.00  0.00    +0.000 Br
ATOM     24  C   UNL     1     -10.039  -5.660  17.441  0.00  0.00    +0.000 A 
ATOM     25  H   UNL     1      -6.899  -6.890  17.925  0.00  0.00    +0.000 HD
ATOM     26  H   UNL     1     -10.924  -5.815  16.828  0.00  0.00    +0.000 HD
BRANCH  21  27
ATOM     27  O   UNL     1      -8.930  -3.484  20.183  0.00  0.00    +0.000 OA
ATOM     28  H   UNL     1      -8.324  -3.752  20.897  0.00  0.00    +0.000 HD
ENDBRANCH  21  27
ENDBRANCH  10  17
BRANCH   1  29
ATOM     29  O   UNL     1      -8.810 -14.772  16.102  0.00  0.00    +0.000 OA
BRANCH  29  30
ATOM     30  C   UNL     1      -8.851 -14.824  14.676  0.00  0.00    +0.000 C 
ATOM     31  H   UNL     1      -8.202 -14.034  14.288  0.00  0.00    +0.000 HD
ATOM     32  H   UNL     1      -9.867 -14.640  14.311  0.00  0.00    +0.000 HD
ATOM     33  H   UNL     1      -8.464 -15.776  14.295  0.00  0.00    +0.000 HD
ENDBRANCH  29  30
ENDBRANCH   1  29
TORSDOF 4
ENDMDL
MODEL 3
REMARK VINA RESULT:    -9.466      1.376      2.312
REMARK INTER + INTRA:         -11.073
REMARK INTER:                 -11.569
REMARK INTRA:                   0.496
REMARK UNBOUND:                 0.054
REMARK  Name = 
REMARK  4 active torsions:
REMARK  status: ('A' for Active; 'I' for Inactive)
REMARK    1  A    between atoms: C_1  and  O_2
REMARK    2  A    between atoms: O_2  and  C_3
REMARK    3  A    between atoms: C_12  and  C_13
REMARK    4  A    between atoms: C_17  and  O_18
REMARK                            x       y       z     vdW  Elec       q    Type
REMARK                         _______ _______ _______ _____ _____    ______ ____
ROOT
ATOM      1  C   UNL     1      -8.588 -12.952  15.176  0.00  0.00    +0.000 A 
ATOM      2  C   UNL     1      -8.690 -11.845  14.309  0.00  0.00    +0.000 A 
ATOM      3  C   UNL     1      -8.798 -10.546  14.812  0.00  0.00    +0.000 A 
ATOM      4  C   UNL     1      -8.813 -10.390  16.184  0.00  0.00    +0.000 A 
ATOM      5  C   UNL     1      -8.731 -11.480  17.049  0.00  0.00    +0.000 A 
ATOM      6  C   UNL     1      -8.630 -12.774  16.566  0.00  0.00    +0.000 A 
ATOM      7  C   UNL     1      -8.758 -11.012  18.444  0.00  0.00    +0.000 C 
ATOM      8  O   UNL     1      -8.706 -11.701  19.441  0.00  0.00    +0.000 OA
ATOM      9  C   UNL     1      -8.857  -9.531  18.362  0.00  0.00    +0.000 C 
ATOM     10  C   UNL     1      -8.888  -8.729  19.437  0.00  0.00    +0.000 C 
ATOM     11  C   UNL     1      -8.903  -9.134  16.930  0.00  0.00    +0.000 C 
ATOM     12  O   UNL     1      -8.998  -8.029  16.440  0.00  0.00    +0.000 OA
ATOM     13  H   UNL     1      -8.700 -11.969  13.230  0.00  0.00    +0.000 HD
ATOM     14  H   UNL     1      -8.873  -9.689  14.149  0.00  0.00    +0.000 HD
ATOM     15  H   UNL     1      -8.569 -13.621  17.242  0.00  0.00    +0.000 HD
ATOM     16  H   UNL     1      -8.839  -9.154  20.438  0.00  0.00    +0.000 HD
ENDROOT
BRANCH  10  17
ATOM     17  C   UNL     1      -8.971  -7.267  19.373  0.00  0.00    +0.000 A 
ATOM     18  C   UNL     1      -9.972  -6.650  18.615  0.00  0.00    +0.000 A 
ATOM     19  C   UNL     1     -10.029  -5.256  18.537  0.00  0.00    +0.000 A 
ATOM     20 BR   UNL     1     -11.393  -4.454  17.491  0.00  0.00    +0.000 Br
ATOM     21  C   UNL     1      -9.096  -4.467  19.217  0.00  0.00    +0.000 A 
ATOM     22  C   UNL     1      -8.096  -5.084  19.973  0.00  0.00    +0.000 A 
ATOM     23 BR   UNL     1      -6.795  -4.070  20.911  0.00  0.00    +0.000 Br
ATOM     24  C   UNL     1      -8.033  -6.480  20.052  0.00  0.00    +0.000 A 
ATOM     25  H   UNL     1     -10.699  -7.254  18.077  0.00  0.00    +0.000 HD
ATOM     26  H   UNL     1      -7.245  -6.952  20.633  0.00  0.00    +0.000 HD
BRANCH  21  27
ATOM     27  O   UNL     1      -9.150  -3.099  19.155  0.00  0.00    +0.000 OA
ATOM     28  H   UNL     1     -10.074  -2.829  19.306  0.00  0.00    +0.000 HD
ENDBRANCH  21  27
ENDBRANCH  10  17
BRANCH   1  29
ATOM     29  O   UNL     1      -8.477 -14.249  14.749  0.00  0.00    +0.000 OA
BRANCH  29  30
ATOM     30  C   UNL     1      -8.869 -15.239  15.700  0.00  0.00    +0.000 C 
ATOM     31  H   UNL     1      -8.254 -16.128  15.540  0.00  0.00    +0.000 HD
ATOM     32  H   UNL     1      -9.918 -15.520  15.557  0.00  0.00    +0.000 HD
ATOM     33  H   UNL     1      -8.691 -14.905  16.728  0.00  0.00    +0.000 HD
ENDBRANCH  29  30
ENDBRANCH   1  29
TORSDOF 4
ENDMDL
MODEL 4
REMARK VINA RESULT:    -9.430      1.364      2.985
REMARK INTER + INTRA:         -11.030
REMARK INTER:                 -11.505
REMARK INTRA:                   0.474
REMARK UNBOUND:                 0.054
REMARK  Name = 
REMARK  4 active torsions:
REMARK  status: ('A' for Active; 'I' for Inactive)
REMARK    1  A    between atoms: C_1  and  O_2
REMARK    2  A    between atoms: O_2  and  C_3
REMARK    3  A    between atoms: C_12  and  C_13
REMARK    4  A    between atoms: C_17  and  O_18
REMARK                            x       y       z     vdW  Elec       q    Type
REMARK                         _______ _______ _______ _____ _____    ______ ____
ROOT
ATOM      1  C   UNL     1      -8.731 -12.596  15.128  0.00  0.00    +0.000 A 
ATOM      2  C   UNL     1      -8.827 -11.472  14.283  0.00  0.00    +0.000 A 
ATOM      3  C   UNL     1      -8.887 -10.180  14.809  0.00  0.00    +0.000 A 
ATOM      4  C   UNL     1      -8.860 -10.046  16.184  0.00  0.00    +0.000 A 
ATOM      5  C   UNL     1      -8.783 -11.152  17.028  0.00  0.00    +0.000 A 
ATOM      6  C   UNL     1      -8.730 -12.440  16.522  0.00  0.00    +0.000 A 
ATOM      7  C   UNL     1      -8.759 -10.707  18.430  0.00  0.00    +0.000 C 
ATOM      8  O   UNL     1      -8.698 -11.413  19.414  0.00  0.00    +0.000 OA
ATOM      9  C   UNL     1      -8.821  -9.222  18.375  0.00  0.00    +0.000 C 
ATOM     10  C   UNL     1      -8.801  -8.438  19.463  0.00  0.00    +0.000 C 
ATOM     11  C   UNL     1      -8.896  -8.801  16.952  0.00  0.00    +0.000 C 
ATOM     12  O   UNL     1      -8.975  -7.686  16.481  0.00  0.00    +0.000 OA
ATOM     13  H   UNL     1      -8.871 -11.578  13.203  0.00  0.00    +0.000 HD
ATOM     14  H   UNL     1      -8.958  -9.310  14.162  0.00  0.00    +0.000 HD
ATOM     15  H   UNL     1      -8.673 -13.300  17.182  0.00  0.00    +0.000 HD
ATOM     16  H   UNL     1      -8.736  -8.881  20.455  0.00  0.00    +0.000 HD
ENDROOT
BRANCH  10  17
ATOM     17  C   UNL     1      -8.847  -6.974  19.425  0.00  0.00    +0.000 A 
ATOM     18  C   UNL     1      -7.892  -6.220  20.117  0.00  0.00    +0.000 A 
ATOM     19  C   UNL     1      -7.957  -4.824  20.099  0.00  0.00    +0.000 A 
ATOM     20 BR   UNL     1      -6.653  -3.836  21.058  0.00  0.00    +0.000 Br
ATOM     21  C   UNL     1      -8.966  -4.170  19.386  0.00  0.00    +0.000 A 
ATOM     22  C   UNL     1      -9.919  -4.922  18.696  0.00  0.00    +0.000 A 
ATOM     23 BR   UNL     1     -11.319  -4.093  17.719  0.00  0.00    +0.000 Br
ATOM     24  C   UNL     1      -9.861  -6.320  18.714  0.00  0.00    +0.000 A 
ATOM     25  H   UNL     1      -7.107  -6.720  20.680  0.00  0.00    +0.000 HD
ATOM     26  H   UNL     1     -10.613  -6.898  18.183  0.00  0.00    +0.000 HD
BRANCH  21  27
ATOM     27  O   UNL     1      -9.032  -2.800  19.353  0.00  0.00    +0.000 OA
ATOM     28  H   UNL     1      -9.954  -2.540  19.527  0.00  0.00    +0.000 HD
ENDBRANCH  21  27
ENDBRANCH  10  17
BRANCH   1  29
ATOM     29  O   UNL     1      -8.667 -13.889  14.679  0.00  0.00    +0.000 OA
BRANCH  29  30
ATOM     30  C   UNL     1      -8.700 -14.890  15.695  0.00  0.00    +0.000 C 
ATOM     31  H   UNL     1      -8.021 -15.696  15.402  0.00  0.00    +0.000 HD
ATOM     32  H   UNL     1      -9.707 -15.312  15.790  0.00  0.00    +0.000 HD
ATOM     33  H   UNL     1      -8.346 -14.503  16.656  0.00  0.00    +0.000 HD
ENDBRANCH  29  30
ENDBRANCH   1  29
TORSDOF 4
ENDMDL
MODEL 5
REMARK VINA RESULT:    -8.990      0.979      1.157
REMARK INTER + INTRA:         -10.513
REMARK INTER:                 -10.811
REMARK INTRA:                   0.299
REMARK UNBOUND:                 0.054
REMARK  Name = 
REMARK  4 active torsions:
REMARK  status: ('A' for Active; 'I' for Inactive)
REMARK    1  A    between atoms: C_1  and  O_2
REMARK    2  A    between atoms: O_2  and  C_3
REMARK    3  A    between atoms: C_12  and  C_13
REMARK    4  A    between atoms: C_17  and  O_18
REMARK                            x       y       z     vdW  Elec       q    Type
REMARK                         _______ _______ _______ _____ _____    ______ ____
ROOT
ATOM      1  C   UNL     1      -8.729 -12.526  17.029  0.00  0.00    +0.000 A 
ATOM      2  C   UNL     1      -8.494 -12.349  18.407  0.00  0.00    +0.000 A 
ATOM      3  C   UNL     1      -8.442 -11.071  18.968  0.00  0.00    +0.000 A 
ATOM      4  C   UNL     1      -8.617  -9.992  18.123  0.00  0.00    +0.000 A 
ATOM      5  C   UNL     1      -8.831 -10.157  16.756  0.00  0.00    +0.000 A 
ATOM      6  C   UNL     1      -8.879 -11.417  16.183  0.00  0.00    +0.000 A 
ATOM      7  C   UNL     1      -8.993  -8.843  16.116  0.00  0.00    +0.000 C 
ATOM      8  O   UNL     1      -9.192  -8.630  14.938  0.00  0.00    +0.000 OA
ATOM      9  C   UNL     1      -8.866  -7.849  17.214  0.00  0.00    +0.000 C 
ATOM     10  C   UNL     1      -8.976  -6.525  17.033  0.00  0.00    +0.000 C 
ATOM     11  C   UNL     1      -8.617  -8.575  18.487  0.00  0.00    +0.000 C 
ATOM     12  O   UNL     1      -8.442  -8.135  19.603  0.00  0.00    +0.000 OA
ATOM     13  H   UNL     1      -8.335 -13.195  19.068  0.00  0.00    +0.000 HD
ATOM     14  H   UNL     1      -8.265 -10.929  20.031  0.00  0.00    +0.000 HD
ATOM     15  H   UNL     1      -9.043 -11.543  15.118  0.00  0.00    +0.000 HD
ATOM     16  H   UNL     1      -9.169  -6.123  16.040  0.00  0.00    +0.000 HD
ENDROOT
BRANCH  10  17
ATOM     17  C   UNL     1      -8.869  -5.533  18.107  0.00  0.00    +0.000 A 
ATOM     18  C   UNL     1      -9.910  -4.627  18.337  0.00  0.00    +0.000 A 
ATOM     19  C   UNL     1      -9.789  -3.667  19.346  0.00  0.00    +0.000 A 
ATOM     20 BR   UNL     1     -11.216  -2.448  19.623  0.00  0.00    +0.000 Br
ATOM     21  C   UNL     1      -8.637  -3.607  20.136  0.00  0.00    +0.000 A 
ATOM     22  C   UNL     1      -7.598  -4.511  19.905  0.00  0.00    +0.000 A 
ATOM     23 BR   UNL     1      -6.005  -4.475  20.935  0.00  0.00    +0.000 Br
ATOM     24  C   UNL     1      -7.712  -5.472  18.894  0.00  0.00    +0.000 A 
ATOM     25  H   UNL     1     -10.808  -4.661  17.725  0.00  0.00    +0.000 HD
ATOM     26  H   UNL     1      -6.894  -6.165  18.714  0.00  0.00    +0.000 HD
BRANCH  21  27
ATOM     27  O   UNL     1      -8.515  -2.676  21.135  0.00  0.00    +0.000 OA
ATOM     28  H   UNL     1      -9.247  -2.813  21.763  0.00  0.00    +0.000 HD
ENDBRANCH  21  27
ENDBRANCH  10  17
BRANCH   1  29
ATOM     29  O   UNL     1      -8.794 -13.750  16.415  0.00  0.00    +0.000 OA
BRANCH  29  30
ATOM     30  C   UNL     1      -8.721 -13.721  14.990  0.00  0.00    +0.000 C 
ATOM     31  H   UNL     1      -7.778 -14.183  14.687  0.00  0.00    +0.000 HD
ATOM     32  H   UNL     1      -8.727 -12.688  14.622  0.00  0.00    +0.000 HD
ATOM     33  H   UNL     1      -9.527 -14.304  14.532  0.00  0.00    +0.000 HD
ENDBRANCH  29  30
ENDBRANCH   1  29
TORSDOF 4
ENDMDL
MODEL 6
REMARK VINA RESULT:    -8.745      1.438      2.919
REMARK INTER + INTRA:         -10.225
REMARK INTER:                 -11.343
REMARK INTRA:                   1.118
REMARK UNBOUND:                 0.054
REMARK  Name = 
REMARK  4 active torsions:
REMARK  status: ('A' for Active; 'I' for Inactive)
REMARK    1  A    between atoms: C_1  and  O_2
REMARK    2  A    between atoms: O_2  and  C_3
REMARK    3  A    between atoms: C_12  and  C_13
REMARK    4  A    between atoms: C_17  and  O_18
REMARK                            x       y       z     vdW  Elec       q    Type
REMARK                         _______ _______ _______ _____ _____    ______ ____
ROOT
ATOM      1  C   UNL     1      -8.563 -12.893  16.078  0.00  0.00    +0.000 A 
ATOM      2  C   UNL     1      -8.845 -11.966  15.055  0.00  0.00    +0.000 A 
ATOM      3  C   UNL     1      -9.046 -10.614  15.345  0.00  0.00    +0.000 A 
ATOM      4  C   UNL     1      -8.968 -10.225  16.668  0.00  0.00    +0.000 A 
ATOM      5  C   UNL     1      -8.708 -11.138  17.689  0.00  0.00    +0.000 A 
ATOM      6  C   UNL     1      -8.514 -12.482  17.418  0.00  0.00    +0.000 A 
ATOM      7  C   UNL     1      -8.673 -10.440  18.984  0.00  0.00    +0.000 C 
ATOM      8  O   UNL     1      -8.473 -10.940  20.071  0.00  0.00    +0.000 OA
ATOM      9  C   UNL     1      -8.930  -9.010  18.670  0.00  0.00    +0.000 C 
ATOM     10  C   UNL     1      -8.958  -8.041  19.596  0.00  0.00    +0.000 C 
ATOM     11  C   UNL     1      -9.128  -8.872  17.203  0.00  0.00    +0.000 C 
ATOM     12  O   UNL     1      -9.373  -7.881  16.548  0.00  0.00    +0.000 OA
ATOM     13  H   UNL     1      -8.927 -12.275  14.017  0.00  0.00    +0.000 HD
ATOM     14  H   UNL     1      -9.260  -9.895  14.560  0.00  0.00    +0.000 HD
ATOM     15  H   UNL     1      -8.314 -13.191  18.215  0.00  0.00    +0.000 HD
ATOM     16  H   UNL     1      -8.787  -8.280  20.644  0.00  0.00    +0.000 HD
ENDROOT
BRANCH  10  17
ATOM     17  C   UNL     1      -9.194  -6.624  19.301  0.00  0.00    +0.000 A 
ATOM     18  C   UNL     1      -8.524  -5.632  20.024  0.00  0.00    +0.000 A 
ATOM     19  C   UNL     1      -8.773  -4.283  19.756  0.00  0.00    +0.000 A 
ATOM     20 BR   UNL     1      -7.854  -2.965  20.763  0.00  0.00    +0.000 Br
ATOM     21  C   UNL     1      -9.686  -3.914  18.763  0.00  0.00    +0.000 A 
ATOM     22  C   UNL     1     -10.356  -4.905  18.042  0.00  0.00    +0.000 A 
ATOM     23 BR   UNL     1     -11.613  -4.468  16.689  0.00  0.00    +0.000 Br
ATOM     24  C   UNL     1     -10.111  -6.256  18.309  0.00  0.00    +0.000 A 
ATOM     25  H   UNL     1      -7.817  -5.908  20.803  0.00  0.00    +0.000 HD
ATOM     26  H   UNL     1     -10.645  -7.021  17.751  0.00  0.00    +0.000 HD
BRANCH  21  27
ATOM     27  O   UNL     1      -9.929  -2.593  18.485  0.00  0.00    +0.000 OA
ATOM     28  H   UNL     1      -9.312  -2.316  17.784  0.00  0.00    +0.000 HD
ENDBRANCH  21  27
ENDBRANCH  10  17
BRANCH   1  29
ATOM     29  O   UNL     1      -8.354 -14.230  15.863  0.00  0.00    +0.000 OA
BRANCH  29  30
ATOM     30  C   UNL     1      -8.892 -14.742  14.644  0.00  0.00    +0.000 C 
ATOM     31  H   UNL     1      -8.682 -15.815  14.603  0.00  0.00    +0.000 HD
ATOM     32  H   UNL     1      -8.412 -14.269  13.780  0.00  0.00    +0.000 HD
ATOM     33  H   UNL     1      -9.979 -14.625  14.601  0.00  0.00    +0.000 HD
ENDBRANCH  29  30
ENDBRANCH   1  29
TORSDOF 4
ENDMDL
MODEL 7
REMARK VINA RESULT:    -8.560      1.560      2.905
REMARK INTER + INTRA:         -10.007
REMARK INTER:                 -10.338
REMARK INTRA:                   0.331
REMARK UNBOUND:                 0.054
REMARK  Name = 
REMARK  4 active torsions:
REMARK  status: ('A' for Active; 'I' for Inactive)
REMARK    1  A    between atoms: C_1  and  O_2
REMARK    2  A    between atoms: O_2  and  C_3
REMARK    3  A    between atoms: C_12  and  C_13
REMARK    4  A    between atoms: C_17  and  O_18
REMARK                            x       y       z     vdW  Elec       q    Type
REMARK                         _______ _______ _______ _____ _____    ______ ____
ROOT
ATOM      1  C   UNL     1      -8.816 -11.697  17.444  0.00  0.00    +0.000 A 
ATOM      2  C   UNL     1      -8.530 -11.577  18.819  0.00  0.00    +0.000 A 
ATOM      3  C   UNL     1      -8.427 -10.322  19.424  0.00  0.00    +0.000 A 
ATOM      4  C   UNL     1      -8.605  -9.209  18.626  0.00  0.00    +0.000 A 
ATOM      5  C   UNL     1      -8.871  -9.318  17.262  0.00  0.00    +0.000 A 
ATOM      6  C   UNL     1      -8.968 -10.554  16.645  0.00  0.00    +0.000 A 
ATOM      7  C   UNL     1      -9.022  -7.977  16.676  0.00  0.00    +0.000 C 
ATOM      8  O   UNL     1      -9.256  -7.716  15.515  0.00  0.00    +0.000 OA
ATOM      9  C   UNL     1      -8.834  -7.028  17.805  0.00  0.00    +0.000 C 
ATOM     10  C   UNL     1      -8.918  -5.696  17.676  0.00  0.00    +0.000 C 
ATOM     11  C   UNL     1      -8.558  -7.807  19.041  0.00  0.00    +0.000 C 
ATOM     12  O   UNL     1      -8.335  -7.413  20.166  0.00  0.00    +0.000 OA
ATOM     13  H   UNL     1      -8.369 -12.451  19.443  0.00  0.00    +0.000 HD
ATOM     14  H   UNL     1      -8.211 -10.224  20.484  0.00  0.00    +0.000 HD
ATOM     15  H   UNL     1      -9.172 -10.636  15.583  0.00  0.00    +0.000 HD
ATOM     16  H   UNL     1      -9.135  -5.253  16.706  0.00  0.00    +0.000 HD
ENDROOT
BRANCH  10  17
ATOM     17  C   UNL     1      -8.749  -4.748  18.782  0.00  0.00    +0.000 A 
ATOM     18  C   UNL     1      -7.578  -4.759  19.547  0.00  0.00    +0.000 A 
ATOM     19  C   UNL     1      -7.435  -3.870  20.617  0.00  0.00    +0.000 A 
ATOM     20 BR   UNL     1      -5.837  -3.920  21.638  0.00  0.00    +0.000 Br
ATOM     21  C   UNL     1      -8.452  -2.963  20.927  0.00  0.00    +0.000 A 
ATOM     22  C   UNL     1      -9.621  -2.954  20.164  0.00  0.00    +0.000 A 
ATOM     23 BR   UNL     1     -11.042  -1.753  20.541  0.00  0.00    +0.000 Br
ATOM     24  C   UNL     1      -9.771  -3.843  19.094  0.00  0.00    +0.000 A 
ATOM     25  H   UNL     1      -6.783  -5.465  19.318  0.00  0.00    +0.000 HD
ATOM     26  H   UNL     1     -10.689  -3.837  18.512  0.00  0.00    +0.000 HD
BRANCH  21  27
ATOM     27  O   UNL     1      -8.316  -2.080  21.968  0.00  0.00    +0.000 OA
ATOM     28  H   UNL     1      -7.780  -2.511  22.658  0.00  0.00    +0.000 HD
ENDBRANCH  21  27
ENDBRANCH  10  17
BRANCH   1  29
ATOM     29  O   UNL     1      -8.932 -12.895  16.788  0.00  0.00    +0.000 OA
BRANCH  29  30
ATOM     30  C   UNL     1      -8.512 -12.886  15.425  0.00  0.00    +0.000 C 
ATOM     31  H   UNL     1      -9.356 -13.202  14.806  0.00  0.00    +0.000 HD
ATOM     32  H   UNL     1      -7.691 -13.596  15.267  0.00  0.00    +0.000 HD
ATOM     33  H   UNL     1      -8.229 -11.881  15.095  0.00  0.00    +0.000 HD
ENDBRANCH  29  30
ENDBRANCH   1  29
TORSDOF 4
ENDMDL
MODEL 8
REMARK VINA RESULT:    -8.459      1.719      2.635
REMARK INTER + INTRA:          -9.889
REMARK INTER:                 -11.572
REMARK INTRA:                   1.683
REMARK UNBOUND:                 0.054
REMARK  Name = 
REMARK  4 active torsions:
REMARK  status: ('A' for Active; 'I' for Inactive)
REMARK    1  A    between atoms: C_1  and  O_2
REMARK    2  A    between atoms: O_2  and  C_3
REMARK    3  A    between atoms: C_12  and  C_13
REMARK    4  A    between atoms: C_17  and  O_18
REMARK                            x       y       z     vdW  Elec       q    Type
REMARK                         _______ _______ _______ _____ _____    ______ ____
ROOT
ATOM      1  C   UNL     1      -8.549 -12.622  16.075  0.00  0.00    +0.000 A 
ATOM      2  C   UNL     1      -8.889 -11.850  14.947  0.00  0.00    +0.000 A 
ATOM      3  C   UNL     1      -9.198 -10.493  15.071  0.00  0.00    +0.000 A 
ATOM      4  C   UNL     1      -9.168  -9.943  16.338  0.00  0.00    +0.000 A 
ATOM      5  C   UNL     1      -8.850 -10.703  17.462  0.00  0.00    +0.000 A 
ATOM      6  C   UNL     1      -8.549 -12.051  17.356  0.00  0.00    +0.000 A 
ATOM      7  C   UNL     1      -8.887  -9.854  18.663  0.00  0.00    +0.000 C 
ATOM      8  O   UNL     1      -8.662 -10.202  19.803  0.00  0.00    +0.000 OA
ATOM      9  C   UNL     1      -9.249  -8.497  18.177  0.00  0.00    +0.000 C 
ATOM     10  C   UNL     1      -9.364  -7.428  18.980  0.00  0.00    +0.000 C 
ATOM     11  C   UNL     1      -9.439  -8.553  16.704  0.00  0.00    +0.000 C 
ATOM     12  O   UNL     1      -9.752  -7.670  15.934  0.00  0.00    +0.000 OA
ATOM     13  H   UNL     1      -8.934 -12.287  13.954  0.00  0.00    +0.000 HD
ATOM     14  H   UNL     1      -9.457  -9.892  14.204  0.00  0.00    +0.000 HD
ATOM     15  H   UNL     1      -8.305 -12.641  18.233  0.00  0.00    +0.000 HD
ATOM     16  H   UNL     1      -9.189  -7.526  20.050  0.00  0.00    +0.000 HD
ENDROOT
BRANCH  10  17
ATOM     17  C   UNL     1      -9.706  -6.081  18.515  0.00  0.00    +0.000 A 
ATOM     18  C   UNL     1     -10.393  -5.904  17.309  0.00  0.00    +0.000 A 
ATOM     19  C   UNL     1     -10.692  -4.616  16.858  0.00  0.00    +0.000 A 
ATOM     20 BR   UNL     1     -11.615  -4.414  15.213  0.00  0.00    +0.000 Br
ATOM     21  C   UNL     1     -10.316  -3.496  17.606  0.00  0.00    +0.000 A 
ATOM     22  C   UNL     1      -9.629  -3.673  18.809  0.00  0.00    +0.000 A 
ATOM     23 BR   UNL     1      -9.083  -2.194  19.866  0.00  0.00    +0.000 Br
ATOM     24  C   UNL     1      -9.325  -4.961  19.263  0.00  0.00    +0.000 A 
ATOM     25  H   UNL     1     -10.685  -6.768  16.716  0.00  0.00    +0.000 HD
ATOM     26  H   UNL     1      -8.780  -5.089  20.196  0.00  0.00    +0.000 HD
BRANCH  21  27
ATOM     27  O   UNL     1     -10.615  -2.228  17.177  0.00  0.00    +0.000 OA
ATOM     28  H   UNL     1     -11.584  -2.138  17.162  0.00  0.00    +0.000 HD
ENDBRANCH  21  27
ENDBRANCH  10  17
BRANCH   1  29
ATOM     29  O   UNL     1      -8.235 -13.955  16.024  0.00  0.00    +0.000 OA
BRANCH  29  30
ATOM     30  C   UNL     1      -8.826 -14.680  14.946  0.00  0.00    +0.000 C 
ATOM     31  H   UNL     1      -9.278 -13.960  14.258  0.00  0.00    +0.000 HD
ATOM     32  H   UNL     1      -9.619 -15.342  15.314  0.00  0.00    +0.000 HD
ATOM     33  H   UNL     1      -8.078 -15.243  14.379  0.00  0.00    +0.000 HD
ENDBRANCH  29  30
ENDBRANCH   1  29
TORSDOF 4
ENDMDL
MODEL 9
REMARK VINA RESULT:    -8.082      3.587      7.753
REMARK INTER + INTRA:          -9.446
REMARK INTER:                 -10.309
REMARK INTRA:                   0.863
REMARK UNBOUND:                 0.054
REMARK  Name = 
REMARK  4 active torsions:
REMARK  status: ('A' for Active; 'I' for Inactive)
REMARK    1  A    between atoms: C_1  and  O_2
REMARK    2  A    between atoms: O_2  and  C_3
REMARK    3  A    between atoms: C_12  and  C_13
REMARK    4  A    between atoms: C_17  and  O_18
REMARK                            x       y       z     vdW  Elec       q    Type
REMARK                         _______ _______ _______ _____ _____    ______ ____
ROOT
ATOM      1  C   UNL     1     -11.932  -2.174  15.766  0.00  0.00    +0.000 A 
ATOM      2  C   UNL     1     -12.474  -2.756  16.930  0.00  0.00    +0.000 A 
ATOM      3  C   UNL     1     -12.097  -4.039  17.334  0.00  0.00    +0.000 A 
ATOM      4  C   UNL     1     -11.184  -4.716  16.549  0.00  0.00    +0.000 A 
ATOM      5  C   UNL     1     -10.656  -4.156  15.387  0.00  0.00    +0.000 A 
ATOM      6  C   UNL     1     -11.025  -2.888  14.969  0.00  0.00    +0.000 A 
ATOM      7  C   UNL     1      -9.708  -5.095  14.768  0.00  0.00    +0.000 C 
ATOM      8  O   UNL     1      -9.076  -4.920  13.748  0.00  0.00    +0.000 OA
ATOM      9  C   UNL     1      -9.693  -6.286  15.658  0.00  0.00    +0.000 C 
ATOM     10  C   UNL     1      -8.927  -7.365  15.440  0.00  0.00    +0.000 C 
ATOM     11  C   UNL     1     -10.637  -6.052  16.782  0.00  0.00    +0.000 C 
ATOM     12  O   UNL     1     -10.925  -6.779  17.710  0.00  0.00    +0.000 OA
ATOM     13  H   UNL     1     -13.208  -2.233  17.536  0.00  0.00    +0.000 HD
ATOM     14  H   UNL     1     -12.509  -4.491  18.232  0.00  0.00    +0.000 HD
ATOM     15  H   UNL     1     -10.615  -2.455  14.062  0.00  0.00    +0.000 HD
ATOM     16  H   UNL     1      -8.269  -7.403  14.574  0.00  0.00    +0.000 HD
ENDROOT
BRANCH  10  17
ATOM     17  C   UNL     1      -8.890  -8.540  16.315  0.00  0.00    +0.000 A 
ATOM     18  C   UNL     1      -8.903  -9.828  15.768  0.00  0.00    +0.000 A 
ATOM     19  C   UNL     1      -8.895 -10.944  16.609  0.00  0.00    +0.000 A 
ATOM     20 BR   UNL     1      -8.924 -12.675  15.832  0.00  0.00    +0.000 Br
ATOM     21  C   UNL     1      -8.866 -10.787  17.998  0.00  0.00    +0.000 A 
ATOM     22  C   UNL     1      -8.854  -9.501  18.544  0.00  0.00    +0.000 A 
ATOM     23 BR   UNL     1      -8.825  -9.222  20.420  0.00  0.00    +0.000 Br
ATOM     24  C   UNL     1      -8.866  -8.381  17.706  0.00  0.00    +0.000 A 
ATOM     25  H   UNL     1      -8.932  -9.962  14.689  0.00  0.00    +0.000 HD
ATOM     26  H   UNL     1      -8.867  -7.384  18.139  0.00  0.00    +0.000 HD
BRANCH  21  27
ATOM     27  O   UNL     1      -8.846 -11.876  18.831  0.00  0.00    +0.000 OA
ATOM     28  H   UNL     1      -8.521 -12.638  18.319  0.00  0.00    +0.000 HD
ENDBRANCH  21  27
ENDBRANCH  10  17
BRANCH   1  29
ATOM     29  O   UNL     1     -12.257  -0.922  15.314  0.00  0.00    +0.000 OA
BRANCH  29  30
ATOM     30  C   UNL     1     -13.545  -0.448  15.705  0.00  0.00    +0.000 C 
ATOM     31  H   UNL     1     -14.299  -1.098  15.253  0.00  0.00    +0.000 HD
ATOM     32  H   UNL     1     -13.710   0.571  15.338  0.00  0.00    +0.000 HD
ATOM     33  H   UNL     1     -13.682  -0.500  16.790  0.00  0.00    +0.000 HD
ENDBRANCH  29  30
ENDBRANCH   1  29
TORSDOF 4
ENDMDL
