REMARK  Name = 
REMARK  9 active torsions:
REMARK  status: ('A' for Active; 'I' for Inactive)
REMARK    1  A    between atoms: C_1  and  C_2
REMARK    2  A    between atoms: C_8  and  C_9
REMARK    3  A    between atoms: C_13  and  O_14
REMARK    4  A    between atoms: O_14  and  C_15
REMARK    5  A    between atoms: C_15  and  C_16
REMARK    6  A    between atoms: C_16  and  N_17
REMARK    7  A    between atoms: C_16  and  C_18
REMARK    8  A    between atoms: C_18  and  C_19
REMARK    9  A    between atoms: C_23  and  C_24
REMARK                            x       y       z     vdW  Elec       q    Type
REMARK                         _______ _______ _______ _____ _____    ______ ____
ROOT
ATOM      1  O   UNL     1       0.322  -0.594   0.570  0.00  0.00    +0.000 OA
ENDROOT
BRANCH   1   6
ATOM      2  C   UNL     1       1.964   1.897   2.632  0.00  0.00    +0.000 A 
ATOM      3  C   UNL     1       2.491   1.064   3.617  0.00  0.00    +0.000 A 
ATOM      4  N   UNL     1       2.329  -0.285   3.661  0.00  0.00    +0.000 NA
ATOM      5  C   UNL     1       1.610  -0.845   2.660  0.00  0.00    +0.000 A 
ATOM      6  C   UNL     1       1.058  -0.125   1.614  0.00  0.00    +0.000 A 
ATOM      7  C   UNL     1       1.254   1.253   1.607  0.00  0.00    +0.000 A 
ATOM      8  H   UNL     1       3.068   1.475   4.444  0.00  0.00    +0.000 HD
ATOM      9  H   UNL     1       1.501  -1.920   2.749  0.00  0.00    +0.000 HD
ATOM     10  H   UNL     1       0.841   1.822   0.778  0.00  0.00    +0.000 HD
BRANCH   2  17
ATOM     11  C   UNL     1       0.708   6.750   1.782  0.00  0.00    +0.000 A 
ATOM     12  N   UNL     1       1.388   7.858   2.096  0.00  0.00    +0.000 NA
ATOM     13  N   UNL     1       2.492   7.393   2.712  0.00  0.00    +0.000 N 
ATOM     14  C   UNL     1       2.544   6.029   2.805  0.00  0.00    +0.000 A 
ATOM     15  C   UNL     1       3.474   5.162   3.354  0.00  0.00    +0.000 A 
ATOM     16  N   UNL     1       3.240   3.828   3.282  0.00  0.00    +0.000 NA
ATOM     17  C   UNL     1       2.118   3.359   2.675  0.00  0.00    +0.000 A 
ATOM     18  C   UNL     1       1.151   4.202   2.128  0.00  0.00    +0.000 A 
ATOM     19  C   UNL     1       1.388   5.579   2.196  0.00  0.00    +0.000 A 
ATOM     20  H   UNL     1       3.171   8.065   3.045  0.00  0.00    +0.000 HD
ATOM     21  H   UNL     1       4.389   5.480   3.841  0.00  0.00    +0.000 HD
ATOM     22  H   UNL     1       0.246   3.828   1.670  0.00  0.00    +0.000 HD
BRANCH  11  23
ATOM     23  C   UNL     1      -0.597   6.825   1.074  0.00  0.00    +0.000 C 
ATOM     24  H   UNL     1      -0.892   7.857   0.872  0.00  0.00    +0.000 HD
ATOM     25  H   UNL     1      -1.382   6.358   1.679  0.00  0.00    +0.000 HD
ATOM     26  H   UNL     1      -0.544   6.292   0.118  0.00  0.00    +0.000 HD
ENDBRANCH  11  23
ENDBRANCH   2  17
ENDBRANCH   1   6
BRANCH   1  27
ATOM     27  C   UNL     1       0.067  -1.999   0.521  0.00  0.00    +0.000 C 
ATOM     28  H   UNL     1      -0.502  -2.305   1.407  0.00  0.00    +0.000 HD
ATOM     29  H   UNL     1       1.015  -2.552   0.482  0.00  0.00    +0.000 HD
BRANCH  27  30
ATOM     30  C   UNL     1      -0.761  -2.275  -0.757  0.00  0.00    +0.000 C 
ATOM     31  H   UNL     1      -1.667  -1.658  -0.724  0.00  0.00    +0.000 HD
BRANCH  30  32
ATOM     32  N   UNL     1      -0.001  -1.851  -1.951  0.00  0.00    +0.000 NA
ATOM     33  H   UNL     1       0.870  -2.375  -2.014  0.00  0.00    +0.000 HD
ATOM     34  H   UNL     1       0.279  -0.876  -1.812  0.00  0.00    +0.000 HD
ENDBRANCH  30  32
BRANCH  30  35
ATOM     35  C   UNL     1      -1.153  -3.761  -0.818  0.00  0.00    +0.000 C 
ATOM     36  H   UNL     1      -1.704  -4.027   0.095  0.00  0.00    +0.000 HD
ATOM     37  H   UNL     1      -0.252  -4.388  -0.800  0.00  0.00    +0.000 HD
BRANCH  35  38
ATOM     38  C   UNL     1      -2.001  -4.160  -2.005  0.00  0.00    +0.000 A 
ATOM     39  C   UNL     1      -3.396  -4.053  -1.965  0.00  0.00    +0.000 A 
ATOM     40  C   UNL     1      -4.171  -4.518  -3.029  0.00  0.00    +0.000 A 
ATOM     41  C   UNL     1      -3.561  -5.110  -4.136  0.00  0.00    +0.000 A 
ATOM     42  C   UNL     1      -2.166  -5.217  -4.202  0.00  0.00    +0.000 A 
ATOM     43  C   UNL     1      -1.395  -4.704  -3.146  0.00  0.00    +0.000 A 
ATOM     44  H   UNL     1      -3.892  -3.625  -1.097  0.00  0.00    +0.000 HD
ATOM     45  H   UNL     1      -5.255  -4.443  -2.984  0.00  0.00    +0.000 HD
ATOM     46  H   UNL     1      -4.182  -5.504  -4.939  0.00  0.00    +0.000 HD
ATOM     47  H   UNL     1      -0.309  -4.758  -3.205  0.00  0.00    +0.000 HD
BRANCH  42  48
ATOM     48  C   UNL     1      -1.483  -5.921  -5.348  0.00  0.00    +0.000 C 
ATOM     49  F   UNL     1      -2.349  -6.483  -6.238  0.00  0.00    +0.000 F 
ATOM     50  F   UNL     1      -0.677  -5.101  -6.076  0.00  0.00    +0.000 F 
ATOM     51  F   UNL     1      -0.685  -6.940  -4.918  0.00  0.00    +0.000 F 
ENDBRANCH  42  48
ENDBRANCH  35  38
ENDBRANCH  30  35
ENDBRANCH  27  30
ENDBRANCH   1  27
TORSDOF 9
