REMARK  Name = 
REMARK  8 active torsions:
REMARK  status: ('A' for Active; 'I' for Inactive)
REMARK    1  A    between atoms: C_2  and  C_3
REMARK    2  A    between atoms: C_6  and  O_7
REMARK    3  A    between atoms: O_7  and  C_8
REMARK    4  A    between atoms: C_8  and  C_9
REMARK    5  A    between atoms: C_9  and  N_10
REMARK    6  A    between atoms: C_9  and  C_11
REMARK    7  A    between atoms: C_11  and  C_12
REMARK    8  A    between atoms: C_22  and  C_23
REMARK                            x       y       z     vdW  Elec       q    Type
REMARK                         _______ _______ _______ _____ _____    ______ ____
ROOT
ATOM      1  C   UNL     1      -3.744  -1.471  -0.425  0.00  0.00    +0.000 A 
ATOM      2  N   UNL     1      -3.096  -2.673  -0.416  0.00  0.00    +0.000 NA
ATOM      3  C   UNL     1      -1.735  -2.642  -0.397  0.00  0.00    +0.000 A 
ATOM      4  C   UNL     1      -0.994  -1.478  -0.447  0.00  0.00    +0.000 A 
ATOM      5  C   UNL     1      -1.695  -0.270  -0.467  0.00  0.00    +0.000 A 
ATOM      6  C   UNL     1      -3.122  -0.226  -0.421  0.00  0.00    +0.000 A 
ATOM      7  H   UNL     1      -1.282  -3.626  -0.309  0.00  0.00    +0.000 HD
ATOM      8  H   UNL     1      -1.117   0.652  -0.476  0.00  0.00    +0.000 HD
ENDROOT
BRANCH   6   9
ATOM      9  C   UNL     1      -3.799   1.070  -0.160  0.00  0.00    +0.000 A 
ATOM     10  C   UNL     1      -3.287   1.912   0.843  0.00  0.00    +0.000 A 
ATOM     11  C   UNL     1      -4.039   2.958   1.370  0.00  0.00    +0.000 A 
ATOM     12  C   UNL     1      -5.300   3.246   0.846  0.00  0.00    +0.000 A 
ATOM     13  C   UNL     1      -6.135   4.199   1.433  0.00  0.00    +0.000 A 
ATOM     14  N   UNL     1      -7.275   4.653   0.875  0.00  0.00    +0.000 NA
ATOM     15  C   UNL     1      -7.611   4.108  -0.313  0.00  0.00    +0.000 A 
ATOM     16  C   UNL     1      -6.925   3.057  -0.910  0.00  0.00    +0.000 A 
ATOM     17  C   UNL     1      -5.749   2.580  -0.304  0.00  0.00    +0.000 A 
ATOM     18  C   UNL     1      -5.006   1.466  -0.777  0.00  0.00    +0.000 A 
ATOM     19  H   UNL     1      -2.312   1.719   1.285  0.00  0.00    +0.000 HD
ATOM     20  H   UNL     1      -3.628   3.545   2.185  0.00  0.00    +0.000 HD
ATOM     21  H   UNL     1      -5.903   4.621   2.407  0.00  0.00    +0.000 HD
ATOM     22  H   UNL     1      -8.478   4.562  -0.788  0.00  0.00    +0.000 HD
ATOM     23  H   UNL     1      -7.294   2.644  -1.842  0.00  0.00    +0.000 HD
ATOM     24  H   UNL     1      -5.410   0.881  -1.601  0.00  0.00    +0.000 HD
ENDBRANCH   6   9
BRANCH   1  26
ATOM     25  C   UNL     1      -6.353  -1.808  -0.221  0.00  0.00    +0.000 C 
ATOM     26  C   UNL     1      -5.166  -1.645  -0.323  0.00  0.00    +0.000 C 
ATOM     27  H   UNL     1      -7.407  -1.957  -0.139  0.00  0.00    +0.000 HD
ENDBRANCH   1  26
BRANCH   4  28
ATOM     28  O   UNL     1       0.366  -1.373  -0.416  0.00  0.00    +0.000 OA
BRANCH  28  29
ATOM     29  C   UNL     1       1.102  -2.545  -0.787  0.00  0.00    +0.000 C 
ATOM     30  H   UNL     1       0.633  -3.035  -1.649  0.00  0.00    +0.000 HD
ATOM     31  H   UNL     1       1.126  -3.251   0.053  0.00  0.00    +0.000 HD
BRANCH  29  32
ATOM     32  C   UNL     1       2.542  -2.136  -1.179  0.00  0.00    +0.000 C 
ATOM     33  H   UNL     1       3.041  -3.035  -1.559  0.00  0.00    +0.000 HD
BRANCH  32  34
ATOM     34  N   UNL     1       2.508  -1.149  -2.280  0.00  0.00    +0.000 NA
ATOM     35  H   UNL     1       2.060  -0.299  -1.932  0.00  0.00    +0.000 HD
ATOM     36  H   UNL     1       1.894  -1.489  -3.020  0.00  0.00    +0.000 HD
ENDBRANCH  32  34
BRANCH  32  37
ATOM     37  C   UNL     1       3.312  -1.607   0.059  0.00  0.00    +0.000 C 
ATOM     38  H   UNL     1       3.208  -2.342   0.868  0.00  0.00    +0.000 HD
ATOM     39  H   UNL     1       2.858  -0.676   0.419  0.00  0.00    +0.000 HD
BRANCH  37  40
ATOM     40  C   UNL     1       4.787  -1.412  -0.129  0.00  0.00    +0.000 A 
ATOM     41  C   UNL     1       5.635  -2.234  -0.851  0.00  0.00    +0.000 A 
ATOM     42  N   UNL     1       6.832  -1.580  -0.897  0.00  0.00    +0.000 N 
ATOM     43  C   UNL     1       6.952  -0.834   0.246  0.00  0.00    +0.000 A 
ATOM     44  C   UNL     1       8.070  -0.421   0.972  0.00  0.00    +0.000 A 
ATOM     45  C   UNL     1       7.834   0.437   2.047  0.00  0.00    +0.000 A 
ATOM     46  C   UNL     1       6.561   0.961   2.276  0.00  0.00    +0.000 A 
ATOM     47  C   UNL     1       5.454   0.530   1.528  0.00  0.00    +0.000 A 
ATOM     48  C   UNL     1       5.642  -0.484   0.570  0.00  0.00    +0.000 A 
ATOM     49  H   UNL     1       5.467  -3.138  -1.420  0.00  0.00    +0.000 HD
ATOM     50  H   UNL     1       7.383  -1.443  -1.732  0.00  0.00    +0.000 HD
ATOM     51  H   UNL     1       9.060  -0.816   0.769  0.00  0.00    +0.000 HD
ATOM     52  H   UNL     1       8.655   0.704   2.708  0.00  0.00    +0.000 HD
ATOM     53  H   UNL     1       6.415   1.675   3.082  0.00  0.00    +0.000 HD
ATOM     54  H   UNL     1       4.464   0.917   1.744  0.00  0.00    +0.000 HD
ENDBRANCH  37  40
ENDBRANCH  32  37
ENDBRANCH  29  32
ENDBRANCH  28  29
ENDBRANCH   4  28
TORSDOF 8
