MODEL 1
REMARK VINA RESULT:    -9.749      0.000      0.000
REMARK INTER + INTRA:         -12.141
REMARK INTER:                 -11.744
REMARK INTRA:                  -0.397
REMARK UNBOUND:                -0.397
REMARK  Name = 
REMARK  4 active torsions:
REMARK  status: ('A' for Active; 'I' for Inactive)
REMARK    1  A    between atoms: C_1  and  N_2
REMARK    2  A    between atoms: C_12  and  C_13
REMARK    3  A    between atoms: C_13  and  C_14
REMARK    4  A    between atoms: C_14  and  N_15
REMARK                            x       y       z     vdW  Elec       q    Type
REMARK                         _______ _______ _______ _____ _____    ______ ____
ROOT
ATOM      1  N   UNL     1     -13.290  -0.243  14.458  0.00  0.00    +0.000 N 
ATOM      2  C   UNL     1     -13.894   0.097  13.266  0.00  0.00    +0.000 A 
ATOM      3  C   UNL     1     -13.025  -0.308  12.287  0.00  0.00    +0.000 A 
ATOM      4  C   UNL     1     -12.484  -1.489  12.845  0.00  0.00    +0.000 A 
ATOM      5  C   UNL     1     -12.108  -2.721  12.289  0.00  0.00    +0.000 A 
ATOM      6  C   UNL     1     -11.790  -3.757  13.163  0.00  0.00    +0.000 A 
ATOM      7  C   UNL     1     -11.587  -3.487  14.526  0.00  0.00    +0.000 A 
ATOM      8  C   UNL     1     -11.218  -4.499  15.430  0.00  0.00    +0.000 A 
ATOM      9  N   UNL     1     -10.849  -5.808  15.226  0.00  0.00    +0.000 N 
ATOM     10  C   UNL     1     -10.027  -6.226  16.258  0.00  0.00    +0.000 A 
ATOM     11  C   UNL     1      -9.116  -7.306  16.260  0.00  0.00    +0.000 A 
ATOM     12  C   UNL     1      -8.318  -7.413  17.416  0.00  0.00    +0.000 A 
ATOM     13  C   UNL     1      -8.477  -6.572  18.512  0.00  0.00    +0.000 A 
ATOM     14  C   UNL     1      -9.403  -5.536  18.481  0.00  0.00    +0.000 A 
ATOM     15  C   UNL     1     -10.163  -5.322  17.316  0.00  0.00    +0.000 A 
ATOM     16  C   UNL     1     -10.990  -4.325  16.770  0.00  0.00    +0.000 A 
ATOM     17  C   UNL     1     -10.964  -3.006  17.314  0.00  0.00    +0.000 A 
ATOM     18  C   UNL     1     -11.061  -1.998  16.303  0.00  0.00    +0.000 A 
ATOM     19  C   UNL     1     -11.676  -2.180  15.053  0.00  0.00    +0.000 A 
ATOM     20  C   UNL     1     -12.391  -1.279  14.235  0.00  0.00    +0.000 A 
ATOM     21  C   UNL     1      -9.845  -1.224  16.561  0.00  0.00    +0.000 C 
ATOM     22  O   UNL     1      -9.015  -0.714  15.815  0.00  0.00    +0.000 OA
ATOM     23  N   UNL     1      -9.593  -1.454  17.905  0.00  0.00    +0.000 N 
ATOM     24  C   UNL     1     -10.287  -2.514  18.453  0.00  0.00    +0.000 C 
ATOM     25  O   UNL     1     -10.229  -2.802  19.646  0.00  0.00    +0.000 OA
ATOM     26  H   UNL     1     -14.821   0.655  13.218  0.00  0.00    +0.000 HD
ATOM     27  H   UNL     1     -13.067  -0.012  11.250  0.00  0.00    +0.000 HD
ATOM     28  H   UNL     1     -12.252  -2.912  11.229  0.00  0.00    +0.000 HD
ATOM     29  H   UNL     1     -11.698  -4.761  12.763  0.00  0.00    +0.000 HD
ATOM     30  H   UNL     1     -10.886  -6.260  14.326  0.00  0.00    +0.000 HD
ATOM     31  H   UNL     1      -7.546  -8.175  17.475  0.00  0.00    +0.000 HD
ATOM     32  H   UNL     1      -7.824  -6.688  19.382  0.00  0.00    +0.000 HD
ATOM     33  H   UNL     1      -9.471  -4.891  19.343  0.00  0.00    +0.000 HD
ATOM     34  H   UNL     1      -8.684  -1.232  18.292  0.00  0.00    +0.000 HD
ENDROOT
BRANCH   1  35
ATOM     35  C   UNL     1     -13.775   0.302  15.703  0.00  0.00    +0.000 C 
ATOM     36  H   UNL     1     -14.637   0.929  15.479  0.00  0.00    +0.000 HD
ATOM     37  H   UNL     1     -12.977   0.843  16.213  0.00  0.00    +0.000 HD
ATOM     38  H   UNL     1     -14.103  -0.531  16.339  0.00  0.00    +0.000 HD
ENDBRANCH   1  35
BRANCH  11  39
ATOM     39  C   UNL     1      -8.980  -8.230  15.069  0.00  0.00    +0.000 C 
ATOM     40  H   UNL     1      -8.283  -7.790  14.349  0.00  0.00    +0.000 HD
ATOM     41  H   UNL     1      -9.959  -8.291  14.577  0.00  0.00    +0.000 HD
BRANCH  39  42
ATOM     42  C   UNL     1      -8.535  -9.635  15.476  0.00  0.00    +0.000 C 
ATOM     43  H   UNL     1      -7.886  -9.543  16.355  0.00  0.00    +0.000 HD
ATOM     44  H   UNL     1      -7.913 -10.028  14.663  0.00  0.00    +0.000 HD
BRANCH  42  45
ATOM     45  N   UNL     1      -9.602 -10.628  15.694  0.00  0.00    +0.000 NA
ATOM     46  C   UNL     1      -9.922 -10.858  17.119  0.00  0.00    +0.000 C 
ATOM     47  C   UNL     1      -8.790 -11.531  17.926  0.00  0.00    +0.000 C 
ATOM     48  N   UNL     1      -8.330 -12.800  17.335  0.00  0.00    +0.000 NA
ATOM     49  C   UNL     1      -8.022 -12.616  15.905  0.00  0.00    +0.000 C 
ATOM     50  C   UNL     1      -9.161 -11.924  15.114  0.00  0.00    +0.000 C 
ATOM     51  H   UNL     1     -10.810 -11.505  17.162  0.00  0.00    +0.000 HD
ATOM     52  H   UNL     1     -10.235  -9.931  17.610  0.00  0.00    +0.000 HD
ATOM     53  H   UNL     1      -9.152 -11.735  18.941  0.00  0.00    +0.000 HD
ATOM     54  H   UNL     1      -7.941 -10.845  18.036  0.00  0.00    +0.000 HD
ATOM     55  H   UNL     1      -9.095 -13.469  17.401  0.00  0.00    +0.000 HD
ATOM     56  H   UNL     1      -7.828 -13.598  15.461  0.00  0.00    +0.000 HD
ATOM     57  H   UNL     1      -7.086 -12.054  15.808  0.00  0.00    +0.000 HD
ATOM     58  H   UNL     1     -10.028 -12.595  15.078  0.00  0.00    +0.000 HD
ATOM     59  H   UNL     1      -8.853 -11.782  14.070  0.00  0.00    +0.000 HD
ENDBRANCH  42  45
ENDBRANCH  39  42
ENDBRANCH  11  39
TORSDOF 4
ENDMDL
MODEL 2
REMARK VINA RESULT:    -9.470      4.035      7.073
REMARK INTER + INTRA:         -11.805
REMARK INTER:                 -11.477
REMARK INTRA:                  -0.328
REMARK UNBOUND:                -0.397
REMARK  Name = 
REMARK  4 active torsions:
REMARK  status: ('A' for Active; 'I' for Inactive)
REMARK    1  A    between atoms: C_1  and  N_2
REMARK    2  A    between atoms: C_12  and  C_13
REMARK    3  A    between atoms: C_13  and  C_14
REMARK    4  A    between atoms: C_14  and  N_15
REMARK                            x       y       z     vdW  Elec       q    Type
REMARK                         _______ _______ _______ _____ _____    ______ ____
ROOT
ATOM      1  N   UNL     1      -9.045   0.262  24.652  0.00  0.00    +0.000 N 
ATOM      2  C   UNL     1      -8.562   0.066  25.928  0.00  0.00    +0.000 A 
ATOM      3  C   UNL     1      -8.997  -1.180  26.298  0.00  0.00    +0.000 A 
ATOM      4  C   UNL     1      -8.935  -1.887  25.075  0.00  0.00    +0.000 A 
ATOM      5  C   UNL     1      -8.580  -3.206  24.753  0.00  0.00    +0.000 A 
ATOM      6  C   UNL     1      -8.434  -3.527  23.406  0.00  0.00    +0.000 A 
ATOM      7  C   UNL     1      -8.896  -2.641  22.419  0.00  0.00    +0.000 A 
ATOM      8  C   UNL     1      -8.809  -2.953  21.050  0.00  0.00    +0.000 A 
ATOM      9  N   UNL     1      -8.449  -4.113  20.404  0.00  0.00    +0.000 N 
ATOM     10  C   UNL     1      -9.063  -4.165  19.165  0.00  0.00    +0.000 A 
ATOM     11  C   UNL     1      -9.306  -5.302  18.364  0.00  0.00    +0.000 A 
ATOM     12  C   UNL     1     -10.068  -5.063  17.202  0.00  0.00    +0.000 A 
ATOM     13  C   UNL     1     -10.474  -3.787  16.827  0.00  0.00    +0.000 A 
ATOM     14  C   UNL     1     -10.193  -2.690  17.631  0.00  0.00    +0.000 A 
ATOM     15  C   UNL     1      -9.517  -2.880  18.851  0.00  0.00    +0.000 A 
ATOM     16  C   UNL     1      -9.243  -2.155  20.023  0.00  0.00    +0.000 A 
ATOM     17  C   UNL     1      -9.984  -0.972  20.316  0.00  0.00    +0.000 A 
ATOM     18  C   UNL     1     -10.291  -0.852  21.708  0.00  0.00    +0.000 A 
ATOM     19  C   UNL     1      -9.531  -1.422  22.744  0.00  0.00    +0.000 A 
ATOM     20  C   UNL     1      -9.275  -0.974  24.057  0.00  0.00    +0.000 A 
ATOM     21  C   UNL     1     -11.751  -0.749  21.667  0.00  0.00    +0.000 C 
ATOM     22  O   UNL     1     -12.635  -1.232  22.367  0.00  0.00    +0.000 OA
ATOM     23  N   UNL     1     -12.004  -0.229  20.406  0.00  0.00    +0.000 N 
ATOM     24  C   UNL     1     -10.939  -0.289  19.528  0.00  0.00    +0.000 C 
ATOM     25  O   UNL     1     -10.979   0.193  18.399  0.00  0.00    +0.000 OA
ATOM     26  H   UNL     1      -8.039   0.838  26.480  0.00  0.00    +0.000 HD
ATOM     27  H   UNL     1      -8.993  -1.573  27.303  0.00  0.00    +0.000 HD
ATOM     28  H   UNL     1      -8.242  -3.888  25.527  0.00  0.00    +0.000 HD
ATOM     29  H   UNL     1      -7.967  -4.471  23.148  0.00  0.00    +0.000 HD
ATOM     30  H   UNL     1      -8.091  -4.924  20.883  0.00  0.00    +0.000 HD
ATOM     31  H   UNL     1     -10.358  -5.892  16.563  0.00  0.00    +0.000 HD
ATOM     32  H   UNL     1     -11.075  -3.655  15.922  0.00  0.00    +0.000 HD
ATOM     33  H   UNL     1     -10.553  -1.723  17.314  0.00  0.00    +0.000 HD
ATOM     34  H   UNL     1     -12.938  -0.275  20.020  0.00  0.00    +0.000 HD
ENDROOT
BRANCH   1  35
ATOM     35  C   UNL     1      -9.040   1.579  24.063  0.00  0.00    +0.000 C 
ATOM     36  H   UNL     1      -9.477   2.268  24.785  0.00  0.00    +0.000 HD
ATOM     37  H   UNL     1      -9.572   1.567  23.111  0.00  0.00    +0.000 HD
ATOM     38  H   UNL     1      -7.997   1.873  23.884  0.00  0.00    +0.000 HD
ENDBRANCH   1  35
BRANCH  11  39
ATOM     39  C   UNL     1      -8.828  -6.678  18.774  0.00  0.00    +0.000 C 
ATOM     40  H   UNL     1      -9.392  -7.008  19.652  0.00  0.00    +0.000 HD
ATOM     41  H   UNL     1      -7.777  -6.593  19.076  0.00  0.00    +0.000 HD
BRANCH  39  42
ATOM     42  C   UNL     1      -8.942  -7.692  17.636  0.00  0.00    +0.000 C 
ATOM     43  H   UNL     1      -7.947  -8.116  17.460  0.00  0.00    +0.000 HD
ATOM     44  H   UNL     1      -9.214  -7.137  16.730  0.00  0.00    +0.000 HD
BRANCH  42  45
ATOM     45  N   UNL     1      -9.959  -8.748  17.792  0.00  0.00    +0.000 NA
ATOM     46  C   UNL     1      -9.392 -10.098  17.992  0.00  0.00    +0.000 C 
ATOM     47  C   UNL     1      -8.638 -10.662  16.769  0.00  0.00    +0.000 C 
ATOM     48  N   UNL     1      -9.449 -10.668  15.538  0.00  0.00    +0.000 NA
ATOM     49  C   UNL     1     -10.052  -9.342  15.315  0.00  0.00    +0.000 C 
ATOM     50  C   UNL     1     -10.789  -8.784  16.560  0.00  0.00    +0.000 C 
ATOM     51  H   UNL     1     -10.223 -10.777  18.230  0.00  0.00    +0.000 HD
ATOM     52  H   UNL     1      -8.751 -10.131  18.879  0.00  0.00    +0.000 HD
ATOM     53  H   UNL     1      -8.332 -11.692  16.984  0.00  0.00    +0.000 HD
ATOM     54  H   UNL     1      -7.713 -10.097  16.598  0.00  0.00    +0.000 HD
ATOM     55  H   UNL     1     -10.210 -11.333  15.672  0.00  0.00    +0.000 HD
ATOM     56  H   UNL     1     -10.762  -9.416  14.486  0.00  0.00    +0.000 HD
ATOM     57  H   UNL     1      -9.275  -8.645  14.982  0.00  0.00    +0.000 HD
ATOM     58  H   UNL     1     -11.671  -9.406  16.759  0.00  0.00    +0.000 HD
ATOM     59  H   UNL     1     -11.178  -7.781  16.340  0.00  0.00    +0.000 HD
ENDBRANCH  42  45
ENDBRANCH  39  42
ENDBRANCH  11  39
TORSDOF 4
ENDMDL
MODEL 3
REMARK VINA RESULT:    -9.240      4.074      7.162
REMARK INTER + INTRA:         -11.527
REMARK INTER:                 -11.246
REMARK INTRA:                  -0.282
REMARK UNBOUND:                -0.397
REMARK  Name = 
REMARK  4 active torsions:
REMARK  status: ('A' for Active; 'I' for Inactive)
REMARK    1  A    between atoms: C_1  and  N_2
REMARK    2  A    between atoms: C_12  and  C_13
REMARK    3  A    between atoms: C_13  and  C_14
REMARK    4  A    between atoms: C_14  and  N_15
REMARK                            x       y       z     vdW  Elec       q    Type
REMARK                         _______ _______ _______ _____ _____    ______ ____
ROOT
ATOM      1  N   UNL     1      -9.168   1.126  24.241  0.00  0.00    +0.000 N 
ATOM      2  C   UNL     1      -8.516   0.867  25.427  0.00  0.00    +0.000 A 
ATOM      3  C   UNL     1      -8.994  -0.345  25.851  0.00  0.00    +0.000 A 
ATOM      4  C   UNL     1      -9.178  -1.032  24.629  0.00  0.00    +0.000 A 
ATOM      5  C   UNL     1      -8.990  -2.369  24.249  0.00  0.00    +0.000 A 
ATOM      6  C   UNL     1      -9.078  -2.675  22.894  0.00  0.00    +0.000 A 
ATOM      7  C   UNL     1      -9.607  -1.736  21.994  0.00  0.00    +0.000 A 
ATOM      8  C   UNL     1      -9.756  -2.029  20.627  0.00  0.00    +0.000 A 
ATOM      9  N   UNL     1      -9.599  -3.201  19.927  0.00  0.00    +0.000 N 
ATOM     10  C   UNL     1     -10.395  -3.179  18.795  0.00  0.00    +0.000 A 
ATOM     11  C   UNL     1     -10.853  -4.276  18.034  0.00  0.00    +0.000 A 
ATOM     12  C   UNL     1     -11.760  -3.954  17.004  0.00  0.00    +0.000 A 
ATOM     13  C   UNL     1     -12.108  -2.641  16.703  0.00  0.00    +0.000 A 
ATOM     14  C   UNL     1     -11.616  -1.586  17.461  0.00  0.00    +0.000 A 
ATOM     15  C   UNL     1     -10.781  -1.855  18.561  0.00  0.00    +0.000 A 
ATOM     16  C   UNL     1     -10.271  -1.178  19.683  0.00  0.00    +0.000 A 
ATOM     17  C   UNL     1     -10.856   0.057  20.092  0.00  0.00    +0.000 A 
ATOM     18  C   UNL     1     -10.937   0.176  21.516  0.00  0.00    +0.000 A 
ATOM     19  C   UNL     1     -10.080  -0.475  22.420  0.00  0.00    +0.000 A 
ATOM     20  C   UNL     1      -9.590  -0.074  23.681  0.00  0.00    +0.000 A 
ATOM     21  C   UNL     1     -12.372   0.401  21.698  0.00  0.00    +0.000 C 
ATOM     22  O   UNL     1     -13.177  -0.020  22.522  0.00  0.00    +0.000 OA
ATOM     23  N   UNL     1     -12.768   0.964  20.494  0.00  0.00    +0.000 N 
ATOM     24  C   UNL     1     -11.858   0.831  19.464  0.00  0.00    +0.000 C 
ATOM     25  O   UNL     1     -12.028   1.337  18.357  0.00  0.00    +0.000 OA
ATOM     26  H   UNL     1      -7.851   1.582  25.897  0.00  0.00    +0.000 HD
ATOM     27  H   UNL     1      -8.870  -0.756  26.842  0.00  0.00    +0.000 HD
ATOM     28  H   UNL     1      -8.598  -3.091  24.958  0.00  0.00    +0.000 HD
ATOM     29  H   UNL     1      -8.738  -3.650  22.562  0.00  0.00    +0.000 HD
ATOM     30  H   UNL     1      -9.242  -4.049  20.340  0.00  0.00    +0.000 HD
ATOM     31  H   UNL     1     -12.212  -4.743  16.411  0.00  0.00    +0.000 HD
ATOM     32  H   UNL     1     -12.826  -2.443  15.901  0.00  0.00    +0.000 HD
ATOM     33  H   UNL     1     -11.936  -0.587  17.208  0.00  0.00    +0.000 HD
ATOM     34  H   UNL     1     -13.751   1.003  20.256  0.00  0.00    +0.000 HD
ENDROOT
BRANCH   1  35
ATOM     35  C   UNL     1      -9.141   2.449  23.666  0.00  0.00    +0.000 C 
ATOM     36  H   UNL     1      -8.107   2.792  23.667  0.00  0.00    +0.000 HD
ATOM     37  H   UNL     1      -9.809   3.112  24.217  0.00  0.00    +0.000 HD
ATOM     38  H   UNL     1      -9.487   2.380  22.626  0.00  0.00    +0.000 HD
ENDBRANCH   1  35
BRANCH  11  39
ATOM     39  C   UNL     1     -10.438  -5.695  18.358  0.00  0.00    +0.000 C 
ATOM     40  H   UNL     1     -11.106  -6.100  19.124  0.00  0.00    +0.000 HD
ATOM     41  H   UNL     1      -9.431  -5.660  18.792  0.00  0.00    +0.000 HD
BRANCH  39  42
ATOM     42  C   UNL     1     -10.417  -6.589  17.118  0.00  0.00    +0.000 C 
ATOM     43  H   UNL     1     -10.891  -6.039  16.297  0.00  0.00    +0.000 HD
ATOM     44  H   UNL     1     -11.057  -7.454  17.329  0.00  0.00    +0.000 HD
BRANCH  42  45
ATOM     45  N   UNL     1      -9.107  -7.134  16.718  0.00  0.00    +0.000 NA
ATOM     46  C   UNL     1      -9.191  -8.214  15.712  0.00  0.00    +0.000 C 
ATOM     47  C   UNL     1      -9.852  -9.512  16.224  0.00  0.00    +0.000 C 
ATOM     48  N   UNL     1      -9.215 -10.048  17.440  0.00  0.00    +0.000 NA
ATOM     49  C   UNL     1      -9.092  -8.992  18.462  0.00  0.00    +0.000 C 
ATOM     50  C   UNL     1      -8.444  -7.690  17.926  0.00  0.00    +0.000 C 
ATOM     51  H   UNL     1      -8.167  -8.450  15.390  0.00  0.00    +0.000 HD
ATOM     52  H   UNL     1      -9.692  -7.869  14.801  0.00  0.00    +0.000 HD
ATOM     53  H   UNL     1      -9.790 -10.275  15.439  0.00  0.00    +0.000 HD
ATOM     54  H   UNL     1     -10.921  -9.348  16.408  0.00  0.00    +0.000 HD
ATOM     55  H   UNL     1      -8.273 -10.346  17.192  0.00  0.00    +0.000 HD
ATOM     56  H   UNL     1      -8.487  -9.375  19.289  0.00  0.00    +0.000 HD
ATOM     57  H   UNL     1     -10.082  -8.784  18.886  0.00  0.00    +0.000 HD
ATOM     58  H   UNL     1      -7.394  -7.892  17.677  0.00  0.00    +0.000 HD
ATOM     59  H   UNL     1      -8.419  -6.934  18.722  0.00  0.00    +0.000 HD
ENDBRANCH  42  45
ENDBRANCH  39  42
ENDBRANCH  11  39
TORSDOF 4
ENDMDL
MODEL 4
REMARK VINA RESULT:    -8.990      4.765      7.182
REMARK INTER + INTRA:         -11.226
REMARK INTER:                 -10.497
REMARK INTRA:                  -0.729
REMARK UNBOUND:                -0.397
REMARK  Name = 
REMARK  4 active torsions:
REMARK  status: ('A' for Active; 'I' for Inactive)
REMARK    1  A    between atoms: C_1  and  N_2
REMARK    2  A    between atoms: C_12  and  C_13
REMARK    3  A    between atoms: C_13  and  C_14
REMARK    4  A    between atoms: C_14  and  N_15
REMARK                            x       y       z     vdW  Elec       q    Type
REMARK                         _______ _______ _______ _____ _____    ______ ____
ROOT
ATOM      1  N   UNL     1     -12.699  -0.073  16.540  0.00  0.00    +0.000 N 
ATOM      2  C   UNL     1     -13.081  -0.984  15.579  0.00  0.00    +0.000 A 
ATOM      3  C   UNL     1     -12.102  -1.943  15.574  0.00  0.00    +0.000 A 
ATOM      4  C   UNL     1     -11.746  -2.007  16.941  0.00  0.00    +0.000 A 
ATOM      5  C   UNL     1     -11.382  -3.067  17.784  0.00  0.00    +0.000 A 
ATOM      6  C   UNL     1     -11.285  -2.807  19.148  0.00  0.00    +0.000 A 
ATOM      7  C   UNL     1     -11.278  -1.481  19.611  0.00  0.00    +0.000 A 
ATOM      8  C   UNL     1     -11.132  -1.179  20.977  0.00  0.00    +0.000 A 
ATOM      9  N   UNL     1     -10.836  -1.977  22.057  0.00  0.00    +0.000 N 
ATOM     10  C   UNL     1     -10.220  -1.221  23.039  0.00  0.00    +0.000 A 
ATOM     11  C   UNL     1      -9.405  -1.674  24.100  0.00  0.00    +0.000 A 
ATOM     12  C   UNL     1      -8.809  -0.657  24.872  0.00  0.00    +0.000 A 
ATOM     13  C   UNL     1      -9.074   0.691  24.660  0.00  0.00    +0.000 A 
ATOM     14  C   UNL     1      -9.901   1.095  23.620  0.00  0.00    +0.000 A 
ATOM     15  C   UNL     1     -10.451   0.129  22.757  0.00  0.00    +0.000 A 
ATOM     16  C   UNL     1     -11.105   0.082  21.514  0.00  0.00    +0.000 A 
ATOM     17  C   UNL     1     -11.065   1.215  20.648  0.00  0.00    +0.000 A 
ATOM     18  C   UNL     1     -10.925   0.845  19.273  0.00  0.00    +0.000 A 
ATOM     19  C   UNL     1     -11.349  -0.380  18.730  0.00  0.00    +0.000 A 
ATOM     20  C   UNL     1     -11.856  -0.699  17.452  0.00  0.00    +0.000 A 
ATOM     21  C   UNL     1      -9.709   1.575  18.907  0.00  0.00    +0.000 C 
ATOM     22  O   UNL     1      -8.737   1.273  18.224  0.00  0.00    +0.000 OA
ATOM     23  N   UNL     1      -9.689   2.638  19.798  0.00  0.00    +0.000 N 
ATOM     24  C   UNL     1     -10.539   2.507  20.879  0.00  0.00    +0.000 C 
ATOM     25  O   UNL     1     -10.691   3.392  21.718  0.00  0.00    +0.000 OA
ATOM     26  H   UNL     1     -13.944  -0.835  14.942  0.00  0.00    +0.000 HD
ATOM     27  H   UNL     1     -11.958  -2.689  14.807  0.00  0.00    +0.000 HD
ATOM     28  H   UNL     1     -11.372  -4.087  17.410  0.00  0.00    +0.000 HD
ATOM     29  H   UNL     1     -11.207  -3.647  19.830  0.00  0.00    +0.000 HD
ATOM     30  H   UNL     1     -10.766  -2.981  22.001  0.00  0.00    +0.000 HD
ATOM     31  H   UNL     1      -8.115  -0.915  25.667  0.00  0.00    +0.000 HD
ATOM     32  H   UNL     1      -8.576   1.443  25.279  0.00  0.00    +0.000 HD
ATOM     33  H   UNL     1     -10.055   2.154  23.477  0.00  0.00    +0.000 HD
ATOM     34  H   UNL     1      -8.838   3.171  19.927  0.00  0.00    +0.000 HD
ENDROOT
BRANCH   1  35
ATOM     35  C   UNL     1     -13.329   1.223  16.610  0.00  0.00    +0.000 C 
ATOM     36  H   UNL     1     -14.401   1.065  16.725  0.00  0.00    +0.000 HD
ATOM     37  H   UNL     1     -13.079   1.811  15.726  0.00  0.00    +0.000 HD
ATOM     38  H   UNL     1     -12.953   1.742  17.501  0.00  0.00    +0.000 HD
ENDBRANCH   1  35
BRANCH  11  39
ATOM     39  C   UNL     1      -9.155  -3.148  24.333  0.00  0.00    +0.000 C 
ATOM     40  H   UNL     1     -10.100  -3.693  24.241  0.00  0.00    +0.000 HD
ATOM     41  H   UNL     1      -8.808  -3.272  25.367  0.00  0.00    +0.000 HD
BRANCH  39  42
ATOM     42  C   UNL     1      -8.100  -3.713  23.380  0.00  0.00    +0.000 C 
ATOM     43  H   UNL     1      -8.377  -4.747  23.145  0.00  0.00    +0.000 HD
ATOM     44  H   UNL     1      -7.153  -3.756  23.931  0.00  0.00    +0.000 HD
BRANCH  42  45
ATOM     45  N   UNL     1      -7.831  -2.934  22.158  0.00  0.00    +0.000 NA
ATOM     46  C   UNL     1      -8.135  -3.661  20.908  0.00  0.00    +0.000 C 
ATOM     47  C   UNL     1      -7.219  -4.874  20.634  0.00  0.00    +0.000 C 
ATOM     48  N   UNL     1      -5.786  -4.532  20.645  0.00  0.00    +0.000 NA
ATOM     49  C   UNL     1      -5.446  -3.785  21.869  0.00  0.00    +0.000 C 
ATOM     50  C   UNL     1      -6.387  -2.582  22.137  0.00  0.00    +0.000 C 
ATOM     51  H   UNL     1      -8.029  -2.952  20.075  0.00  0.00    +0.000 HD
ATOM     52  H   UNL     1      -9.187  -3.967  20.873  0.00  0.00    +0.000 HD
ATOM     53  H   UNL     1      -7.467  -5.291  19.651  0.00  0.00    +0.000 HD
ATOM     54  H   UNL     1      -7.415  -5.671  21.363  0.00  0.00    +0.000 HD
ATOM     55  H   UNL     1      -5.607  -3.919  19.851  0.00  0.00    +0.000 HD
ATOM     56  H   UNL     1      -4.418  -3.419  21.781  0.00  0.00    +0.000 HD
ATOM     57  H   UNL     1      -5.446  -4.473  22.722  0.00  0.00    +0.000 HD
ATOM     58  H   UNL     1      -6.230  -1.827  21.356  0.00  0.00    +0.000 HD
ATOM     59  H   UNL     1      -6.105  -2.096  23.079  0.00  0.00    +0.000 HD
ENDBRANCH  42  45
ENDBRANCH  39  42
ENDBRANCH  11  39
TORSDOF 4
ENDMDL
MODEL 5
REMARK VINA RESULT:    -8.928      1.947      2.957
REMARK INTER + INTRA:         -11.152
REMARK INTER:                 -10.613
REMARK INTRA:                  -0.539
REMARK UNBOUND:                -0.397
REMARK  Name = 
REMARK  4 active torsions:
REMARK  status: ('A' for Active; 'I' for Inactive)
REMARK    1  A    between atoms: C_1  and  N_2
REMARK    2  A    between atoms: C_12  and  C_13
REMARK    3  A    between atoms: C_13  and  C_14
REMARK    4  A    between atoms: C_14  and  N_15
REMARK                            x       y       z     vdW  Elec       q    Type
REMARK                         _______ _______ _______ _____ _____    ______ ____
ROOT
ATOM      1  N   UNL     1     -12.886   0.525  16.231  0.00  0.00    +0.000 N 
ATOM      2  C   UNL     1     -13.603   0.570  15.055  0.00  0.00    +0.000 A 
ATOM      3  C   UNL     1     -12.762   0.077  14.092  0.00  0.00    +0.000 A 
ATOM      4  C   UNL     1     -12.052  -0.917  14.805  0.00  0.00    +0.000 A 
ATOM      5  C   UNL     1     -11.575  -2.188  14.450  0.00  0.00    +0.000 A 
ATOM      6  C   UNL     1     -11.082  -3.002  15.466  0.00  0.00    +0.000 A 
ATOM      7  C   UNL     1     -10.820  -2.459  16.735  0.00  0.00    +0.000 A 
ATOM      8  C   UNL     1     -10.276  -3.240  17.771  0.00  0.00    +0.000 A 
ATOM      9  N   UNL     1      -9.774  -4.520  17.776  0.00  0.00    +0.000 N 
ATOM     10  C   UNL     1      -8.842  -4.650  18.790  0.00  0.00    +0.000 A 
ATOM     11  C   UNL     1      -7.815  -5.613  18.907  0.00  0.00    +0.000 A 
ATOM     12  C   UNL     1      -6.933  -5.419  19.990  0.00  0.00    +0.000 A 
ATOM     13  C   UNL     1      -7.114  -4.405  20.925  0.00  0.00    +0.000 A 
ATOM     14  C   UNL     1      -8.152  -3.493  20.788  0.00  0.00    +0.000 A 
ATOM     15  C   UNL     1      -9.009  -3.580  19.674  0.00  0.00    +0.000 A 
ATOM     16  C   UNL     1      -9.980  -2.792  19.033  0.00  0.00    +0.000 A 
ATOM     17  C   UNL     1     -10.069  -1.399  19.324  0.00  0.00    +0.000 A 
ATOM     18  C   UNL     1     -10.349  -0.616  18.160  0.00  0.00    +0.000 A 
ATOM     19  C   UNL     1     -11.023  -1.092  17.022  0.00  0.00    +0.000 A 
ATOM     20  C   UNL     1     -11.890  -0.439  16.120  0.00  0.00    +0.000 A 
ATOM     21  C   UNL     1      -9.216   0.312  18.165  0.00  0.00    +0.000 C 
ATOM     22  O   UNL     1      -8.503   0.752  17.270  0.00  0.00    +0.000 OA
ATOM     23  N   UNL     1      -8.848   0.367  19.502  0.00  0.00    +0.000 N 
ATOM     24  C   UNL     1      -9.378  -0.635  20.292  0.00  0.00    +0.000 C 
ATOM     25  O   UNL     1      -9.206  -0.684  21.507  0.00  0.00    +0.000 OA
ATOM     26  H   UNL     1     -14.590   1.013  14.988  0.00  0.00    +0.000 HD
ATOM     27  H   UNL     1     -12.907   0.166  13.027  0.00  0.00    +0.000 HD
ATOM     28  H   UNL     1     -11.768  -2.590  13.460  0.00  0.00    +0.000 HD
ATOM     29  H   UNL     1     -10.902  -4.049  15.248  0.00  0.00    +0.000 HD
ATOM     30  H   UNL     1      -9.820  -5.136  16.980  0.00  0.00    +0.000 HD
ATOM     31  H   UNL     1      -6.076  -6.074  20.117  0.00  0.00    +0.000 HD
ATOM     32  H   UNL     1      -6.394  -4.288  21.741  0.00  0.00    +0.000 HD
ATOM     33  H   UNL     1      -8.236  -2.706  21.522  0.00  0.00    +0.000 HD
ATOM     34  H   UNL     1      -7.947   0.748  19.761  0.00  0.00    +0.000 HD
ENDROOT
BRANCH   1  35
ATOM     35  C   UNL     1     -13.344   1.245  17.394  0.00  0.00    +0.000 C 
ATOM     36  H   UNL     1     -12.548   1.217  18.138  0.00  0.00    +0.000 HD
ATOM     37  H   UNL     1     -14.279   0.817  17.756  0.00  0.00    +0.000 HD
ATOM     38  H   UNL     1     -13.519   2.290  17.106  0.00  0.00    +0.000 HD
ENDBRANCH   1  35
BRANCH  11  39
ATOM     39  C   UNL     1      -7.654  -6.727  17.896  0.00  0.00    +0.000 C 
ATOM     40  H   UNL     1      -6.766  -7.316  18.147  0.00  0.00    +0.000 HD
ATOM     41  H   UNL     1      -7.474  -6.270  16.916  0.00  0.00    +0.000 HD
BRANCH  39  42
ATOM     42  C   UNL     1      -8.896  -7.616  17.814  0.00  0.00    +0.000 C 
ATOM     43  H   UNL     1      -9.347  -7.660  18.812  0.00  0.00    +0.000 HD
ATOM     44  H   UNL     1      -8.555  -8.631  17.576  0.00  0.00    +0.000 HD
BRANCH  42  45
ATOM     45  N   UNL     1      -9.892  -7.265  16.786  0.00  0.00    +0.000 NA
ATOM     46  C   UNL     1     -11.033  -8.201  16.715  0.00  0.00    +0.000 C 
ATOM     47  C   UNL     1     -10.665  -9.620  16.227  0.00  0.00    +0.000 C 
ATOM     48  N   UNL     1      -9.969  -9.624  14.928  0.00  0.00    +0.000 NA
ATOM     49  C   UNL     1      -8.835  -8.682  14.951  0.00  0.00    +0.000 C 
ATOM     50  C   UNL     1      -9.219  -7.269  15.461  0.00  0.00    +0.000 C 
ATOM     51  H   UNL     1     -11.772  -7.777  16.020  0.00  0.00    +0.000 HD
ATOM     52  H   UNL     1     -11.561  -8.258  17.673  0.00  0.00    +0.000 HD
ATOM     53  H   UNL     1     -11.583 -10.210  16.126  0.00  0.00    +0.000 HD
ATOM     54  H   UNL     1     -10.051 -10.133  16.977  0.00  0.00    +0.000 HD
ATOM     55  H   UNL     1     -10.626  -9.295  14.222  0.00  0.00    +0.000 HD
ATOM     56  H   UNL     1      -8.431  -8.596  13.937  0.00  0.00    +0.000 HD
ATOM     57  H   UNL     1      -8.028  -9.106  15.559  0.00  0.00    +0.000 HD
ATOM     58  H   UNL     1      -9.892  -6.799  14.733  0.00  0.00    +0.000 HD
ATOM     59  H   UNL     1      -8.326  -6.632  15.492  0.00  0.00    +0.000 HD
ENDBRANCH  42  45
ENDBRANCH  39  42
ENDBRANCH  11  39
TORSDOF 4
ENDMDL
MODEL 6
REMARK VINA RESULT:    -8.606      1.569      2.122
REMARK INTER + INTRA:         -10.764
REMARK INTER:                 -10.487
REMARK INTRA:                  -0.277
REMARK UNBOUND:                -0.397
REMARK  Name = 
REMARK  4 active torsions:
REMARK  status: ('A' for Active; 'I' for Inactive)
REMARK    1  A    between atoms: C_1  and  N_2
REMARK    2  A    between atoms: C_12  and  C_13
REMARK    3  A    between atoms: C_13  and  C_14
REMARK    4  A    between atoms: C_14  and  N_15
REMARK                            x       y       z     vdW  Elec       q    Type
REMARK                         _______ _______ _______ _____ _____    ______ ____
ROOT
ATOM      1  N   UNL     1     -13.265  -0.256  11.618  0.00  0.00    +0.000 N 
ATOM      2  C   UNL     1     -13.550  -0.346  10.272  0.00  0.00    +0.000 A 
ATOM      3  C   UNL     1     -12.466  -0.965   9.708  0.00  0.00    +0.000 A 
ATOM      4  C   UNL     1     -12.087  -1.875  10.723  0.00  0.00    +0.000 A 
ATOM      5  C   UNL     1     -11.590  -3.186  10.692  0.00  0.00    +0.000 A 
ATOM      6  C   UNL     1     -11.506  -3.876  11.897  0.00  0.00    +0.000 A 
ATOM      7  C   UNL     1     -11.649  -3.186  13.112  0.00  0.00    +0.000 A 
ATOM      8  C   UNL     1     -11.522  -3.841  14.351  0.00  0.00    +0.000 A 
ATOM      9  N   UNL     1     -11.120  -5.118  14.666  0.00  0.00    +0.000 N 
ATOM     10  C   UNL     1     -10.584  -5.136  15.941  0.00  0.00    +0.000 A 
ATOM     11  C   UNL     1      -9.708  -6.092  16.501  0.00  0.00    +0.000 A 
ATOM     12  C   UNL     1      -9.224  -5.779  17.787  0.00  0.00    +0.000 A 
ATOM     13  C   UNL     1      -9.648  -4.656  18.490  0.00  0.00    +0.000 A 
ATOM     14  C   UNL     1     -10.531  -3.752  17.913  0.00  0.00    +0.000 A 
ATOM     15  C   UNL     1     -10.975  -3.963  16.594  0.00  0.00    +0.000 A 
ATOM     16  C   UNL     1     -11.635  -3.246  15.580  0.00  0.00    +0.000 A 
ATOM     17  C   UNL     1     -11.740  -1.826  15.669  0.00  0.00    +0.000 A 
ATOM     18  C   UNL     1     -11.576  -1.188  14.399  0.00  0.00    +0.000 A 
ATOM     19  C   UNL     1     -11.860  -1.791  13.161  0.00  0.00    +0.000 A 
ATOM     20  C   UNL     1     -12.344  -1.241  11.955  0.00  0.00    +0.000 A 
ATOM     21  C   UNL     1     -10.459  -0.284  14.681  0.00  0.00    +0.000 C 
ATOM     22  O   UNL     1      -9.467   0.033  14.032  0.00  0.00    +0.000 OA
ATOM     23  N   UNL     1     -10.552  -0.070  16.048  0.00  0.00    +0.000 N 
ATOM     24  C   UNL     1     -11.367  -0.959  16.721  0.00  0.00    +0.000 C 
ATOM     25  O   UNL     1     -11.610  -0.862  17.921  0.00  0.00    +0.000 OA
ATOM     26  H   UNL     1     -14.434   0.100   9.830  0.00  0.00    +0.000 HD
ATOM     27  H   UNL     1     -12.246  -1.006   8.652  0.00  0.00    +0.000 HD
ATOM     28  H   UNL     1     -11.466  -3.704   9.745  0.00  0.00    +0.000 HD
ATOM     29  H   UNL     1     -11.321  -4.944  11.870  0.00  0.00    +0.000 HD
ATOM     30  H   UNL     1     -10.933  -5.826  13.973  0.00  0.00    +0.000 HD
ATOM     31  H   UNL     1      -8.495  -6.426  18.266  0.00  0.00    +0.000 HD
ATOM     32  H   UNL     1      -9.234  -4.450  19.481  0.00  0.00    +0.000 HD
ATOM     33  H   UNL     1     -10.810  -2.880  18.484  0.00  0.00    +0.000 HD
ATOM     34  H   UNL     1      -9.768   0.327  16.550  0.00  0.00    +0.000 HD
ENDROOT
BRANCH   1  35
ATOM     35  C   UNL     1     -14.043   0.607  12.473  0.00  0.00    +0.000 C 
ATOM     36  H   UNL     1     -15.095   0.390  12.297  0.00  0.00    +0.000 HD
ATOM     37  H   UNL     1     -13.787   1.651  12.286  0.00  0.00    +0.000 HD
ATOM     38  H   UNL     1     -13.804   0.363  13.517  0.00  0.00    +0.000 HD
ENDBRANCH   1  35
BRANCH  11  39
ATOM     39  C   UNL     1      -9.283  -7.324  15.732  0.00  0.00    +0.000 C 
ATOM     40  H   UNL     1      -8.502  -7.050  15.016  0.00  0.00    +0.000 HD
ATOM     41  H   UNL     1     -10.147  -7.675  15.154  0.00  0.00    +0.000 HD
BRANCH  39  42
ATOM     42  C   UNL     1      -8.810  -8.447  16.657  0.00  0.00    +0.000 C 
ATOM     43  H   UNL     1      -8.022  -8.044  17.303  0.00  0.00    +0.000 HD
ATOM     44  H   UNL     1      -8.342  -9.212  16.026  0.00  0.00    +0.000 HD
BRANCH  42  45
ATOM     45  N   UNL     1      -9.850  -9.139  17.440  0.00  0.00    +0.000 NA
ATOM     46  C   UNL     1      -9.541  -9.243  18.882  0.00  0.00    +0.000 C 
ATOM     47  C   UNL     1      -8.337 -10.151  19.213  0.00  0.00    +0.000 C 
ATOM     48  N   UNL     1      -8.466 -11.511  18.659  0.00  0.00    +0.000 NA
ATOM     49  C   UNL     1      -8.797 -11.449  17.224  0.00  0.00    +0.000 C 
ATOM     50  C   UNL     1      -9.996 -10.519  16.908  0.00  0.00    +0.000 C 
ATOM     51  H   UNL     1     -10.431  -9.648  19.385  0.00  0.00    +0.000 HD
ATOM     52  H   UNL     1      -9.402  -8.253  19.329  0.00  0.00    +0.000 HD
ATOM     53  H   UNL     1      -8.243 -10.231  20.302  0.00  0.00    +0.000 HD
ATOM     54  H   UNL     1      -7.406  -9.693  18.858  0.00  0.00    +0.000 HD
ATOM     55  H   UNL     1      -9.243 -11.968  19.134  0.00  0.00    +0.000 HD
ATOM     56  H   UNL     1      -9.031 -12.460  16.876  0.00  0.00    +0.000 HD
ATOM     57  H   UNL     1      -7.908 -11.139  16.662  0.00  0.00    +0.000 HD
ATOM     58  H   UNL     1     -10.907 -10.956  17.334  0.00  0.00    +0.000 HD
ATOM     59  H   UNL     1     -10.163 -10.487  15.823  0.00  0.00    +0.000 HD
ENDBRANCH  42  45
ENDBRANCH  39  42
ENDBRANCH  11  39
TORSDOF 4
ENDMDL
MODEL 7
REMARK VINA RESULT:    -8.257      4.565      7.882
REMARK INTER + INTRA:         -10.344
REMARK INTER:                 -10.352
REMARK INTRA:                   0.008
REMARK UNBOUND:                -0.397
REMARK  Name = 
REMARK  4 active torsions:
REMARK  status: ('A' for Active; 'I' for Inactive)
REMARK    1  A    between atoms: C_1  and  N_2
REMARK    2  A    between atoms: C_12  and  C_13
REMARK    3  A    between atoms: C_13  and  C_14
REMARK    4  A    between atoms: C_14  and  N_15
REMARK                            x       y       z     vdW  Elec       q    Type
REMARK                         _______ _______ _______ _____ _____    ______ ____
ROOT
ATOM      1  N   UNL     1      -9.327   2.187  23.964  0.00  0.00    +0.000 N 
ATOM      2  C   UNL     1      -8.583   2.086  25.120  0.00  0.00    +0.000 A 
ATOM      3  C   UNL     1      -8.856   0.841  25.625  0.00  0.00    +0.000 A 
ATOM      4  C   UNL     1      -9.000   0.073  24.446  0.00  0.00    +0.000 A 
ATOM      5  C   UNL     1      -8.638  -1.241  24.115  0.00  0.00    +0.000 A 
ATOM      6  C   UNL     1      -8.749  -1.627  22.782  0.00  0.00    +0.000 A 
ATOM      7  C   UNL     1      -9.456  -0.821  21.875  0.00  0.00    +0.000 A 
ATOM      8  C   UNL     1      -9.631  -1.203  20.532  0.00  0.00    +0.000 A 
ATOM      9  N   UNL     1      -9.339  -2.375  19.876  0.00  0.00    +0.000 N 
ATOM     10  C   UNL     1     -10.188  -2.526  18.793  0.00  0.00    +0.000 A 
ATOM     11  C   UNL     1     -10.519  -3.716  18.108  0.00  0.00    +0.000 A 
ATOM     12  C   UNL     1     -11.514  -3.581  17.120  0.00  0.00    +0.000 A 
ATOM     13  C   UNL     1     -12.066  -2.349  16.783  0.00  0.00    +0.000 A 
ATOM     14  C   UNL     1     -11.695  -1.197  17.464  0.00  0.00    +0.000 A 
ATOM     15  C   UNL     1     -10.774  -1.285  18.524  0.00  0.00    +0.000 A 
ATOM     16  C   UNL     1     -10.313  -0.485  19.583  0.00  0.00    +0.000 A 
ATOM     17  C   UNL     1     -11.051   0.673  19.972  0.00  0.00    +0.000 A 
ATOM     18  C   UNL     1     -11.074   0.852  21.391  0.00  0.00    +0.000 A 
ATOM     19  C   UNL     1     -10.086   0.379  22.271  0.00  0.00    +0.000 A 
ATOM     20  C   UNL     1      -9.596   0.910  23.483  0.00  0.00    +0.000 A 
ATOM     21  C   UNL     1     -12.516   0.877  21.647  0.00  0.00    +0.000 C 
ATOM     22  O   UNL     1     -13.207   0.388  22.535  0.00  0.00    +0.000 OA
ATOM     23  N   UNL     1     -13.052   1.314  20.445  0.00  0.00    +0.000 N 
ATOM     24  C   UNL     1     -12.186   1.261  19.370  0.00  0.00    +0.000 C 
ATOM     25  O   UNL     1     -12.485   1.679  18.254  0.00  0.00    +0.000 OA
ATOM     26  H   UNL     1      -8.007   2.912  25.519  0.00  0.00    +0.000 HD
ATOM     27  H   UNL     1      -8.623   0.504  26.623  0.00  0.00    +0.000 HD
ATOM     28  H   UNL     1      -8.108  -1.862  24.831  0.00  0.00    +0.000 HD
ATOM     29  H   UNL     1      -8.288  -2.559  22.473  0.00  0.00    +0.000 HD
ATOM     30  H   UNL     1      -8.842  -3.140  20.304  0.00  0.00    +0.000 HD
ATOM     31  H   UNL     1     -11.876  -4.457  16.590  0.00  0.00    +0.000 HD
ATOM     32  H   UNL     1     -12.845  -2.298  16.016  0.00  0.00    +0.000 HD
ATOM     33  H   UNL     1     -12.171  -0.269  17.186  0.00  0.00    +0.000 HD
ATOM     34  H   UNL     1     -14.041   1.199  20.263  0.00  0.00    +0.000 HD
ENDROOT
BRANCH   1  35
ATOM     35  C   UNL     1      -9.523   3.468  23.332  0.00  0.00    +0.000 C 
ATOM     36  H   UNL     1     -10.151   3.314  22.455  0.00  0.00    +0.000 HD
ATOM     37  H   UNL     1      -8.561   3.921  23.091  0.00  0.00    +0.000 HD
ATOM     38  H   UNL     1     -10.058   4.121  24.035  0.00  0.00    +0.000 HD
ENDBRANCH   1  35
BRANCH  11  39
ATOM     39  C   UNL     1      -9.883  -5.041  18.469  0.00  0.00    +0.000 C 
ATOM     40  H   UNL     1      -9.988  -5.732  17.627  0.00  0.00    +0.000 HD
ATOM     41  H   UNL     1     -10.445  -5.466  19.310  0.00  0.00    +0.000 HD
BRANCH  39  42
ATOM     42  C   UNL     1      -8.416  -4.887  18.874  0.00  0.00    +0.000 C 
ATOM     43  H   UNL     1      -8.199  -3.817  18.956  0.00  0.00    +0.000 HD
ATOM     44  H   UNL     1      -7.808  -5.271  18.046  0.00  0.00    +0.000 HD
BRANCH  42  45
ATOM     45  N   UNL     1      -7.983  -5.620  20.077  0.00  0.00    +0.000 NA
ATOM     46  C   UNL     1      -7.567  -4.745  21.192  0.00  0.00    +0.000 C 
ATOM     47  C   UNL     1      -6.281  -3.933  20.921  0.00  0.00    +0.000 C 
ATOM     48  N   UNL     1      -5.136  -4.774  20.529  0.00  0.00    +0.000 NA
ATOM     49  C   UNL     1      -5.519  -5.680  19.431  0.00  0.00    +0.000 C 
ATOM     50  C   UNL     1      -6.821  -6.473  19.712  0.00  0.00    +0.000 C 
ATOM     51  H   UNL     1      -7.396  -5.382  22.071  0.00  0.00    +0.000 HD
ATOM     52  H   UNL     1      -8.379  -4.075  21.494  0.00  0.00    +0.000 HD
ATOM     53  H   UNL     1      -6.009  -3.385  21.831  0.00  0.00    +0.000 HD
ATOM     54  H   UNL     1      -6.465  -3.175  20.150  0.00  0.00    +0.000 HD
ATOM     55  H   UNL     1      -4.885  -5.352  21.330  0.00  0.00    +0.000 HD
ATOM     56  H   UNL     1      -4.702  -6.389  19.262  0.00  0.00    +0.000 HD
ATOM     57  H   UNL     1      -5.610  -5.104  18.503  0.00  0.00    +0.000 HD
ATOM     58  H   UNL     1      -6.639  -7.175  20.536  0.00  0.00    +0.000 HD
ATOM     59  H   UNL     1      -7.070  -7.095  18.843  0.00  0.00    +0.000 HD
ENDBRANCH  42  45
ENDBRANCH  39  42
ENDBRANCH  11  39
TORSDOF 4
ENDMDL
MODEL 8
REMARK VINA RESULT:    -8.251      3.062      8.172
REMARK INTER + INTRA:         -10.336
REMARK INTER:                  -9.921
REMARK INTRA:                  -0.414
REMARK UNBOUND:                -0.397
REMARK  Name = 
REMARK  4 active torsions:
REMARK  status: ('A' for Active; 'I' for Inactive)
REMARK    1  A    between atoms: C_1  and  N_2
REMARK    2  A    between atoms: C_12  and  C_13
REMARK    3  A    between atoms: C_13  and  C_14
REMARK    4  A    between atoms: C_14  and  N_15
REMARK                            x       y       z     vdW  Elec       q    Type
REMARK                         _______ _______ _______ _____ _____    ______ ____
ROOT
ATOM      1  N   UNL     1     -10.467  -9.220  16.668  0.00  0.00    +0.000 N 
ATOM      2  C   UNL     1      -9.982 -10.355  17.282  0.00  0.00    +0.000 A 
ATOM      3  C   UNL     1      -8.734 -10.020  17.739  0.00  0.00    +0.000 A 
ATOM      4  C   UNL     1      -8.912  -8.667  18.112  0.00  0.00    +0.000 A 
ATOM      5  C   UNL     1      -8.409  -7.895  19.170  0.00  0.00    +0.000 A 
ATOM      6  C   UNL     1      -8.949  -6.627  19.360  0.00  0.00    +0.000 A 
ATOM      7  C   UNL     1      -9.755  -6.050  18.365  0.00  0.00    +0.000 A 
ATOM      8  C   UNL     1     -10.277  -4.751  18.501  0.00  0.00    +0.000 A 
ATOM      9  N   UNL     1     -10.042  -3.771  19.436  0.00  0.00    +0.000 N 
ATOM     10  C   UNL     1     -10.272  -2.528  18.875  0.00  0.00    +0.000 A 
ATOM     11  C   UNL     1      -9.785  -1.275  19.309  0.00  0.00    +0.000 A 
ATOM     12  C   UNL     1     -10.082  -0.190  18.460  0.00  0.00    +0.000 A 
ATOM     13  C   UNL     1     -10.873  -0.328  17.324  0.00  0.00    +0.000 A 
ATOM     14  C   UNL     1     -11.354  -1.574  16.944  0.00  0.00    +0.000 A 
ATOM     15  C   UNL     1     -11.011  -2.710  17.702  0.00  0.00    +0.000 A 
ATOM     16  C   UNL     1     -11.062  -4.109  17.578  0.00  0.00    +0.000 A 
ATOM     17  C   UNL     1     -11.270  -4.701  16.296  0.00  0.00    +0.000 A 
ATOM     18  C   UNL     1     -10.484  -5.882  16.109  0.00  0.00    +0.000 A 
ATOM     19  C   UNL     1     -10.030  -6.712  17.148  0.00  0.00    +0.000 A 
ATOM     20  C   UNL     1      -9.820  -8.106  17.192  0.00  0.00    +0.000 A 
ATOM     21  C   UNL     1      -9.740  -5.534  14.896  0.00  0.00    +0.000 C 
ATOM     22  O   UNL     1      -8.572  -5.710  14.563  0.00  0.00    +0.000 OA
ATOM     23  N   UNL     1     -10.561  -4.611  14.265  0.00  0.00    +0.000 N 
ATOM     24  C   UNL     1     -11.563  -4.087  15.057  0.00  0.00    +0.000 C 
ATOM     25  O   UNL     1     -12.415  -3.314  14.628  0.00  0.00    +0.000 OA
ATOM     26  H   UNL     1     -10.513 -11.299  17.269  0.00  0.00    +0.000 HD
ATOM     27  H   UNL     1      -7.981 -10.716  18.075  0.00  0.00    +0.000 HD
ATOM     28  H   UNL     1      -7.771  -8.347  19.924  0.00  0.00    +0.000 HD
ATOM     29  H   UNL     1      -8.724  -6.102  20.282  0.00  0.00    +0.000 HD
ATOM     30  H   UNL     1      -9.478  -3.915  20.258  0.00  0.00    +0.000 HD
ATOM     31  H   UNL     1      -9.690   0.798  18.684  0.00  0.00    +0.000 HD
ATOM     32  H   UNL     1     -11.065   0.543  16.691  0.00  0.00    +0.000 HD
ATOM     33  H   UNL     1     -11.940  -1.637  16.040  0.00  0.00    +0.000 HD
ATOM     34  H   UNL     1     -10.189  -4.029  13.525  0.00  0.00    +0.000 HD
ENDROOT
BRANCH   1  35
ATOM     35  C   UNL     1     -11.624  -9.292  15.810  0.00  0.00    +0.000 C 
ATOM     36  H   UNL     1     -11.755  -8.315  15.346  0.00  0.00    +0.000 HD
ATOM     37  H   UNL     1     -12.496  -9.611  16.381  0.00  0.00    +0.000 HD
ATOM     38  H   UNL     1     -11.424 -10.030  15.023  0.00  0.00    +0.000 HD
ENDBRANCH   1  35
BRANCH  11  39
ATOM     39  C   UNL     1      -8.952  -1.141  20.566  0.00  0.00    +0.000 C 
ATOM     40  H   UNL     1      -8.282  -0.282  20.464  0.00  0.00    +0.000 HD
ATOM     41  H   UNL     1      -8.322  -2.036  20.649  0.00  0.00    +0.000 HD
BRANCH  39  42
ATOM     42  C   UNL     1      -9.817  -1.018  21.821  0.00  0.00    +0.000 C 
ATOM     43  H   UNL     1     -10.512  -1.865  21.837  0.00  0.00    +0.000 HD
ATOM     44  H   UNL     1     -10.424  -0.112  21.711  0.00  0.00    +0.000 HD
BRANCH  42  45
ATOM     45  N   UNL     1      -9.102  -0.881  23.103  0.00  0.00    +0.000 NA
ATOM     46  C   UNL     1      -7.957  -1.803  23.250  0.00  0.00    +0.000 C 
ATOM     47  C   UNL     1      -8.346  -3.295  23.342  0.00  0.00    +0.000 C 
ATOM     48  N   UNL     1      -9.318  -3.576  24.413  0.00  0.00    +0.000 NA
ATOM     49  C   UNL     1     -10.468  -2.659  24.315  0.00  0.00    +0.000 C 
ATOM     50  C   UNL     1     -10.059  -1.168  24.204  0.00  0.00    +0.000 C 
ATOM     51  H   UNL     1      -7.421  -1.527  24.170  0.00  0.00    +0.000 HD
ATOM     52  H   UNL     1      -7.222  -1.653  22.451  0.00  0.00    +0.000 HD
ATOM     53  H   UNL     1      -7.442  -3.886  23.534  0.00  0.00    +0.000 HD
ATOM     54  H   UNL     1      -8.742  -3.645  22.381  0.00  0.00    +0.000 HD
ATOM     55  H   UNL     1      -8.859  -3.397  25.305  0.00  0.00    +0.000 HD
ATOM     56  H   UNL     1     -11.096  -2.790  25.201  0.00  0.00    +0.000 HD
ATOM     57  H   UNL     1     -11.091  -2.953  23.462  0.00  0.00    +0.000 HD
ATOM     58  H   UNL     1      -9.597  -0.855  25.149  0.00  0.00    +0.000 HD
ATOM     59  H   UNL     1     -10.956  -0.546  24.094  0.00  0.00    +0.000 HD
ENDBRANCH  42  45
ENDBRANCH  39  42
ENDBRANCH  11  39
TORSDOF 4
ENDMDL
MODEL 9
REMARK VINA RESULT:    -8.218      5.864      8.127
REMARK INTER + INTRA:         -10.297
REMARK INTER:                  -9.983
REMARK INTRA:                  -0.313
REMARK UNBOUND:                -0.397
REMARK  Name = 
REMARK  4 active torsions:
REMARK  status: ('A' for Active; 'I' for Inactive)
REMARK    1  A    between atoms: C_1  and  N_2
REMARK    2  A    between atoms: C_12  and  C_13
REMARK    3  A    between atoms: C_13  and  C_14
REMARK    4  A    between atoms: C_14  and  N_15
REMARK                            x       y       z     vdW  Elec       q    Type
REMARK                         _______ _______ _______ _____ _____    ______ ____
ROOT
ATOM      1  N   UNL     1     -13.426   4.710  23.328  0.00  0.00    +0.000 N 
ATOM      2  C   UNL     1     -14.577   5.216  22.763  0.00  0.00    +0.000 A 
ATOM      3  C   UNL     1     -14.412   5.076  21.409  0.00  0.00    +0.000 A 
ATOM      4  C   UNL     1     -13.696   3.859  21.325  0.00  0.00    +0.000 A 
ATOM      5  C   UNL     1     -13.737   2.789  20.420  0.00  0.00    +0.000 A 
ATOM      6  C   UNL     1     -13.025   1.638  20.745  0.00  0.00    +0.000 A 
ATOM      7  C   UNL     1     -12.090   1.663  21.792  0.00  0.00    +0.000 A 
ATOM      8  C   UNL     1     -11.318   0.533  22.117  0.00  0.00    +0.000 A 
ATOM      9  N   UNL     1     -11.172  -0.680  21.486  0.00  0.00    +0.000 N 
ATOM     10  C   UNL     1      -9.932  -1.214  21.785  0.00  0.00    +0.000 A 
ATOM     11  C   UNL     1      -9.213  -2.196  21.068  0.00  0.00    +0.000 A 
ATOM     12  C   UNL     1      -7.911  -2.453  21.545  0.00  0.00    +0.000 A 
ATOM     13  C   UNL     1      -7.405  -1.847  22.690  0.00  0.00    +0.000 A 
ATOM     14  C   UNL     1      -8.154  -0.904  23.383  0.00  0.00    +0.000 A 
ATOM     15  C   UNL     1      -9.425  -0.538  22.900  0.00  0.00    +0.000 A 
ATOM     16  C   UNL     1     -10.378   0.471  23.114  0.00  0.00    +0.000 A 
ATOM     17  C   UNL     1     -10.007   1.662  23.806  0.00  0.00    +0.000 A 
ATOM     18  C   UNL     1     -10.613   2.830  23.243  0.00  0.00    +0.000 A 
ATOM     19  C   UNL     1     -11.824   2.836  22.531  0.00  0.00    +0.000 A 
ATOM     20  C   UNL     1     -12.840   3.812  22.443  0.00  0.00    +0.000 A 
ATOM     21  C   UNL     1      -9.431   3.640  22.939  0.00  0.00    +0.000 C 
ATOM     22  O   UNL     1      -9.137   4.348  21.981  0.00  0.00    +0.000 OA
ATOM     23  N   UNL     1      -8.483   3.184  23.844  0.00  0.00    +0.000 N 
ATOM     24  C   UNL     1      -8.795   1.986  24.456  0.00  0.00    +0.000 C 
ATOM     25  O   UNL     1      -8.095   1.485  25.333  0.00  0.00    +0.000 OA
ATOM     26  H   UNL     1     -15.354   5.695  23.346  0.00  0.00    +0.000 HD
ATOM     27  H   UNL     1     -15.012   5.556  20.652  0.00  0.00    +0.000 HD
ATOM     28  H   UNL     1     -14.452   2.788  19.602  0.00  0.00    +0.000 HD
ATOM     29  H   UNL     1     -13.207   0.738  20.167  0.00  0.00    +0.000 HD
ATOM     30  H   UNL     1     -11.719  -0.956  20.686  0.00  0.00    +0.000 HD
ATOM     31  H   UNL     1      -7.265  -3.145  21.014  0.00  0.00    +0.000 HD
ATOM     32  H   UNL     1      -6.384  -2.071  23.013  0.00  0.00    +0.000 HD
ATOM     33  H   UNL     1      -7.709  -0.440  24.249  0.00  0.00    +0.000 HD
ATOM     34  H   UNL     1      -7.505   3.403  23.702  0.00  0.00    +0.000 HD
ENDROOT
BRANCH   1  35
ATOM     35  C   UNL     1     -13.118   4.970  24.713  0.00  0.00    +0.000 C 
ATOM     36  H   UNL     1     -13.673   4.254  25.318  0.00  0.00    +0.000 HD
ATOM     37  H   UNL     1     -13.350   6.006  24.962  0.00  0.00    +0.000 HD
ATOM     38  H   UNL     1     -12.043   4.800  24.865  0.00  0.00    +0.000 HD
ENDBRANCH   1  35
BRANCH  11  39
ATOM     39  C   UNL     1      -9.794  -2.866  19.842  0.00  0.00    +0.000 C 
ATOM     40  H   UNL     1     -10.098  -2.100  19.123  0.00  0.00    +0.000 HD
ATOM     41  H   UNL     1     -10.701  -3.402  20.149  0.00  0.00    +0.000 HD
BRANCH  39  42
ATOM     42  C   UNL     1      -8.817  -3.858  19.208  0.00  0.00    +0.000 C 
ATOM     43  H   UNL     1      -7.805  -3.584  19.525  0.00  0.00    +0.000 HD
ATOM     44  H   UNL     1      -8.861  -3.708  18.123  0.00  0.00    +0.000 HD
BRANCH  42  45
ATOM     45  N   UNL     1      -9.087  -5.289  19.438  0.00  0.00    +0.000 NA
ATOM     46  C   UNL     1      -7.875  -6.133  19.432  0.00  0.00    +0.000 C 
ATOM     47  C   UNL     1      -7.173  -6.232  18.060  0.00  0.00    +0.000 C 
ATOM     48  N   UNL     1      -8.069  -6.684  16.980  0.00  0.00    +0.000 NA
ATOM     49  C   UNL     1      -9.303  -5.878  16.968  0.00  0.00    +0.000 C 
ATOM     50  C   UNL     1      -9.984  -5.775  18.357  0.00  0.00    +0.000 C 
ATOM     51  H   UNL     1      -8.171  -7.145  19.743  0.00  0.00    +0.000 HD
ATOM     52  H   UNL     1      -7.162  -5.810  20.198  0.00  0.00    +0.000 HD
ATOM     53  H   UNL     1      -6.342  -6.943  18.137  0.00  0.00    +0.000 HD
ATOM     54  H   UNL     1      -6.726  -5.267  17.790  0.00  0.00    +0.000 HD
ATOM     55  H   UNL     1      -8.333  -7.648  17.179  0.00  0.00    +0.000 HD
ATOM     56  H   UNL     1     -10.007  -6.328  16.260  0.00  0.00    +0.000 HD
ATOM     57  H   UNL     1      -9.078  -4.881  16.573  0.00  0.00    +0.000 HD
ATOM     58  H   UNL     1     -10.360  -6.765  18.643  0.00  0.00    +0.000 HD
ATOM     59  H   UNL     1     -10.870  -5.132  18.287  0.00  0.00    +0.000 HD
ENDBRANCH  42  45
ENDBRANCH  39  42
ENDBRANCH  11  39
TORSDOF 4
ENDMDL
