MODEL 1
REMARK VINA RESULT:    -9.910      0.000      0.000
REMARK INTER + INTRA:         -14.332
REMARK INTER:                 -13.386
REMARK INTRA:                  -0.946
REMARK UNBOUND:                -0.946
REMARK  Name = 
REMARK  6 active torsions:
REMARK  status: ('A' for Active; 'I' for Inactive)
REMARK    1  A    between atoms: C_2  and  C_3
REMARK    2  A    between atoms: C_10  and  N_11
REMARK    3  A    between atoms: N_11  and  C_12
REMARK    4  A    between atoms: C_12  and  C_13
REMARK    5  A    between atoms: C_20  and  N_21
REMARK    6  A    between atoms: N_21  and  C_22
REMARK                            x       y       z     vdW  Elec       q    Type
REMARK                         _______ _______ _______ _____ _____    ______ ____
ROOT
ATOM      1  C   UNL     1      -9.329  -7.179  19.048  0.00  0.00    +0.000 A 
ATOM      2  C   UNL     1      -8.937  -5.948  19.537  0.00  0.00    +0.000 A 
ATOM      3  N   UNL     1      -9.206  -4.773  18.934  0.00  0.00    +0.000 NA
ATOM      4  C   UNL     1      -9.888  -4.770  17.770  0.00  0.00    +0.000 A 
ATOM      5  C   UNL     1     -10.142  -3.561  17.109  0.00  0.00    +0.000 A 
ATOM      6 CL   UNL     1      -9.645  -2.047  17.802  0.00  0.00    +0.000 Cl
ATOM      7  C   UNL     1     -10.793  -3.506  15.874  0.00  0.00    +0.000 A 
ATOM      8  C   UNL     1     -11.248  -4.666  15.262  0.00  0.00    +0.000 A 
ATOM      9  C   UNL     1     -11.048  -5.870  15.941  0.00  0.00    +0.000 A 
ATOM     10  C   UNL     1     -10.350  -5.970  17.181  0.00  0.00    +0.000 A 
ATOM     11  C   UNL     1     -10.069  -7.212  17.852  0.00  0.00    +0.000 A 
ATOM     12  H   UNL     1      -8.378  -5.856  20.467  0.00  0.00    +0.000 HD
ATOM     13  H   UNL     1     -10.969  -2.540  15.404  0.00  0.00    +0.000 HD
ATOM     14  H   UNL     1     -11.399  -6.772  15.456  0.00  0.00    +0.000 HD
ENDROOT
BRANCH   1  16
ATOM     15  N   UNL     1      -8.753  -9.255  20.485  0.00  0.00    +0.000 NA
ATOM     16  C   UNL     1      -8.976  -8.328  19.821  0.00  0.00    +0.000 C 
ENDBRANCH   1  16
BRANCH   8  17
ATOM     17  N   UNL     1     -11.903  -4.563  14.047  0.00  0.00    +0.000 N 
ATOM     18  H   UNL     1     -12.666  -5.219  13.913  0.00  0.00    +0.000 HD
BRANCH  17  19
ATOM     19  C   UNL     1     -11.966  -3.346  13.256  0.00  0.00    +0.000 C 
ATOM     20  H   UNL     1     -11.132  -2.707  13.565  0.00  0.00    +0.000 HD
ATOM     21  H   UNL     1     -12.875  -2.791  13.514  0.00  0.00    +0.000 HD
BRANCH  19  22
ATOM     22  C   UNL     1     -11.886  -3.518  11.784  0.00  0.00    +0.000 A 
ATOM     23  C   UNL     1     -12.145  -2.634  10.756  0.00  0.00    +0.000 A 
ATOM     24  N   UNL     1     -11.957  -3.237   9.542  0.00  0.00    +0.000 NA
ATOM     25  C   UNL     1     -11.568  -4.460   9.811  0.00  0.00    +0.000 A 
ATOM     26  N   UNL     1     -11.512  -4.678  11.162  0.00  0.00    +0.000 N 
ATOM     27  H   UNL     1     -12.463  -1.605  10.827  0.00  0.00    +0.000 HD
ATOM     28  H   UNL     1     -11.320  -5.221   9.088  0.00  0.00    +0.000 HD
ATOM     29  H   UNL     1     -11.264  -5.545  11.606  0.00  0.00    +0.000 HD
ENDBRANCH  19  22
ENDBRANCH  17  19
ENDBRANCH   8  17
BRANCH  11  30
ATOM     30  N   UNL     1     -10.587  -8.435  17.330  0.00  0.00    +0.000 N 
ATOM     31  H   UNL     1     -11.526  -8.356  16.949  0.00  0.00    +0.000 HD
BRANCH  30  32
ATOM     32  C   UNL     1      -9.939  -9.492  16.651  0.00  0.00    +0.000 A 
ATOM     33  C   UNL     1      -9.553  -9.280  15.317  0.00  0.00    +0.000 A 
ATOM     34  C   UNL     1      -8.842 -10.255  14.615  0.00  0.00    +0.000 A 
ATOM     35  C   UNL     1      -8.509 -11.446  15.247  0.00  0.00    +0.000 A 
ATOM     36  F   UNL     1      -7.809 -12.364  14.565  0.00  0.00    +0.000 F 
ATOM     37  C   UNL     1      -8.881 -11.671  16.570  0.00  0.00    +0.000 A 
ATOM     38 CL   UNL     1      -8.456 -13.138  17.365  0.00  0.00    +0.000 Cl
ATOM     39  C   UNL     1      -9.589 -10.693  17.276  0.00  0.00    +0.000 A 
ATOM     40  H   UNL     1      -9.813  -8.351  14.813  0.00  0.00    +0.000 HD
ATOM     41  H   UNL     1      -8.544 -10.091  13.584  0.00  0.00    +0.000 HD
ATOM     42  H   UNL     1      -9.845 -10.870  18.316  0.00  0.00    +0.000 HD
ENDBRANCH  30  32
ENDBRANCH  11  30
TORSDOF 6
ENDMDL
MODEL 2
REMARK VINA RESULT:    -9.240      3.987      8.450
REMARK INTER + INTRA:         -13.427
REMARK INTER:                 -12.870
REMARK INTRA:                  -0.557
REMARK UNBOUND:                -0.946
REMARK  Name = 
REMARK  6 active torsions:
REMARK  status: ('A' for Active; 'I' for Inactive)
REMARK    1  A    between atoms: C_2  and  C_3
REMARK    2  A    between atoms: C_10  and  N_11
REMARK    3  A    between atoms: N_11  and  C_12
REMARK    4  A    between atoms: C_12  and  C_13
REMARK    5  A    between atoms: C_20  and  N_21
REMARK    6  A    between atoms: N_21  and  C_22
REMARK                            x       y       z     vdW  Elec       q    Type
REMARK                         _______ _______ _______ _____ _____    ______ ____
ROOT
ATOM      1  C   UNL     1      -9.765  -5.475  17.426  0.00  0.00    +0.000 A 
ATOM      2  C   UNL     1     -10.192  -5.894  16.181  0.00  0.00    +0.000 A 
ATOM      3  N   UNL     1     -10.243  -7.183  15.792  0.00  0.00    +0.000 NA
ATOM      4  C   UNL     1      -9.845  -8.147  16.648  0.00  0.00    +0.000 A 
ATOM      5  C   UNL     1      -9.855  -9.489  16.248  0.00  0.00    +0.000 A 
ATOM      6 CL   UNL     1     -10.437  -9.944  14.675  0.00  0.00    +0.000 Cl
ATOM      7  C   UNL     1      -9.399 -10.520  17.073  0.00  0.00    +0.000 A 
ATOM      8  C   UNL     1      -8.942 -10.249  18.356  0.00  0.00    +0.000 A 
ATOM      9  C   UNL     1      -8.982  -8.920  18.784  0.00  0.00    +0.000 A 
ATOM     10  C   UNL     1      -9.399  -7.837  17.954  0.00  0.00    +0.000 A 
ATOM     11  C   UNL     1      -9.370  -6.454  18.356  0.00  0.00    +0.000 A 
ATOM     12  H   UNL     1     -10.527  -5.186  15.425  0.00  0.00    +0.000 HD
ATOM     13  H   UNL     1      -9.430 -11.547  16.715  0.00  0.00    +0.000 HD
ATOM     14  H   UNL     1      -8.618  -8.713  19.782  0.00  0.00    +0.000 HD
ENDROOT
BRANCH   1  16
ATOM     15  N   UNL     1      -9.774  -2.940  17.954  0.00  0.00    +0.000 NA
ATOM     16  C   UNL     1      -9.789  -4.069  17.683  0.00  0.00    +0.000 C 
ENDBRANCH   1  16
BRANCH   8  17
ATOM     17  N   UNL     1      -8.516 -11.302  19.146  0.00  0.00    +0.000 N 
ATOM     18  H   UNL     1      -9.140 -11.550  19.907  0.00  0.00    +0.000 HD
BRANCH  17  19
ATOM     19  C   UNL     1      -7.624 -12.355  18.689  0.00  0.00    +0.000 C 
ATOM     20  H   UNL     1      -7.199 -12.838  19.576  0.00  0.00    +0.000 HD
ATOM     21  H   UNL     1      -6.775 -11.908  18.160  0.00  0.00    +0.000 HD
BRANCH  19  22
ATOM     22  C   UNL     1      -8.238 -13.411  17.846  0.00  0.00    +0.000 A 
ATOM     23  C   UNL     1      -8.277 -13.564  16.476  0.00  0.00    +0.000 A 
ATOM     24  N   UNL     1      -8.977 -14.689  16.134  0.00  0.00    +0.000 NA
ATOM     25  C   UNL     1      -9.345 -15.234  17.269  0.00  0.00    +0.000 A 
ATOM     26  N   UNL     1      -8.920 -14.491  18.339  0.00  0.00    +0.000 N 
ATOM     27  H   UNL     1      -7.847 -12.922  15.722  0.00  0.00    +0.000 HD
ATOM     28  H   UNL     1      -9.911 -16.145  17.381  0.00  0.00    +0.000 HD
ATOM     29  H   UNL     1      -9.103 -14.697  19.305  0.00  0.00    +0.000 HD
ENDBRANCH  19  22
ENDBRANCH  17  19
ENDBRANCH   8  17
BRANCH  11  30
ATOM     30  N   UNL     1      -9.003  -6.110  19.691  0.00  0.00    +0.000 N 
ATOM     31  H   UNL     1      -9.313  -6.778  20.390  0.00  0.00    +0.000 HD
BRANCH  30  32
ATOM     32  C   UNL     1      -7.839  -5.481  20.189  0.00  0.00    +0.000 A 
ATOM     33  C   UNL     1      -6.594  -5.930  19.721  0.00  0.00    +0.000 A 
ATOM     34  C   UNL     1      -5.411  -5.302  20.115  0.00  0.00    +0.000 A 
ATOM     35  C   UNL     1      -5.470  -4.215  20.978  0.00  0.00    +0.000 A 
ATOM     36  F   UNL     1      -4.327  -3.610  21.332  0.00  0.00    +0.000 F 
ATOM     37  C   UNL     1      -6.697  -3.754  21.449  0.00  0.00    +0.000 A 
ATOM     38 CL   UNL     1      -6.778  -2.396  22.505  0.00  0.00    +0.000 Cl
ATOM     39  C   UNL     1      -7.882  -4.379  21.051  0.00  0.00    +0.000 A 
ATOM     40  H   UNL     1      -6.539  -6.784  19.047  0.00  0.00    +0.000 HD
ATOM     41  H   UNL     1      -4.450  -5.650  19.752  0.00  0.00    +0.000 HD
ATOM     42  H   UNL     1      -8.832  -3.990  21.402  0.00  0.00    +0.000 HD
ENDBRANCH  30  32
ENDBRANCH  11  30
TORSDOF 6
ENDMDL
MODEL 3
REMARK VINA RESULT:    -8.995      4.207      7.218
REMARK INTER + INTRA:         -13.096
REMARK INTER:                 -11.837
REMARK INTRA:                  -1.259
REMARK UNBOUND:                -0.946
REMARK  Name = 
REMARK  6 active torsions:
REMARK  status: ('A' for Active; 'I' for Inactive)
REMARK    1  A    between atoms: C_2  and  C_3
REMARK    2  A    between atoms: C_10  and  N_11
REMARK    3  A    between atoms: N_11  and  C_12
REMARK    4  A    between atoms: C_12  and  C_13
REMARK    5  A    between atoms: C_20  and  N_21
REMARK    6  A    between atoms: N_21  and  C_22
REMARK                            x       y       z     vdW  Elec       q    Type
REMARK                         _______ _______ _______ _____ _____    ______ ____
ROOT
ATOM      1  C   UNL     1      -9.656  -7.735  17.908  0.00  0.00    +0.000 A 
ATOM      2  C   UNL     1     -10.235  -7.735  16.654  0.00  0.00    +0.000 A 
ATOM      3  N   UNL     1     -10.711  -6.635  16.040  0.00  0.00    +0.000 NA
ATOM      4  C   UNL     1     -10.645  -5.445  16.671  0.00  0.00    +0.000 A 
ATOM      5  C   UNL     1     -11.170  -4.297  16.064  0.00  0.00    +0.000 A 
ATOM      6 CL   UNL     1     -11.856  -4.370  14.469  0.00  0.00    +0.000 Cl
ATOM      7  C   UNL     1     -11.179  -3.052  16.698  0.00  0.00    +0.000 A 
ATOM      8  C   UNL     1     -10.628  -2.898  17.963  0.00  0.00    +0.000 A 
ATOM      9  C   UNL     1     -10.051  -4.026  18.552  0.00  0.00    +0.000 A 
ATOM     10  C   UNL     1     -10.062  -5.321  17.955  0.00  0.00    +0.000 A 
ATOM     11  C   UNL     1      -9.542  -6.506  18.585  0.00  0.00    +0.000 A 
ATOM     12  H   UNL     1     -10.335  -8.650  16.073  0.00  0.00    +0.000 HD
ATOM     13  H   UNL     1     -11.597  -2.191  16.181  0.00  0.00    +0.000 HD
ATOM     14  H   UNL     1      -9.629  -3.902  19.541  0.00  0.00    +0.000 HD
ENDROOT
BRANCH   1  16
ATOM     15  N   UNL     1      -8.839  -9.993  18.877  0.00  0.00    +0.000 NA
ATOM     16  C   UNL     1      -9.185  -8.988  18.409  0.00  0.00    +0.000 C 
ENDBRANCH   1  16
BRANCH   8  17
ATOM     17  N   UNL     1     -10.642  -1.644  18.546  0.00  0.00    +0.000 N 
ATOM     18  H   UNL     1     -10.306  -0.890  17.956  0.00  0.00    +0.000 HD
BRANCH  17  19
ATOM     19  C   UNL     1     -11.542  -1.255  19.620  0.00  0.00    +0.000 C 
ATOM     20  H   UNL     1     -12.496  -1.766  19.454  0.00  0.00    +0.000 HD
ATOM     21  H   UNL     1     -11.762  -0.184  19.539  0.00  0.00    +0.000 HD
BRANCH  19  22
ATOM     22  C   UNL     1     -11.091  -1.570  20.998  0.00  0.00    +0.000 A 
ATOM     23  C   UNL     1      -9.839  -1.510  21.574  0.00  0.00    +0.000 A 
ATOM     24  N   UNL     1      -9.887  -1.917  22.880  0.00  0.00    +0.000 NA
ATOM     25  C   UNL     1     -11.146  -2.202  23.114  0.00  0.00    +0.000 A 
ATOM     26  N   UNL     1     -11.916  -2.008  21.998  0.00  0.00    +0.000 N 
ATOM     27  H   UNL     1      -8.909  -1.204  21.117  0.00  0.00    +0.000 HD
ATOM     28  H   UNL     1     -11.554  -2.548  24.051  0.00  0.00    +0.000 HD
ATOM     29  H   UNL     1     -12.903  -2.183  21.930  0.00  0.00    +0.000 HD
ENDBRANCH  19  22
ENDBRANCH  17  19
ENDBRANCH   8  17
BRANCH  11  30
ATOM     30  N   UNL     1      -8.876  -6.407  19.843  0.00  0.00    +0.000 N 
ATOM     31  H   UNL     1      -8.938  -7.247  20.411  0.00  0.00    +0.000 HD
BRANCH  30  32
ATOM     32  C   UNL     1      -7.682  -5.740  20.200  0.00  0.00    +0.000 A 
ATOM     33  C   UNL     1      -6.490  -6.139  19.574  0.00  0.00    +0.000 A 
ATOM     34  C   UNL     1      -5.291  -5.471  19.826  0.00  0.00    +0.000 A 
ATOM     35  C   UNL     1      -5.279  -4.395  20.703  0.00  0.00    +0.000 A 
ATOM     36  F   UNL     1      -4.123  -3.750  20.919  0.00  0.00    +0.000 F 
ATOM     37  C   UNL     1      -6.453  -3.983  21.330  0.00  0.00    +0.000 A 
ATOM     38 CL   UNL     1      -6.449  -2.637  22.405  0.00  0.00    +0.000 Cl
ATOM     39  C   UNL     1      -7.656  -4.648  21.075  0.00  0.00    +0.000 A 
ATOM     40  H   UNL     1      -6.490  -6.984  18.888  0.00  0.00    +0.000 HD
ATOM     41  H   UNL     1      -4.370  -5.780  19.341  0.00  0.00    +0.000 HD
ATOM     42  H   UNL     1      -8.568  -4.297  21.547  0.00  0.00    +0.000 HD
ENDBRANCH  30  32
ENDBRANCH  11  30
TORSDOF 6
ENDMDL
MODEL 4
REMARK VINA RESULT:    -8.904      1.651      1.933
REMARK INTER + INTRA:         -12.972
REMARK INTER:                 -11.974
REMARK INTRA:                  -0.998
REMARK UNBOUND:                -0.946
REMARK  Name = 
REMARK  6 active torsions:
REMARK  status: ('A' for Active; 'I' for Inactive)
REMARK    1  A    between atoms: C_2  and  C_3
REMARK    2  A    between atoms: C_10  and  N_11
REMARK    3  A    between atoms: N_11  and  C_12
REMARK    4  A    between atoms: C_12  and  C_13
REMARK    5  A    between atoms: C_20  and  N_21
REMARK    6  A    between atoms: N_21  and  C_22
REMARK                            x       y       z     vdW  Elec       q    Type
REMARK                         _______ _______ _______ _____ _____    ______ ____
ROOT
ATOM      1  C   UNL     1      -9.316  -5.865  18.211  0.00  0.00    +0.000 A 
ATOM      2  C   UNL     1     -10.167  -4.904  18.721  0.00  0.00    +0.000 A 
ATOM      3  N   UNL     1     -10.956  -4.115  17.965  0.00  0.00    +0.000 NA
ATOM      4  C   UNL     1     -10.925  -4.241  16.623  0.00  0.00    +0.000 A 
ATOM      5  C   UNL     1     -11.710  -3.403  15.821  0.00  0.00    +0.000 A 
ATOM      6 CL   UNL     1     -12.781  -2.236  16.535  0.00  0.00    +0.000 Cl
ATOM      7  C   UNL     1     -11.671  -3.452  14.425  0.00  0.00    +0.000 A 
ATOM      8  C   UNL     1     -10.863  -4.373  13.771  0.00  0.00    +0.000 A 
ATOM      9  C   UNL     1     -10.119  -5.250  14.565  0.00  0.00    +0.000 A 
ATOM     10  C   UNL     1     -10.100  -5.200  15.990  0.00  0.00    +0.000 A 
ATOM     11  C   UNL     1      -9.278  -6.046  16.816  0.00  0.00    +0.000 A 
ATOM     12  H   UNL     1     -10.254  -4.729  19.791  0.00  0.00    +0.000 HD
ATOM     13  H   UNL     1     -12.304  -2.781  13.847  0.00  0.00    +0.000 HD
ATOM     14  H   UNL     1      -9.486  -5.961  14.050  0.00  0.00    +0.000 HD
ENDROOT
BRANCH   1  16
ATOM     15  N   UNL     1      -8.000  -7.246  19.963  0.00  0.00    +0.000 NA
ATOM     16  C   UNL     1      -8.559  -6.629  19.153  0.00  0.00    +0.000 C 
ENDBRANCH   1  16
BRANCH   8  17
ATOM     17  N   UNL     1     -10.869  -4.398  12.388  0.00  0.00    +0.000 N 
ATOM     18  H   UNL     1     -10.541  -5.264  11.972  0.00  0.00    +0.000 HD
BRANCH  17  19
ATOM     19  C   UNL     1     -11.754  -3.593  11.562  0.00  0.00    +0.000 C 
ATOM     20  H   UNL     1     -12.180  -2.811  12.199  0.00  0.00    +0.000 HD
ATOM     21  H   UNL     1     -12.603  -4.205  11.236  0.00  0.00    +0.000 HD
BRANCH  19  22
ATOM     22  C   UNL     1     -11.132  -2.935  10.386  0.00  0.00    +0.000 A 
ATOM     23  C   UNL     1     -11.554  -2.840   9.076  0.00  0.00    +0.000 A 
ATOM     24  N   UNL     1     -10.643  -2.150   8.324  0.00  0.00    +0.000 NA
ATOM     25  C   UNL     1      -9.688  -1.806   9.154  0.00  0.00    +0.000 A 
ATOM     26  N   UNL     1      -9.940  -2.263  10.420  0.00  0.00    +0.000 N 
ATOM     27  H   UNL     1     -12.457  -3.238   8.637  0.00  0.00    +0.000 HD
ATOM     28  H   UNL     1      -8.804  -1.239   8.904  0.00  0.00    +0.000 HD
ATOM     29  H   UNL     1      -9.340  -2.142  11.217  0.00  0.00    +0.000 HD
ENDBRANCH  19  22
ENDBRANCH  17  19
ENDBRANCH   8  17
BRANCH  11  30
ATOM     30  N   UNL     1      -8.494  -7.078  16.219  0.00  0.00    +0.000 N 
ATOM     31  H   UNL     1      -7.505  -7.024  16.440  0.00  0.00    +0.000 HD
BRANCH  30  32
ATOM     32  C   UNL     1      -8.802  -8.434  15.965  0.00  0.00    +0.000 A 
ATOM     33  C   UNL     1      -8.931  -8.842  14.627  0.00  0.00    +0.000 A 
ATOM     34  C   UNL     1      -9.159 -10.180  14.306  0.00  0.00    +0.000 A 
ATOM     35  C   UNL     1      -9.255 -11.120  15.323  0.00  0.00    +0.000 A 
ATOM     36  F   UNL     1      -9.454 -12.406  14.997  0.00  0.00    +0.000 F 
ATOM     37  C   UNL     1      -9.126 -10.734  16.655  0.00  0.00    +0.000 A 
ATOM     38 CL   UNL     1      -9.226 -11.898  17.921  0.00  0.00    +0.000 Cl
ATOM     39  C   UNL     1      -8.893  -9.394  16.978  0.00  0.00    +0.000 A 
ATOM     40  H   UNL     1      -8.861  -8.110  13.823  0.00  0.00    +0.000 HD
ATOM     41  H   UNL     1      -9.258 -10.494  13.271  0.00  0.00    +0.000 HD
ATOM     42  H   UNL     1      -8.764  -9.113  18.018  0.00  0.00    +0.000 HD
ENDBRANCH  30  32
ENDBRANCH  11  30
TORSDOF 6
ENDMDL
MODEL 5
REMARK VINA RESULT:    -8.664      4.148      6.452
REMARK INTER + INTRA:         -12.649
REMARK INTER:                 -11.348
REMARK INTRA:                  -1.301
REMARK UNBOUND:                -0.946
REMARK  Name = 
REMARK  6 active torsions:
REMARK  status: ('A' for Active; 'I' for Inactive)
REMARK    1  A    between atoms: C_2  and  C_3
REMARK    2  A    between atoms: C_10  and  N_11
REMARK    3  A    between atoms: N_11  and  C_12
REMARK    4  A    between atoms: C_12  and  C_13
REMARK    5  A    between atoms: C_20  and  N_21
REMARK    6  A    between atoms: N_21  and  C_22
REMARK                            x       y       z     vdW  Elec       q    Type
REMARK                         _______ _______ _______ _____ _____    ______ ____
ROOT
ATOM      1  C   UNL     1      -9.679  -7.552  17.787  0.00  0.00    +0.000 A 
ATOM      2  C   UNL     1     -10.206  -7.595  16.511  0.00  0.00    +0.000 A 
ATOM      3  N   UNL     1     -10.699  -6.524  15.860  0.00  0.00    +0.000 NA
ATOM      4  C   UNL     1     -10.705  -5.323  16.473  0.00  0.00    +0.000 A 
ATOM      5  C   UNL     1     -11.249  -4.206  15.826  0.00  0.00    +0.000 A 
ATOM      6 CL   UNL     1     -11.867  -4.331  14.206  0.00  0.00    +0.000 Cl
ATOM      7  C   UNL     1     -11.332  -2.953  16.437  0.00  0.00    +0.000 A 
ATOM      8  C   UNL     1     -10.839  -2.758  17.720  0.00  0.00    +0.000 A 
ATOM      9  C   UNL     1     -10.243  -3.853  18.351  0.00  0.00    +0.000 A 
ATOM     10  C   UNL     1     -10.180  -5.156  17.776  0.00  0.00    +0.000 A 
ATOM     11  C   UNL     1      -9.639  -6.310  18.447  0.00  0.00    +0.000 A 
ATOM     12  H   UNL     1     -10.247  -8.523  15.943  0.00  0.00    +0.000 HD
ATOM     13  H   UNL     1     -11.762  -2.117  15.889  0.00  0.00    +0.000 HD
ATOM     14  H   UNL     1      -9.866  -3.697  19.354  0.00  0.00    +0.000 HD
ENDROOT
BRANCH   1  16
ATOM     15  N   UNL     1      -8.817  -9.763  18.825  0.00  0.00    +0.000 NA
ATOM     16  C   UNL     1      -9.181  -8.778  18.327  0.00  0.00    +0.000 C 
ENDBRANCH   1  16
BRANCH   8  17
ATOM     17  N   UNL     1     -10.926  -1.496  18.281  0.00  0.00    +0.000 N 
ATOM     18  H   UNL     1     -11.860  -1.209  18.553  0.00  0.00    +0.000 HD
BRANCH  17  19
ATOM     19  C   UNL     1      -9.832  -0.836  18.975  0.00  0.00    +0.000 C 
ATOM     20  H   UNL     1      -9.177  -1.616  19.379  0.00  0.00    +0.000 HD
ATOM     21  H   UNL     1     -10.225  -0.300  19.846  0.00  0.00    +0.000 HD
BRANCH  19  22
ATOM     22  C   UNL     1      -8.998   0.081  18.159  0.00  0.00    +0.000 A 
ATOM     23  C   UNL     1      -8.736   0.099  16.805  0.00  0.00    +0.000 A 
ATOM     24  N   UNL     1      -7.886   1.124  16.490  0.00  0.00    +0.000 NA
ATOM     25  C   UNL     1      -7.644   1.742  17.622  0.00  0.00    +0.000 A 
ATOM     26  N   UNL     1      -8.297   1.141  18.666  0.00  0.00    +0.000 N 
ATOM     27  H   UNL     1      -9.107  -0.574  16.046  0.00  0.00    +0.000 HD
ATOM     28  H   UNL     1      -7.016   2.610  17.749  0.00  0.00    +0.000 HD
ATOM     29  H   UNL     1      -8.245   1.423  19.629  0.00  0.00    +0.000 HD
ENDBRANCH  19  22
ENDBRANCH  17  19
ENDBRANCH   8  17
BRANCH  11  30
ATOM     30  N   UNL     1      -9.029  -6.165  19.729  0.00  0.00    +0.000 N 
ATOM     31  H   UNL     1      -9.240  -6.921  20.374  0.00  0.00    +0.000 HD
BRANCH  30  32
ATOM     32  C   UNL     1      -7.772  -5.632  20.092  0.00  0.00    +0.000 A 
ATOM     33  C   UNL     1      -6.628  -6.152  19.463  0.00  0.00    +0.000 A 
ATOM     34  C   UNL     1      -5.365  -5.618  19.721  0.00  0.00    +0.000 A 
ATOM     35  C   UNL     1      -5.239  -4.557  20.607  0.00  0.00    +0.000 A 
ATOM     36  F   UNL     1      -4.021  -4.042  20.829  0.00  0.00    +0.000 F 
ATOM     37  C   UNL     1      -6.363  -4.027  21.237  0.00  0.00    +0.000 A 
ATOM     38 CL   UNL     1      -6.217  -2.698  22.324  0.00  0.00    +0.000 Cl
ATOM     39  C   UNL     1      -7.630  -4.557  20.976  0.00  0.00    +0.000 A 
ATOM     40  H   UNL     1      -6.717  -6.987  18.771  0.00  0.00    +0.000 HD
ATOM     41  H   UNL     1      -4.482  -6.021  19.235  0.00  0.00    +0.000 HD
ATOM     42  H   UNL     1      -8.500  -4.114  21.450  0.00  0.00    +0.000 HD
ENDBRANCH  30  32
ENDBRANCH  11  30
TORSDOF 6
ENDMDL
MODEL 6
REMARK VINA RESULT:    -8.656      5.071      9.323
REMARK INTER + INTRA:         -12.638
REMARK INTER:                 -11.623
REMARK INTRA:                  -1.016
REMARK UNBOUND:                -0.946
REMARK  Name = 
REMARK  6 active torsions:
REMARK  status: ('A' for Active; 'I' for Inactive)
REMARK    1  A    between atoms: C_2  and  C_3
REMARK    2  A    between atoms: C_10  and  N_11
REMARK    3  A    between atoms: N_11  and  C_12
REMARK    4  A    between atoms: C_12  and  C_13
REMARK    5  A    between atoms: C_20  and  N_21
REMARK    6  A    between atoms: N_21  and  C_22
REMARK                            x       y       z     vdW  Elec       q    Type
REMARK                         _______ _______ _______ _____ _____    ______ ____
ROOT
ATOM      1  C   UNL     1     -10.147  -0.858  19.462  0.00  0.00    +0.000 A 
ATOM      2  C   UNL     1     -11.059  -1.128  18.460  0.00  0.00    +0.000 A 
ATOM      3  N   UNL     1     -11.238  -2.344  17.907  0.00  0.00    +0.000 NA
ATOM      4  C   UNL     1     -10.483  -3.378  18.328  0.00  0.00    +0.000 A 
ATOM      5  C   UNL     1     -10.628  -4.640  17.737  0.00  0.00    +0.000 A 
ATOM      6 CL   UNL     1     -11.820  -4.912  16.503  0.00  0.00    +0.000 Cl
ATOM      7  C   UNL     1      -9.831  -5.731  18.096  0.00  0.00    +0.000 A 
ATOM      8  C   UNL     1      -8.871  -5.609  19.092  0.00  0.00    +0.000 A 
ATOM      9  C   UNL     1      -8.759  -4.369  19.725  0.00  0.00    +0.000 A 
ATOM     10  C   UNL     1      -9.523  -3.223  19.357  0.00  0.00    +0.000 A 
ATOM     11  C   UNL     1      -9.362  -1.920  19.948  0.00  0.00    +0.000 A 
ATOM     12  H   UNL     1     -11.707  -0.353  18.056  0.00  0.00    +0.000 HD
ATOM     13  H   UNL     1      -9.986  -6.691  17.608  0.00  0.00    +0.000 HD
ATOM     14  H   UNL     1      -8.005  -4.278  20.496  0.00  0.00    +0.000 HD
ENDROOT
BRANCH   1  16
ATOM     15  N   UNL     1     -10.116   1.587  20.314  0.00  0.00    +0.000 NA
ATOM     16  C   UNL     1     -10.096   0.484  19.951  0.00  0.00    +0.000 C 
ENDBRANCH   1  16
BRANCH   8  17
ATOM     17  N   UNL     1      -8.117  -6.719  19.427  0.00  0.00    +0.000 N 
ATOM     18  H   UNL     1      -7.142  -6.531  19.634  0.00  0.00    +0.000 HD
BRANCH  17  19
ATOM     19  C   UNL     1      -8.666  -7.931  20.013  0.00  0.00    +0.000 C 
ATOM     20  H   UNL     1      -9.690  -7.709  20.333  0.00  0.00    +0.000 HD
ATOM     21  H   UNL     1      -8.116  -8.174  20.929  0.00  0.00    +0.000 HD
BRANCH  19  22
ATOM     22  C   UNL     1      -8.715  -9.121  19.128  0.00  0.00    +0.000 A 
ATOM     23  C   UNL     1      -9.042  -9.242  17.794  0.00  0.00    +0.000 A 
ATOM     24  N   UNL     1      -8.969 -10.549  17.394  0.00  0.00    +0.000 NA
ATOM     25  C   UNL     1      -8.583 -11.221  18.452  0.00  0.00    +0.000 A 
ATOM     26  N   UNL     1      -8.418 -10.395  19.532  0.00  0.00    +0.000 N 
ATOM     27  H   UNL     1      -9.333  -8.462  17.106  0.00  0.00    +0.000 HD
ATOM     28  H   UNL     1      -8.411 -12.285  18.501  0.00  0.00    +0.000 HD
ATOM     29  H   UNL     1      -8.149 -10.685  20.457  0.00  0.00    +0.000 HD
ENDBRANCH  19  22
ENDBRANCH  17  19
ENDBRANCH   8  17
BRANCH  11  30
ATOM     30  N   UNL     1      -8.462  -1.742  21.041  0.00  0.00    +0.000 N 
ATOM     31  H   UNL     1      -7.720  -1.072  20.861  0.00  0.00    +0.000 HD
BRANCH  30  32
ATOM     32  C   UNL     1      -8.698  -1.753  22.435  0.00  0.00    +0.000 A 
ATOM     33  C   UNL     1      -8.824  -2.997  23.073  0.00  0.00    +0.000 A 
ATOM     34  C   UNL     1      -8.982  -3.079  24.458  0.00  0.00    +0.000 A 
ATOM     35  C   UNL     1      -9.009  -1.913  25.212  0.00  0.00    +0.000 A 
ATOM     36  F   UNL     1      -9.142  -2.009  26.543  0.00  0.00    +0.000 F 
ATOM     37  C   UNL     1      -8.882  -0.671  24.595  0.00  0.00    +0.000 A 
ATOM     38 CL   UNL     1      -8.897   0.778  25.527  0.00  0.00    +0.000 Cl
ATOM     39  C   UNL     1      -8.719  -0.588  23.209  0.00  0.00    +0.000 A 
ATOM     40  H   UNL     1      -8.808  -3.916  22.489  0.00  0.00    +0.000 HD
ATOM     41  H   UNL     1      -9.080  -4.041  24.950  0.00  0.00    +0.000 HD
ATOM     42  H   UNL     1      -8.589   0.385  22.746  0.00  0.00    +0.000 HD
ENDBRANCH  30  32
ENDBRANCH  11  30
TORSDOF 6
ENDMDL
MODEL 7
REMARK VINA RESULT:    -8.575      4.023      7.543
REMARK INTER + INTRA:         -12.528
REMARK INTER:                 -11.573
REMARK INTRA:                  -0.955
REMARK UNBOUND:                -0.946
REMARK  Name = 
REMARK  6 active torsions:
REMARK  status: ('A' for Active; 'I' for Inactive)
REMARK    1  A    between atoms: C_2  and  C_3
REMARK    2  A    between atoms: C_10  and  N_11
REMARK    3  A    between atoms: N_11  and  C_12
REMARK    4  A    between atoms: C_12  and  C_13
REMARK    5  A    between atoms: C_20  and  N_21
REMARK    6  A    between atoms: N_21  and  C_22
REMARK                            x       y       z     vdW  Elec       q    Type
REMARK                         _______ _______ _______ _____ _____    ______ ____
ROOT
ATOM      1  C   UNL     1     -10.533  -1.949  18.675  0.00  0.00    +0.000 A 
ATOM      2  C   UNL     1     -11.161  -1.677  17.476  0.00  0.00    +0.000 A 
ATOM      3  N   UNL     1     -11.347  -2.583  16.496  0.00  0.00    +0.000 NA
ATOM      4  C   UNL     1     -10.889  -3.840  16.663  0.00  0.00    +0.000 A 
ATOM      5  C   UNL     1     -11.039  -4.785  15.640  0.00  0.00    +0.000 A 
ATOM      6 CL   UNL     1     -11.870  -4.378  14.169  0.00  0.00    +0.000 Cl
ATOM      7  C   UNL     1     -10.532  -6.083  15.738  0.00  0.00    +0.000 A 
ATOM      8  C   UNL     1      -9.877  -6.501  16.889  0.00  0.00    +0.000 A 
ATOM      9  C   UNL     1      -9.773  -5.583  17.937  0.00  0.00    +0.000 A 
ATOM     10  C   UNL     1     -10.239  -4.238  17.856  0.00  0.00    +0.000 A 
ATOM     11  C   UNL     1     -10.068  -3.259  18.898  0.00  0.00    +0.000 A 
ATOM     12  H   UNL     1     -11.559  -0.689  17.252  0.00  0.00    +0.000 HD
ATOM     13  H   UNL     1     -10.678  -6.780  14.915  0.00  0.00    +0.000 HD
ATOM     14  H   UNL     1      -9.256  -5.912  18.829  0.00  0.00    +0.000 HD
ENDROOT
BRANCH   1  16
ATOM     15  N   UNL     1     -10.384  -0.050  20.429  0.00  0.00    +0.000 NA
ATOM     16  C   UNL     1     -10.433  -0.878  19.615  0.00  0.00    +0.000 C 
ENDBRANCH   1  16
BRANCH   8  17
ATOM     17  N   UNL     1      -9.406  -7.801  16.951  0.00  0.00    +0.000 N 
ATOM     18  H   UNL     1      -8.712  -7.974  17.671  0.00  0.00    +0.000 HD
BRANCH  17  19
ATOM     19  C   UNL     1     -10.158  -8.962  16.503  0.00  0.00    +0.000 C 
ATOM     20  H   UNL     1     -10.304  -8.864  15.422  0.00  0.00    +0.000 HD
ATOM     21  H   UNL     1     -11.163  -8.935  16.941  0.00  0.00    +0.000 HD
BRANCH  19  22
ATOM     22  C   UNL     1      -9.535 -10.283  16.762  0.00  0.00    +0.000 A 
ATOM     23  C   UNL     1      -9.113 -11.268  15.892  0.00  0.00    +0.000 A 
ATOM     24  N   UNL     1      -8.613 -12.339  16.581  0.00  0.00    +0.000 NA
ATOM     25  C   UNL     1      -8.703 -12.017  17.849  0.00  0.00    +0.000 A 
ATOM     26  N   UNL     1      -9.261 -10.776  18.009  0.00  0.00    +0.000 N 
ATOM     27  H   UNL     1      -9.149 -11.264  14.813  0.00  0.00    +0.000 HD
ATOM     28  H   UNL     1      -8.392 -12.627  18.683  0.00  0.00    +0.000 HD
ATOM     29  H   UNL     1      -9.451 -10.327  18.888  0.00  0.00    +0.000 HD
ENDBRANCH  19  22
ENDBRANCH  17  19
ENDBRANCH   8  17
BRANCH  11  30
ATOM     30  N   UNL     1      -9.489  -3.643  20.145  0.00  0.00    +0.000 N 
ATOM     31  H   UNL     1      -9.958  -4.424  20.594  0.00  0.00    +0.000 HD
BRANCH  30  32
ATOM     32  C   UNL     1      -8.140  -3.655  20.565  0.00  0.00    +0.000 A 
ATOM     33  C   UNL     1      -7.758  -2.767  21.583  0.00  0.00    +0.000 A 
ATOM     34  C   UNL     1      -6.460  -2.781  22.096  0.00  0.00    +0.000 A 
ATOM     35  C   UNL     1      -5.537  -3.690  21.595  0.00  0.00    +0.000 A 
ATOM     36  F   UNL     1      -4.300  -3.705  22.112  0.00  0.00    +0.000 F 
ATOM     37  C   UNL     1      -5.900  -4.581  20.588  0.00  0.00    +0.000 A 
ATOM     38 CL   UNL     1      -4.767  -5.724  19.974  0.00  0.00    +0.000 Cl
ATOM     39  C   UNL     1      -7.202  -4.571  20.077  0.00  0.00    +0.000 A 
ATOM     40  H   UNL     1      -8.473  -2.048  21.979  0.00  0.00    +0.000 HD
ATOM     41  H   UNL     1      -6.166  -2.094  22.883  0.00  0.00    +0.000 HD
ATOM     42  H   UNL     1      -7.479  -5.292  19.314  0.00  0.00    +0.000 HD
ENDBRANCH  30  32
ENDBRANCH  11  30
TORSDOF 6
ENDMDL
MODEL 8
REMARK VINA RESULT:    -8.523      5.089      8.530
REMARK INTER + INTRA:         -12.459
REMARK INTER:                 -11.421
REMARK INTRA:                  -1.037
REMARK UNBOUND:                -0.946
REMARK  Name = 
REMARK  6 active torsions:
REMARK  status: ('A' for Active; 'I' for Inactive)
REMARK    1  A    between atoms: C_2  and  C_3
REMARK    2  A    between atoms: C_10  and  N_11
REMARK    3  A    between atoms: N_11  and  C_12
REMARK    4  A    between atoms: C_12  and  C_13
REMARK    5  A    between atoms: C_20  and  N_21
REMARK    6  A    between atoms: N_21  and  C_22
REMARK                            x       y       z     vdW  Elec       q    Type
REMARK                         _______ _______ _______ _____ _____    ______ ____
ROOT
ATOM      1  C   UNL     1      -7.562  -2.372  22.166  0.00  0.00    +0.000 A 
ATOM      2  C   UNL     1      -6.248  -2.792  22.239  0.00  0.00    +0.000 A 
ATOM      3  N   UNL     1      -5.731  -3.794  21.501  0.00  0.00    +0.000 NA
ATOM      4  C   UNL     1      -6.528  -4.456  20.637  0.00  0.00    +0.000 A 
ATOM      5  C   UNL     1      -6.018  -5.526  19.891  0.00  0.00    +0.000 A 
ATOM      6 CL   UNL     1      -4.344  -5.977  20.012  0.00  0.00    +0.000 Cl
ATOM      7  C   UNL     1      -6.813  -6.282  19.026  0.00  0.00    +0.000 A 
ATOM      8  C   UNL     1      -8.155  -5.974  18.848  0.00  0.00    +0.000 A 
ATOM      9  C   UNL     1      -8.658  -4.874  19.546  0.00  0.00    +0.000 A 
ATOM     10  C   UNL     1      -7.889  -4.106  20.470  0.00  0.00    +0.000 A 
ATOM     11  C   UNL     1      -8.415  -3.020  21.254  0.00  0.00    +0.000 A 
ATOM     12  H   UNL     1      -5.535  -2.318  22.911  0.00  0.00    +0.000 HD
ATOM     13  H   UNL     1      -6.367  -7.102  18.466  0.00  0.00    +0.000 HD
ATOM     14  H   UNL     1      -9.707  -4.642  19.409  0.00  0.00    +0.000 HD
ENDROOT
BRANCH   1  16
ATOM     15  N   UNL     1      -8.189  -0.367  23.680  0.00  0.00    +0.000 NA
ATOM     16  C   UNL     1      -7.944  -1.282  23.007  0.00  0.00    +0.000 C 
ENDBRANCH   1  16
BRANCH   8  17
ATOM     17  N   UNL     1      -8.902  -6.738  17.969  0.00  0.00    +0.000 N 
ATOM     18  H   UNL     1      -8.526  -6.804  17.028  0.00  0.00    +0.000 HD
BRANCH  17  19
ATOM     19  C   UNL     1      -9.784  -7.819  18.375  0.00  0.00    +0.000 C 
ATOM     20  H   UNL     1     -10.731  -7.693  17.839  0.00  0.00    +0.000 HD
ATOM     21  H   UNL     1     -10.029  -7.708  19.438  0.00  0.00    +0.000 HD
BRANCH  19  22
ATOM     22  C   UNL     1      -9.295  -9.196  18.116  0.00  0.00    +0.000 A 
ATOM     23  C   UNL     1      -9.205  -9.917  16.944  0.00  0.00    +0.000 A 
ATOM     24  N   UNL     1      -8.707 -11.169  17.182  0.00  0.00    +0.000 NA
ATOM     25  C   UNL     1      -8.473 -11.215  18.472  0.00  0.00    +0.000 A 
ATOM     26  N   UNL     1      -8.817 -10.038  19.083  0.00  0.00    +0.000 N 
ATOM     27  H   UNL     1      -9.479  -9.604  15.947  0.00  0.00    +0.000 HD
ATOM     28  H   UNL     1      -8.065 -12.055  19.013  0.00  0.00    +0.000 HD
ATOM     29  H   UNL     1      -8.749  -9.847  20.068  0.00  0.00    +0.000 HD
ENDBRANCH  19  22
ENDBRANCH  17  19
ENDBRANCH   8  17
BRANCH  11  30
ATOM     30  N   UNL     1      -9.760  -2.587  21.055  0.00  0.00    +0.000 N 
ATOM     31  H   UNL     1     -10.272  -2.420  21.916  0.00  0.00    +0.000 HD
BRANCH  30  32
ATOM     32  C   UNL     1     -10.318  -1.753  20.059  0.00  0.00    +0.000 A 
ATOM     33  C   UNL     1     -10.077  -0.372  20.144  0.00  0.00    +0.000 A 
ATOM     34  C   UNL     1     -10.535   0.497  19.152  0.00  0.00    +0.000 A 
ATOM     35  C   UNL     1     -11.234  -0.014  18.066  0.00  0.00    +0.000 A 
ATOM     36  F   UNL     1     -11.650   0.831  17.111  0.00  0.00    +0.000 F 
ATOM     37  C   UNL     1     -11.478  -1.381  17.964  0.00  0.00    +0.000 A 
ATOM     38 CL   UNL     1     -12.328  -2.023  16.610  0.00  0.00    +0.000 Cl
ATOM     39  C   UNL     1     -11.016  -2.253  18.954  0.00  0.00    +0.000 A 
ATOM     40  H   UNL     1      -9.534   0.037  20.994  0.00  0.00    +0.000 HD
ATOM     41  H   UNL     1     -10.349   1.564  19.219  0.00  0.00    +0.000 HD
ATOM     42  H   UNL     1     -11.186  -3.319  18.846  0.00  0.00    +0.000 HD
ENDBRANCH  30  32
ENDBRANCH  11  30
TORSDOF 6
ENDMDL
MODEL 9
REMARK VINA RESULT:    -8.434      3.714      7.648
REMARK INTER + INTRA:         -12.338
REMARK INTER:                 -11.213
REMARK INTRA:                  -1.125
REMARK UNBOUND:                -0.946
REMARK  Name = 
REMARK  6 active torsions:
REMARK  status: ('A' for Active; 'I' for Inactive)
REMARK    1  A    between atoms: C_2  and  C_3
REMARK    2  A    between atoms: C_10  and  N_11
REMARK    3  A    between atoms: N_11  and  C_12
REMARK    4  A    between atoms: C_12  and  C_13
REMARK    5  A    between atoms: C_20  and  N_21
REMARK    6  A    between atoms: N_21  and  C_22
REMARK                            x       y       z     vdW  Elec       q    Type
REMARK                         _______ _______ _______ _____ _____    ______ ____
ROOT
ATOM      1  C   UNL     1     -11.219  -2.995  15.746  0.00  0.00    +0.000 A 
ATOM      2  C   UNL     1     -10.826  -1.676  15.631  0.00  0.00    +0.000 A 
ATOM      3  N   UNL     1     -10.690  -0.833  16.674  0.00  0.00    +0.000 NA
ATOM      4  C   UNL     1     -10.960  -1.275  17.919  0.00  0.00    +0.000 A 
ATOM      5  C   UNL     1     -10.862  -0.402  19.011  0.00  0.00    +0.000 A 
ATOM      6 CL   UNL     1     -10.329   1.238  18.793  0.00  0.00    +0.000 Cl
ATOM      7  C   UNL     1     -11.186  -0.792  20.313  0.00  0.00    +0.000 A 
ATOM      8  C   UNL     1     -11.594  -2.092  20.581  0.00  0.00    +0.000 A 
ATOM      9  C   UNL     1     -11.641  -2.983  19.507  0.00  0.00    +0.000 A 
ATOM     10  C   UNL     1     -11.360  -2.611  18.160  0.00  0.00    +0.000 A 
ATOM     11  C   UNL     1     -11.481  -3.500  17.033  0.00  0.00    +0.000 A 
ATOM     12  H   UNL     1     -10.592  -1.233  14.665  0.00  0.00    +0.000 HD
ATOM     13  H   UNL     1     -11.089  -0.076  21.127  0.00  0.00    +0.000 HD
ATOM     14  H   UNL     1     -11.967  -3.994  19.721  0.00  0.00    +0.000 HD
ENDROOT
BRANCH   1  16
ATOM     15  N   UNL     1     -11.347  -4.317  13.523  0.00  0.00    +0.000 NA
ATOM     16  C   UNL     1     -11.298  -3.758  14.540  0.00  0.00    +0.000 C 
ENDBRANCH   1  16
BRANCH   8  17
ATOM     17  N   UNL     1     -11.889  -2.439  21.888  0.00  0.00    +0.000 N 
ATOM     18  H   UNL     1     -12.087  -3.423  22.037  0.00  0.00    +0.000 HD
BRANCH  17  19
ATOM     19  C   UNL     1     -11.425  -1.702  23.051  0.00  0.00    +0.000 C 
ATOM     20  H   UNL     1     -12.269  -1.614  23.745  0.00  0.00    +0.000 HD
ATOM     21  H   UNL     1     -11.177  -0.675  22.756  0.00  0.00    +0.000 HD
BRANCH  19  22
ATOM     22  C   UNL     1     -10.286  -2.297  23.793  0.00  0.00    +0.000 A 
ATOM     23  C   UNL     1      -9.888  -2.151  25.105  0.00  0.00    +0.000 A 
ATOM     24  N   UNL     1      -8.756  -2.881  25.351  0.00  0.00    +0.000 NA
ATOM     25  C   UNL     1      -8.472  -3.483  24.221  0.00  0.00    +0.000 A 
ATOM     26  N   UNL     1      -9.374  -3.157  23.243  0.00  0.00    +0.000 N 
ATOM     27  H   UNL     1     -10.349  -1.556  25.879  0.00  0.00    +0.000 HD
ATOM     28  H   UNL     1      -7.644  -4.152  24.050  0.00  0.00    +0.000 HD
ATOM     29  H   UNL     1      -9.347  -3.478  22.291  0.00  0.00    +0.000 HD
ENDBRANCH  19  22
ENDBRANCH  17  19
ENDBRANCH   8  17
BRANCH  11  30
ATOM     30  N   UNL     1     -11.804  -4.873  17.244  0.00  0.00    +0.000 N 
ATOM     31  H   UNL     1     -12.661  -5.171  16.788  0.00  0.00    +0.000 HD
BRANCH  30  32
ATOM     32  C   UNL     1     -10.966  -6.006  17.357  0.00  0.00    +0.000 A 
ATOM     33  C   UNL     1     -10.074  -6.062  18.440  0.00  0.00    +0.000 A 
ATOM     34  C   UNL     1      -9.274  -7.185  18.652  0.00  0.00    +0.000 A 
ATOM     35  C   UNL     1      -9.366  -8.263  17.781  0.00  0.00    +0.000 A 
ATOM     36  F   UNL     1      -8.605  -9.344  18.010  0.00  0.00    +0.000 F 
ATOM     37  C   UNL     1     -10.248  -8.227  16.704  0.00  0.00    +0.000 A 
ATOM     38 CL   UNL     1     -10.381  -9.568  15.632  0.00  0.00    +0.000 Cl
ATOM     39  C   UNL     1     -11.054  -7.104  16.494  0.00  0.00    +0.000 A 
ATOM     40  H   UNL     1      -9.992  -5.219  19.125  0.00  0.00    +0.000 HD
ATOM     41  H   UNL     1      -8.584  -7.227  19.489  0.00  0.00    +0.000 HD
ATOM     42  H   UNL     1     -11.759  -7.102  15.669  0.00  0.00    +0.000 HD
ENDBRANCH  30  32
ENDBRANCH  11  30
TORSDOF 6
ENDMDL
