
 OpenBabel01112422443D

 54 57  0  0  0  0  0  0  0  0999 V2000
    8.5672   -2.6050   -2.2843 N   0  0  0  0  0  0  0  0  0  0  0  0
    7.8380   -3.8568   -2.1205 C   0  0  0  0  0  0  0  0  0  0  0  0
    7.8000   -4.2867   -0.6567 C   0  0  0  0  0  0  0  0  0  0  0  0
    7.1113   -3.2470    0.2271 C   0  0  0  0  0  0  0  0  0  0  0  0
    7.0531   -3.6414    1.6271 N   0  0  0  0  0  0  0  0  0  0  0  0
    8.1659   -3.8510    2.3972 C   0  0  0  0  0  0  0  0  0  0  0  0
    7.7440   -4.1214    3.6756 C   0  0  0  0  0  0  0  0  0  0  0  0
    6.3142   -4.0618    3.7054 C   0  0  0  0  0  0  0  0  0  0  0  0
    5.3299   -4.2133    4.7288 C   0  0  0  0  0  0  0  0  0  0  0  0
    5.7228   -4.4730    6.1291 C   0  0  0  0  0  0  0  0  0  0  0  0
    4.9757   -4.0618    7.2109 C   0  0  0  0  0  0  0  0  0  0  0  0
    5.4451   -4.4139    8.4536 C   0  0  0  0  0  0  0  0  0  0  0  0
    6.5904   -5.0949    8.6531 N   0  0  0  0  0  0  0  0  0  0  0  0
    7.2707   -5.4476    7.5561 C   0  0  0  0  0  0  0  0  0  0  0  0
    8.4818   -6.1242    7.7430 N   0  0  0  0  0  0  0  0  0  0  0  0
    9.0320   -7.1176    6.9079 C   0  0  0  0  0  0  0  0  0  0  0  0
    8.2430   -7.8484    6.0068 C   0  0  0  0  0  0  0  0  0  0  0  0
    8.7900   -8.8692    5.2359 C   0  0  0  0  0  0  0  0  0  0  0  0
   10.1404   -9.1700    5.3546 C   0  0  0  0  0  0  0  0  0  0  0  0
   10.9574   -8.4350    6.2163 C   0  0  0  0  0  0  0  0  0  0  0  0
   12.2591   -8.8394    6.2198 O   0  0  0  0  0  0  0  0  0  0  0  0
   13.2703   -7.8890    6.5624 C   0  0  0  0  0  0  0  0  0  0  0  0
   12.9656   -6.6792    6.0213 F   0  0  0  0  0  0  0  0  0  0  0  0
   13.3041   -7.7441    7.9098 F   0  0  0  0  0  0  0  0  0  0  0  0
   14.6125   -8.3717    6.0085 C   0  0  0  0  0  0  0  0  0  0  0  0
   15.6130   -7.4921    6.2761 F   0  0  0  0  0  0  0  0  0  0  0  0
   14.9856   -9.5566    6.5658 F   0  0  0  0  0  0  0  0  0  0  0  0
   10.4017   -7.4210    7.0019 C   0  0  0  0  0  0  0  0  0  0  0  0
    6.8609   -5.1676    6.3125 N   0  0  0  0  0  0  0  0  0  0  0  0
    3.9740   -4.1105    4.3433 C   0  0  0  0  0  0  0  0  0  0  0  0
    3.5975   -3.8407    3.0311 C   0  0  0  0  0  0  0  0  0  0  0  0
    4.5557   -3.6637    2.0383 C   0  0  0  0  0  0  0  0  0  0  0  0
    5.9084   -3.7782    2.3907 C   0  0  0  0  0  0  0  0  0  0  0  0
    8.6290   -2.3710   -3.2741 H   0  0  0  0  0  0  0  0  0  0  0  0
    9.5272   -2.7165   -1.9589 H   0  0  0  0  0  0  0  0  0  0  0  0
    8.3215   -4.6371   -2.7178 H   0  0  0  0  0  0  0  0  0  0  0  0
    6.8185   -3.7336   -2.5014 H   0  0  0  0  0  0  0  0  0  0  0  0
    8.8233   -4.4711   -0.3069 H   0  0  0  0  0  0  0  0  0  0  0  0
    7.2708   -5.2451   -0.5779 H   0  0  0  0  0  0  0  0  0  0  0  0
    6.0935   -3.0698   -0.1321 H   0  0  0  0  0  0  0  0  0  0  0  0
    7.6375   -2.2850    0.2078 H   0  0  0  0  0  0  0  0  0  0  0  0
    9.1630   -3.7888    1.9855 H   0  0  0  0  0  0  0  0  0  0  0  0
    8.4002   -4.3364    4.5092 H   0  0  0  0  0  0  0  0  0  0  0  0
    4.0629   -3.4843    7.1077 H   0  0  0  0  0  0  0  0  0  0  0  0
    4.8992   -4.1503    9.3518 H   0  0  0  0  0  0  0  0  0  0  0  0
    8.5739   -6.3261    8.7300 H   0  0  0  0  0  0  0  0  0  0  0  0
    7.1804   -7.6416    5.9044 H   0  0  0  0  0  0  0  0  0  0  0  0
    8.1586   -9.4278    4.5509 H   0  0  0  0  0  0  0  0  0  0  0  0
   10.5614   -9.9762    4.7599 H   0  0  0  0  0  0  0  0  0  0  0  0
   14.5601   -8.5138    4.9240 H   0  0  0  0  0  0  0  0  0  0  0  0
   11.0175   -6.8445    7.6874 H   0  0  0  0  0  0  0  0  0  0  0  0
    3.1864   -4.2557    5.0759 H   0  0  0  0  0  0  0  0  0  0  0  0
    2.5426   -3.7687    2.7782 H   0  0  0  0  0  0  0  0  0  0  0  0
    4.2457   -3.4474    1.0220 H   0  0  0  0  0  0  0  0  0  0  0  0
  1  2  1  0  0  0  0
  1 34  1  0  0  0  0
  1 35  1  0  0  0  0
  2  3  1  0  0  0  0
  2 36  1  0  0  0  0
  2 37  1  0  0  0  0
  3  4  1  0  0  0  0
  3 38  1  0  0  0  0
  3 39  1  0  0  0  0
  4  5  1  0  0  0  0
  4 40  1  0  0  0  0
  4 41  1  0  0  0  0
  5  6  1  0  0  0  0
  5 33  1  0  0  0  0
  6  7  2  0  0  0  0
  6 42  1  0  0  0  0
  7  8  1  0  0  0  0
  7 43  1  0  0  0  0
  8  9  1  0  0  0  0
  8 33  2  0  0  0  0
  9 10  1  0  0  0  0
  9 30  2  0  0  0  0
 10 11  1  0  0  0  0
 10 29  2  0  0  0  0
 11 12  2  0  0  0  0
 11 44  1  0  0  0  0
 12 13  1  0  0  0  0
 12 45  1  0  0  0  0
 13 14  2  0  0  0  0
 14 15  1  0  0  0  0
 14 29  1  0  0  0  0
 15 16  1  0  0  0  0
 15 46  1  0  0  0  0
 16 17  1  0  0  0  0
 16 28  2  0  0  0  0
 17 18  2  0  0  0  0
 17 47  1  0  0  0  0
 18 19  1  0  0  0  0
 18 48  1  0  0  0  0
 19 20  2  0  0  0  0
 19 49  1  0  0  0  0
 20 21  1  0  0  0  0
 20 28  1  0  0  0  0
 21 22  1  0  0  0  0
 22 23  1  0  0  0  0
 22 24  1  0  0  0  0
 22 25  1  0  0  0  0
 25 26  1  0  0  0  0
 25 27  1  0  0  0  0
 25 50  1  0  0  0  0
 28 51  1  0  0  0  0
 30 31  1  0  0  0  0
 30 52  1  0  0  0  0
 31 32  2  0  0  0  0
 31 53  1  0  0  0  0
 32 33  1  0  0  0  0
 32 54  1  0  0  0  0
M  END
$$$$
