MODEL 1
REMARK VINA RESULT:    -8.914      0.000      0.000
REMARK INTER + INTRA:         -11.680
REMARK INTER:                 -11.259
REMARK INTRA:                  -0.422
REMARK UNBOUND:                -0.422
REMARK  Name = 
REMARK  6 active torsions:
REMARK  status: ('A' for Active; 'I' for Inactive)
REMARK    1  A    between atoms: C_1  and  O_2
REMARK    2  A    between atoms: O_2  and  C_3
REMARK    3  A    between atoms: N_17  and  C_18
REMARK    4  A    between atoms: N_21  and  C_22
REMARK    5  A    between atoms: C_22  and  C_23
REMARK    6  A    between atoms: C_23  and  O_24
REMARK                            x       y       z     vdW  Elec       q    Type
REMARK                         _______ _______ _______ _____ _____    ______ ____
ROOT
ATOM      1  C   UNL     1      -9.121  -6.887  16.311  0.00  0.00    +0.000 A 
ATOM      2  C   UNL     1     -10.237  -6.064  16.268  0.00  0.00    +0.000 A 
ATOM      3  C   UNL     1     -10.423  -5.075  17.238  0.00  0.00    +0.000 A 
ATOM      4  C   UNL     1      -9.455  -4.883  18.247  0.00  0.00    +0.000 A 
ATOM      5  C   UNL     1      -9.200  -3.960  19.252  0.00  0.00    +0.000 A 
ATOM      6  C   UNL     1     -10.063  -2.893  19.591  0.00  0.00    +0.000 A 
ATOM      7  C   UNL     1      -9.500  -1.851  20.349  0.00  0.00    +0.000 A 
ATOM      8  C   UNL     1      -8.417  -2.025  21.209  0.00  0.00    +0.000 A 
ATOM      9  C   UNL     1      -7.716  -3.282  21.041  0.00  0.00    +0.000 A 
ATOM     10  C   UNL     1      -6.957  -3.764  22.100  0.00  0.00    +0.000 A 
ATOM     11  C   UNL     1      -7.271  -3.327  23.383  0.00  0.00    +0.000 A 
ATOM     12  C   UNL     1      -8.330  -2.416  23.521  0.00  0.00    +0.000 A 
ATOM     13  C   UNL     1      -9.797  -2.565  23.623  0.00  0.00    +0.000 A 
ATOM     14  C   UNL     1     -10.328  -1.290  23.458  0.00  0.00    +0.000 A 
ATOM     15  N   UNL     1      -9.178  -0.520  23.275  0.00  0.00    +0.000 N 
ATOM     16  C   UNL     1      -8.368  -1.414  22.517  0.00  0.00    +0.000 A 
ATOM     17  C   UNL     1      -8.033  -4.150  19.953  0.00  0.00    +0.000 A 
ATOM     18  N   UNL     1      -7.585  -5.386  19.453  0.00  0.00    +0.000 N 
ATOM     19  C   UNL     1      -8.353  -5.758  18.328  0.00  0.00    +0.000 A 
ATOM     20  C   UNL     1      -8.201  -6.788  17.366  0.00  0.00    +0.000 A 
ATOM     21  C   UNL     1     -10.483  -0.797  20.329  0.00  0.00    +0.000 C 
ATOM     22  O   UNL     1     -10.400   0.383  20.132  0.00  0.00    +0.000 OA
ATOM     23  N   UNL     1     -11.663  -1.521  20.270  0.00  0.00    +0.000 N 
ATOM     24  C   UNL     1     -11.476  -2.677  19.534  0.00  0.00    +0.000 C 
ATOM     25  O   UNL     1     -12.413  -3.352  19.127  0.00  0.00    +0.000 OA
ATOM     26  H   UNL     1     -10.984  -6.173  15.493  0.00  0.00    +0.000 HD
ATOM     27  H   UNL     1     -11.294  -4.429  17.165  0.00  0.00    +0.000 HD
ATOM     28  H   UNL     1      -6.258  -4.579  22.024  0.00  0.00    +0.000 HD
ATOM     29  H   UNL     1      -6.730  -3.688  24.245  0.00  0.00    +0.000 HD
ATOM     30  H   UNL     1     -10.363  -3.484  23.664  0.00  0.00    +0.000 HD
ATOM     31  H   UNL     1     -11.309  -0.828  23.472  0.00  0.00    +0.000 HD
ATOM     32  H   UNL     1      -7.373  -7.487  17.382  0.00  0.00    +0.000 HD
ATOM     33  H   UNL     1     -11.876  -1.829  21.214  0.00  0.00    +0.000 HD
ENDROOT
BRANCH  15  34
ATOM     34  C   UNL     1      -8.696   0.166  24.499  0.00  0.00    +0.000 C 
ATOM     35  H   UNL     1      -7.621  -0.001  24.585  0.00  0.00    +0.000 HD
ATOM     36  H   UNL     1      -9.243  -0.187  25.374  0.00  0.00    +0.000 HD
ATOM     37  H   UNL     1      -8.862   1.251  24.380  0.00  0.00    +0.000 HD
ENDBRANCH  15  34
BRANCH  18  38
ATOM     38  C   UNL     1      -6.396  -6.087  19.930  0.00  0.00    +0.000 C 
ATOM     39  H   UNL     1      -6.609  -7.159  19.884  0.00  0.00    +0.000 HD
ATOM     40  H   UNL     1      -6.267  -5.854  20.993  0.00  0.00    +0.000 HD
BRANCH  38  41
ATOM     41  C   UNL     1      -5.059  -5.830  19.228  0.00  0.00    +0.000 C 
ATOM     42  H   UNL     1      -5.158  -5.814  18.137  0.00  0.00    +0.000 HD
ATOM     43  H   UNL     1      -4.304  -6.579  19.497  0.00  0.00    +0.000 HD
BRANCH  41  44
ATOM     44  O   UNL     1      -4.525  -4.565  19.633  0.00  0.00    +0.000 OA
ATOM     45  H   UNL     1      -4.325  -4.612  20.585  0.00  0.00    +0.000 HD
ENDBRANCH  41  44
ENDBRANCH  38  41
ENDBRANCH  18  38
BRANCH   1  46
ATOM     46  O   UNL     1      -8.852  -7.855  15.376  0.00  0.00    +0.000 OA
BRANCH  46  47
ATOM     47  C   UNL     1      -9.455  -9.119  15.648  0.00  0.00    +0.000 C 
ATOM     48  H   UNL     1      -8.906  -9.583  16.473  0.00  0.00    +0.000 HD
ATOM     49  H   UNL     1      -9.387  -9.784  14.779  0.00  0.00    +0.000 HD
ATOM     50  H   UNL     1     -10.492  -9.007  15.972  0.00  0.00    +0.000 HD
ENDBRANCH  46  47
ENDBRANCH   1  46
TORSDOF 6
ENDMDL
MODEL 2
REMARK VINA RESULT:    -8.516      3.004      5.895
REMARK INTER + INTRA:         -11.178
REMARK INTER:                 -11.215
REMARK INTRA:                   0.036
REMARK UNBOUND:                -0.422
REMARK  Name = 
REMARK  6 active torsions:
REMARK  status: ('A' for Active; 'I' for Inactive)
REMARK    1  A    between atoms: C_1  and  O_2
REMARK    2  A    between atoms: O_2  and  C_3
REMARK    3  A    between atoms: N_17  and  C_18
REMARK    4  A    between atoms: N_21  and  C_22
REMARK    5  A    between atoms: C_22  and  C_23
REMARK    6  A    between atoms: C_23  and  O_24
REMARK                            x       y       z     vdW  Elec       q    Type
REMARK                         _______ _______ _______ _____ _____    ______ ____
ROOT
ATOM      1  C   UNL     1      -8.416 -10.114  19.182  0.00  0.00    +0.000 A 
ATOM      2  C   UNL     1      -8.071  -9.102  20.066  0.00  0.00    +0.000 A 
ATOM      3  C   UNL     1      -8.471  -7.785  19.823  0.00  0.00    +0.000 A 
ATOM      4  C   UNL     1      -9.263  -7.482  18.694  0.00  0.00    +0.000 A 
ATOM      5  C   UNL     1      -9.960  -6.387  18.203  0.00  0.00    +0.000 A 
ATOM      6  C   UNL     1      -9.933  -5.100  18.785  0.00  0.00    +0.000 A 
ATOM      7  C   UNL     1     -10.964  -4.221  18.405  0.00  0.00    +0.000 A 
ATOM      8  C   UNL     1     -11.627  -4.298  17.182  0.00  0.00    +0.000 A 
ATOM      9  C   UNL     1     -11.395  -5.529  16.452  0.00  0.00    +0.000 A 
ATOM     10  C   UNL     1     -11.597  -5.532  15.077  0.00  0.00    +0.000 A 
ATOM     11  C   UNL     1     -11.527  -4.318  14.402  0.00  0.00    +0.000 A 
ATOM     12  C   UNL     1     -11.267  -3.165  15.159  0.00  0.00    +0.000 A 
ATOM     13  C   UNL     1     -10.029  -2.527  15.654  0.00  0.00    +0.000 A 
ATOM     14  C   UNL     1     -10.430  -1.568  16.578  0.00  0.00    +0.000 A 
ATOM     15  N   UNL     1     -11.818  -1.712  16.559  0.00  0.00    +0.000 N 
ATOM     16  C   UNL     1     -11.945  -3.123  16.404  0.00  0.00    +0.000 A 
ATOM     17  C   UNL     1     -10.690  -6.611  17.060  0.00  0.00    +0.000 A 
ATOM     18  N   UNL     1     -10.301  -7.917  16.710  0.00  0.00    +0.000 N 
ATOM     19  C   UNL     1      -9.561  -8.497  17.764  0.00  0.00    +0.000 A 
ATOM     20  C   UNL     1      -9.108  -9.820  17.996  0.00  0.00    +0.000 A 
ATOM     21  C   UNL     1     -10.864  -3.108  19.316  0.00  0.00    +0.000 C 
ATOM     22  O   UNL     1     -11.685  -2.511  19.955  0.00  0.00    +0.000 OA
ATOM     23  N   UNL     1      -9.501  -3.070  19.558  0.00  0.00    +0.000 N 
ATOM     24  C   UNL     1      -8.978  -4.350  19.543  0.00  0.00    +0.000 C 
ATOM     25  O   UNL     1      -7.861  -4.606  19.973  0.00  0.00    +0.000 OA
ATOM     26  H   UNL     1      -7.485  -9.308  20.952  0.00  0.00    +0.000 HD
ATOM     27  H   UNL     1      -8.207  -7.018  20.546  0.00  0.00    +0.000 HD
ATOM     28  H   UNL     1     -11.633  -6.421  14.472  0.00  0.00    +0.000 HD
ATOM     29  H   UNL     1     -11.652  -4.265  13.330  0.00  0.00    +0.000 HD
ATOM     30  H   UNL     1      -9.010  -2.832  15.463  0.00  0.00    +0.000 HD
ATOM     31  H   UNL     1      -9.959  -0.814  17.199  0.00  0.00    +0.000 HD
ATOM     32  H   UNL     1      -9.310 -10.637  17.314  0.00  0.00    +0.000 HD
ATOM     33  H   UNL     1      -9.069  -2.589  18.775  0.00  0.00    +0.000 HD
ENDROOT
BRANCH  15  34
ATOM     34  C   UNL     1     -12.526  -0.737  15.692  0.00  0.00    +0.000 C 
ATOM     35  H   UNL     1     -11.792  -0.029  15.304  0.00  0.00    +0.000 HD
ATOM     36  H   UNL     1     -13.326  -0.246  16.246  0.00  0.00    +0.000 HD
ATOM     37  H   UNL     1     -12.958  -1.282  14.835  0.00  0.00    +0.000 HD
ENDBRANCH  15  34
BRANCH  18  38
ATOM     38  C   UNL     1     -10.745  -8.615  15.508  0.00  0.00    +0.000 C 
ATOM     39  H   UNL     1     -10.984  -7.856  14.758  0.00  0.00    +0.000 HD
ATOM     40  H   UNL     1     -11.693  -9.117  15.736  0.00  0.00    +0.000 HD
BRANCH  38  41
ATOM     41  C   UNL     1      -9.810  -9.647  14.868  0.00  0.00    +0.000 C 
ATOM     42  H   UNL     1     -10.331 -10.576  14.608  0.00  0.00    +0.000 HD
ATOM     43  H   UNL     1      -8.964  -9.894  15.519  0.00  0.00    +0.000 HD
BRANCH  41  44
ATOM     44  O   UNL     1      -9.243  -9.117  13.664  0.00  0.00    +0.000 OA
ATOM     45  H   UNL     1      -9.926  -9.147  12.970  0.00  0.00    +0.000 HD
ENDBRANCH  41  44
ENDBRANCH  38  41
ENDBRANCH  18  38
BRANCH   1  46
ATOM     46  O   UNL     1      -8.091 -11.434  19.369  0.00  0.00    +0.000 OA
BRANCH  46  47
ATOM     47  C   UNL     1      -8.442 -12.286  18.280  0.00  0.00    +0.000 C 
ATOM     48  H   UNL     1      -9.135 -11.738  17.634  0.00  0.00    +0.000 HD
ATOM     49  H   UNL     1      -8.952 -13.189  18.635  0.00  0.00    +0.000 HD
ATOM     50  H   UNL     1      -7.570 -12.543  17.675  0.00  0.00    +0.000 HD
ENDBRANCH  46  47
ENDBRANCH   1  46
TORSDOF 6
ENDMDL
MODEL 3
REMARK VINA RESULT:    -7.462      2.399      4.752
REMARK INTER + INTRA:          -9.847
REMARK INTER:                  -9.509
REMARK INTRA:                  -0.338
REMARK UNBOUND:                -0.422
REMARK  Name = 
REMARK  6 active torsions:
REMARK  status: ('A' for Active; 'I' for Inactive)
REMARK    1  A    between atoms: C_1  and  O_2
REMARK    2  A    between atoms: O_2  and  C_3
REMARK    3  A    between atoms: N_17  and  C_18
REMARK    4  A    between atoms: N_21  and  C_22
REMARK    5  A    between atoms: C_22  and  C_23
REMARK    6  A    between atoms: C_23  and  O_24
REMARK                            x       y       z     vdW  Elec       q    Type
REMARK                         _______ _______ _______ _____ _____    ______ ____
ROOT
ATOM      1  C   UNL     1      -9.480  -8.334  16.957  0.00  0.00    +0.000 A 
ATOM      2  C   UNL     1      -8.850  -8.000  18.147  0.00  0.00    +0.000 A 
ATOM      3  C   UNL     1      -8.907  -6.692  18.634  0.00  0.00    +0.000 A 
ATOM      4  C   UNL     1      -9.639  -5.708  17.935  0.00  0.00    +0.000 A 
ATOM      5  C   UNL     1     -10.050  -4.400  18.150  0.00  0.00    +0.000 A 
ATOM      6  C   UNL     1      -9.669  -3.619  19.264  0.00  0.00    +0.000 A 
ATOM      7  C   UNL     1     -10.453  -2.480  19.526  0.00  0.00    +0.000 A 
ATOM      8  C   UNL     1     -11.163  -1.793  18.542  0.00  0.00    +0.000 A 
ATOM      9  C   UNL     1     -11.285  -2.505  17.285  0.00  0.00    +0.000 A 
ATOM     10  C   UNL     1     -11.537  -1.773  16.132  0.00  0.00    +0.000 A 
ATOM     11  C   UNL     1     -11.184  -0.428  16.119  0.00  0.00    +0.000 A 
ATOM     12  C   UNL     1     -10.606   0.105  17.281  0.00  0.00    +0.000 A 
ATOM     13  C   UNL     1      -9.226   0.140  17.810  0.00  0.00    +0.000 A 
ATOM     14  C   UNL     1      -9.329   0.560  19.132  0.00  0.00    +0.000 A 
ATOM     15  N   UNL     1     -10.707   0.730  19.274  0.00  0.00    +0.000 N 
ATOM     16  C   UNL     1     -11.199  -0.350  18.486  0.00  0.00    +0.000 A 
ATOM     17  C   UNL     1     -10.859  -3.863  17.176  0.00  0.00    +0.000 A 
ATOM     18  N   UNL     1     -10.834  -4.861  16.186  0.00  0.00    +0.000 N 
ATOM     19  C   UNL     1     -10.226  -6.030  16.695  0.00  0.00    +0.000 A 
ATOM     20  C   UNL     1     -10.120  -7.350  16.188  0.00  0.00    +0.000 A 
ATOM     21  C   UNL     1     -10.033  -2.026  20.827  0.00  0.00    +0.000 C 
ATOM     22  O   UNL     1     -10.646  -1.680  21.799  0.00  0.00    +0.000 OA
ATOM     23  N   UNL     1      -8.698  -2.391  20.831  0.00  0.00    +0.000 N 
ATOM     24  C   UNL     1      -8.523  -3.565  20.119  0.00  0.00    +0.000 C 
ATOM     25  O   UNL     1      -7.493  -4.223  20.184  0.00  0.00    +0.000 OA
ATOM     26  H   UNL     1      -8.301  -8.739  18.717  0.00  0.00    +0.000 HD
ATOM     27  H   UNL     1      -8.425  -6.466  19.581  0.00  0.00    +0.000 HD
ATOM     28  H   UNL     1     -11.826  -2.207  15.190  0.00  0.00    +0.000 HD
ATOM     29  H   UNL     1     -11.335   0.182  15.240  0.00  0.00    +0.000 HD
ATOM     30  H   UNL     1      -8.329  -0.226  17.332  0.00  0.00    +0.000 HD
ATOM     31  H   UNL     1      -8.654   0.784  19.951  0.00  0.00    +0.000 HD
ATOM     32  H   UNL     1     -10.554  -7.650  15.242  0.00  0.00    +0.000 HD
ATOM     33  H   UNL     1      -8.188  -1.681  20.315  0.00  0.00    +0.000 HD
ENDROOT
BRANCH  15  34
ATOM     34  C   UNL     1     -11.174   2.129  19.109  0.00  0.00    +0.000 C 
ATOM     35  H   UNL     1     -10.844   2.487  18.132  0.00  0.00    +0.000 HD
ATOM     36  H   UNL     1     -10.808   2.752  19.925  0.00  0.00    +0.000 HD
ATOM     37  H   UNL     1     -12.278   2.132  19.116  0.00  0.00    +0.000 HD
ENDBRANCH  15  34
BRANCH  18  38
ATOM     38  C   UNL     1     -11.492  -4.752  14.887  0.00  0.00    +0.000 C 
ATOM     39  H   UNL     1     -12.365  -4.105  15.017  0.00  0.00    +0.000 HD
ATOM     40  H   UNL     1     -11.888  -5.739  14.622  0.00  0.00    +0.000 HD
BRANCH  38  41
ATOM     41  C   UNL     1     -10.682  -4.234  13.693  0.00  0.00    +0.000 C 
ATOM     42  H   UNL     1     -10.228  -3.257  13.891  0.00  0.00    +0.000 HD
ATOM     43  H   UNL     1     -11.293  -4.155  12.787  0.00  0.00    +0.000 HD
BRANCH  41  44
ATOM     44  O   UNL     1      -9.625  -5.149  13.382  0.00  0.00    +0.000 OA
ATOM     45  H   UNL     1      -9.686  -5.370  12.436  0.00  0.00    +0.000 HD
ENDBRANCH  41  44
ENDBRANCH  38  41
ENDBRANCH  18  38
BRANCH   1  46
ATOM     46  O   UNL     1      -9.498  -9.603  16.433  0.00  0.00    +0.000 OA
BRANCH  46  47
ATOM     47  C   UNL     1      -9.196 -10.631  17.375  0.00  0.00    +0.000 C 
ATOM     48  H   UNL     1     -10.068 -11.289  17.446  0.00  0.00    +0.000 HD
ATOM     49  H   UNL     1      -9.006 -10.211  18.370  0.00  0.00    +0.000 HD
ATOM     50  H   UNL     1      -8.354 -11.244  17.043  0.00  0.00    +0.000 HD
ENDBRANCH  46  47
ENDBRANCH   1  46
TORSDOF 6
ENDMDL
MODEL 4
REMARK VINA RESULT:    -7.421      1.218      1.332
REMARK INTER + INTRA:          -9.795
REMARK INTER:                  -9.424
REMARK INTRA:                  -0.371
REMARK UNBOUND:                -0.422
REMARK  Name = 
REMARK  6 active torsions:
REMARK  status: ('A' for Active; 'I' for Inactive)
REMARK    1  A    between atoms: C_1  and  O_2
REMARK    2  A    between atoms: O_2  and  C_3
REMARK    3  A    between atoms: N_17  and  C_18
REMARK    4  A    between atoms: N_21  and  C_22
REMARK    5  A    between atoms: C_22  and  C_23
REMARK    6  A    between atoms: C_23  and  O_24
REMARK                            x       y       z     vdW  Elec       q    Type
REMARK                         _______ _______ _______ _____ _____    ______ ____
ROOT
ATOM      1  C   UNL     1      -9.167  -7.694  16.213  0.00  0.00    +0.000 A 
ATOM      2  C   UNL     1     -10.183  -6.850  15.789  0.00  0.00    +0.000 A 
ATOM      3  C   UNL     1     -10.477  -5.685  16.504  0.00  0.00    +0.000 A 
ATOM      4  C   UNL     1      -9.716  -5.341  17.642  0.00  0.00    +0.000 A 
ATOM      5  C   UNL     1      -9.593  -4.253  18.494  0.00  0.00    +0.000 A 
ATOM      6  C   UNL     1     -10.418  -3.107  18.446  0.00  0.00    +0.000 A 
ATOM      7  C   UNL     1      -9.935  -1.961  19.104  0.00  0.00    +0.000 A 
ATOM      8  C   UNL     1      -9.061  -2.010  20.189  0.00  0.00    +0.000 A 
ATOM      9  C   UNL     1      -8.443  -3.304  20.402  0.00  0.00    +0.000 A 
ATOM     10  C   UNL     1      -7.950  -3.603  21.666  0.00  0.00    +0.000 A 
ATOM     11  C   UNL     1      -8.476  -2.914  22.754  0.00  0.00    +0.000 A 
ATOM     12  C   UNL     1      -9.465  -1.951  22.500  0.00  0.00    +0.000 A 
ATOM     13  C   UNL     1     -10.930  -2.017  22.317  0.00  0.00    +0.000 A 
ATOM     14  C   UNL     1     -11.315  -0.777  21.817  0.00  0.00    +0.000 A 
ATOM     15  N   UNL     1     -10.094  -0.105  21.743  0.00  0.00    +0.000 N 
ATOM     16  C   UNL     1      -9.224  -1.161  21.346  0.00  0.00    +0.000 A 
ATOM     17  C   UNL     1      -8.607  -4.352  19.447  0.00  0.00    +0.000 A 
ATOM     18  N   UNL     1      -8.168  -5.679  19.283  0.00  0.00    +0.000 N 
ATOM     19  C   UNL     1      -8.726  -6.229  18.108  0.00  0.00    +0.000 A 
ATOM     20  C   UNL     1      -8.469  -7.431  17.402  0.00  0.00    +0.000 A 
ATOM     21  C   UNL     1     -10.807  -0.892  18.689  0.00  0.00    +0.000 C 
ATOM     22  O   UNL     1     -10.592   0.223  18.304  0.00  0.00    +0.000 OA
ATOM     23  N   UNL     1     -12.006  -1.564  18.516  0.00  0.00    +0.000 N 
ATOM     24  C   UNL     1     -11.770  -2.848  18.056  0.00  0.00    +0.000 C 
ATOM     25  O   UNL     1     -12.658  -3.550  17.591  0.00  0.00    +0.000 OA
ATOM     26  H   UNL     1     -10.768  -7.075  14.907  0.00  0.00    +0.000 HD
ATOM     27  H   UNL     1     -11.262  -5.031  16.134  0.00  0.00    +0.000 HD
ATOM     28  H   UNL     1      -7.317  -4.445  21.887  0.00  0.00    +0.000 HD
ATOM     29  H   UNL     1      -8.147  -3.123  23.761  0.00  0.00    +0.000 HD
ATOM     30  H   UNL     1     -11.565  -2.886  22.404  0.00  0.00    +0.000 HD
ATOM     31  H   UNL     1     -12.239  -0.281  21.542  0.00  0.00    +0.000 HD
ATOM     32  H   UNL     1      -7.719  -8.147  17.717  0.00  0.00    +0.000 HD
ATOM     33  H   UNL     1     -12.426  -1.676  19.433  0.00  0.00    +0.000 HD
ENDROOT
BRANCH  15  34
ATOM     34  C   UNL     1      -9.811   0.785  22.897  0.00  0.00    +0.000 C 
ATOM     35  H   UNL     1     -10.555   1.584  22.904  0.00  0.00    +0.000 HD
ATOM     36  H   UNL     1      -8.791   1.167  22.841  0.00  0.00    +0.000 HD
ATOM     37  H   UNL     1      -9.931   0.201  23.825  0.00  0.00    +0.000 HD
ENDBRANCH  15  34
BRANCH  18  38
ATOM     38  C   UNL     1      -7.158  -6.322  20.117  0.00  0.00    +0.000 C 
ATOM     39  H   UNL     1      -7.227  -7.400  19.942  0.00  0.00    +0.000 HD
ATOM     40  H   UNL     1      -7.437  -6.172  21.167  0.00  0.00    +0.000 HD
BRANCH  38  41
ATOM     41  C   UNL     1      -5.693  -5.901  19.957  0.00  0.00    +0.000 C 
ATOM     42  H   UNL     1      -4.998  -6.677  20.297  0.00  0.00    +0.000 HD
ATOM     43  H   UNL     1      -5.471  -4.974  20.497  0.00  0.00    +0.000 HD
BRANCH  41  44
ATOM     44  O   UNL     1      -5.406  -5.637  18.578  0.00  0.00    +0.000 OA
ATOM     45  H   UNL     1      -5.808  -6.346  18.045  0.00  0.00    +0.000 HD
ENDBRANCH  41  44
ENDBRANCH  38  41
ENDBRANCH  18  38
BRANCH   1  46
ATOM     46  O   UNL     1      -8.796  -8.835  15.546  0.00  0.00    +0.000 OA
BRANCH  46  47
ATOM     47  C   UNL     1      -9.355 -10.035  16.077  0.00  0.00    +0.000 C 
ATOM     48  H   UNL     1     -10.432 -10.018  15.882  0.00  0.00    +0.000 HD
ATOM     49  H   UNL     1      -9.210 -10.090  17.163  0.00  0.00    +0.000 HD
ATOM     50  H   UNL     1      -8.950 -10.920  15.584  0.00  0.00    +0.000 HD
ENDBRANCH  46  47
ENDBRANCH   1  46
TORSDOF 6
ENDMDL
MODEL 5
REMARK VINA RESULT:    -7.210      2.923      6.686
REMARK INTER + INTRA:          -9.529
REMARK INTER:                  -9.152
REMARK INTRA:                  -0.376
REMARK UNBOUND:                -0.422
REMARK  Name = 
REMARK  6 active torsions:
REMARK  status: ('A' for Active; 'I' for Inactive)
REMARK    1  A    between atoms: C_1  and  O_2
REMARK    2  A    between atoms: O_2  and  C_3
REMARK    3  A    between atoms: N_17  and  C_18
REMARK    4  A    between atoms: N_21  and  C_22
REMARK    5  A    between atoms: C_22  and  C_23
REMARK    6  A    between atoms: C_23  and  O_24
REMARK                            x       y       z     vdW  Elec       q    Type
REMARK                         _______ _______ _______ _____ _____    ______ ____
ROOT
ATOM      1  C   UNL     1      -7.940  -3.407  22.123  0.00  0.00    +0.000 A 
ATOM      2  C   UNL     1      -8.496  -2.171  21.827  0.00  0.00    +0.000 A 
ATOM      3  C   UNL     1      -9.098  -1.945  20.586  0.00  0.00    +0.000 A 
ATOM      4  C   UNL     1      -9.178  -2.988  19.639  0.00  0.00    +0.000 A 
ATOM      5  C   UNL     1      -9.798  -3.209  18.416  0.00  0.00    +0.000 A 
ATOM      6  C   UNL     1     -10.521  -2.227  17.702  0.00  0.00    +0.000 A 
ATOM      7  C   UNL     1     -11.387  -2.696  16.698  0.00  0.00    +0.000 A 
ATOM      8  C   UNL     1     -11.192  -3.895  16.014  0.00  0.00    +0.000 A 
ATOM      9  C   UNL     1     -10.209  -4.774  16.615  0.00  0.00    +0.000 A 
ATOM     10  C   UNL     1      -9.602  -5.734  15.815  0.00  0.00    +0.000 A 
ATOM     11  C   UNL     1      -9.571  -5.519  14.442  0.00  0.00    +0.000 A 
ATOM     12  C   UNL     1     -10.167  -4.346  13.952  0.00  0.00    +0.000 A 
ATOM     13  C   UNL     1      -9.701  -2.952  13.798  0.00  0.00    +0.000 A 
ATOM     14  C   UNL     1     -10.833  -2.193  13.519  0.00  0.00    +0.000 A 
ATOM     15  N   UNL     1     -11.839  -3.161  13.533  0.00  0.00    +0.000 N 
ATOM     16  C   UNL     1     -11.390  -4.008  14.587  0.00  0.00    +0.000 A 
ATOM     17  C   UNL     1      -9.652  -4.472  17.894  0.00  0.00    +0.000 A 
ATOM     18  N   UNL     1      -8.734  -5.057  18.785  0.00  0.00    +0.000 N 
ATOM     19  C   UNL     1      -8.560  -4.225  19.913  0.00  0.00    +0.000 A 
ATOM     20  C   UNL     1      -7.910  -4.425  21.156  0.00  0.00    +0.000 A 
ATOM     21  C   UNL     1     -12.178  -1.553  16.318  0.00  0.00    +0.000 C 
ATOM     22  O   UNL     1     -13.355  -1.407  16.142  0.00  0.00    +0.000 OA
ATOM     23  N   UNL     1     -11.280  -0.517  16.516  0.00  0.00    +0.000 N 
ATOM     24  C   UNL     1     -10.453  -0.802  17.588  0.00  0.00    +0.000 C 
ATOM     25  O   UNL     1      -9.751   0.049  18.118  0.00  0.00    +0.000 OA
ATOM     26  H   UNL     1      -8.470  -1.359  22.542  0.00  0.00    +0.000 HD
ATOM     27  H   UNL     1      -9.546  -0.974  20.392  0.00  0.00    +0.000 HD
ATOM     28  H   UNL     1      -9.004  -6.547  16.191  0.00  0.00    +0.000 HD
ATOM     29  H   UNL     1      -9.091  -6.220  13.775  0.00  0.00    +0.000 HD
ATOM     30  H   UNL     1      -8.715  -2.562  14.005  0.00  0.00    +0.000 HD
ATOM     31  H   UNL     1     -11.061  -1.158  13.292  0.00  0.00    +0.000 HD
ATOM     32  H   UNL     1      -7.420  -5.356  21.419  0.00  0.00    +0.000 HD
ATOM     33  H   UNL     1     -10.672  -0.483  15.704  0.00  0.00    +0.000 HD
ENDROOT
BRANCH  15  34
ATOM     34  C   UNL     1     -12.219  -3.672  12.193  0.00  0.00    +0.000 C 
ATOM     35  H   UNL     1     -13.077  -3.098  11.838  0.00  0.00    +0.000 HD
ATOM     36  H   UNL     1     -12.426  -4.742  12.238  0.00  0.00    +0.000 HD
ATOM     37  H   UNL     1     -11.380  -3.493  11.499  0.00  0.00    +0.000 HD
ENDBRANCH  15  34
BRANCH  18  38
ATOM     38  C   UNL     1      -8.180  -6.399  18.636  0.00  0.00    +0.000 C 
ATOM     39  H   UNL     1      -7.245  -6.432  19.203  0.00  0.00    +0.000 HD
ATOM     40  H   UNL     1      -7.897  -6.536  17.586  0.00  0.00    +0.000 HD
BRANCH  38  41
ATOM     41  C   UNL     1      -9.037  -7.600  19.052  0.00  0.00    +0.000 C 
ATOM     42  H   UNL     1      -8.864  -8.475  18.415  0.00  0.00    +0.000 HD
ATOM     43  H   UNL     1     -10.108  -7.365  19.035  0.00  0.00    +0.000 HD
BRANCH  41  44
ATOM     44  O   UNL     1      -8.734  -7.977  20.400  0.00  0.00    +0.000 OA
ATOM     45  H   UNL     1      -7.872  -8.429  20.400  0.00  0.00    +0.000 HD
ENDBRANCH  41  44
ENDBRANCH  38  41
ENDBRANCH  18  38
BRANCH   1  46
ATOM     46  O   UNL     1      -7.364  -3.715  23.329  0.00  0.00    +0.000 OA
BRANCH  46  47
ATOM     47  C   UNL     1      -8.255  -3.645  24.441  0.00  0.00    +0.000 C 
ATOM     48  H   UNL     1      -9.278  -3.672  24.054  0.00  0.00    +0.000 HD
ATOM     49  H   UNL     1      -8.126  -2.706  24.991  0.00  0.00    +0.000 HD
ATOM     50  H   UNL     1      -8.138  -4.505  25.105  0.00  0.00    +0.000 HD
ENDBRANCH  46  47
ENDBRANCH   1  46
TORSDOF 6
ENDMDL
MODEL 6
REMARK VINA RESULT:    -6.918      2.133      3.026
REMARK INTER + INTRA:          -9.159
REMARK INTER:                  -8.756
REMARK INTRA:                  -0.403
REMARK UNBOUND:                -0.422
REMARK  Name = 
REMARK  6 active torsions:
REMARK  status: ('A' for Active; 'I' for Inactive)
REMARK    1  A    between atoms: C_1  and  O_2
REMARK    2  A    between atoms: O_2  and  C_3
REMARK    3  A    between atoms: N_17  and  C_18
REMARK    4  A    between atoms: N_21  and  C_22
REMARK    5  A    between atoms: C_22  and  C_23
REMARK    6  A    between atoms: C_23  and  O_24
REMARK                            x       y       z     vdW  Elec       q    Type
REMARK                         _______ _______ _______ _____ _____    ______ ____
ROOT
ATOM      1  C   UNL     1      -8.815  -6.981  18.119  0.00  0.00    +0.000 A 
ATOM      2  C   UNL     1      -9.694  -6.452  17.185  0.00  0.00    +0.000 A 
ATOM      3  C   UNL     1     -10.146  -5.135  17.307  0.00  0.00    +0.000 A 
ATOM      4  C   UNL     1      -9.680  -4.322  18.362  0.00  0.00    +0.000 A 
ATOM      5  C   UNL     1      -9.760  -2.986  18.730  0.00  0.00    +0.000 A 
ATOM      6  C   UNL     1     -10.542  -2.020  18.057  0.00  0.00    +0.000 A 
ATOM      7  C   UNL     1     -10.226  -0.673  18.311  0.00  0.00    +0.000 A 
ATOM      8  C   UNL     1      -9.640  -0.231  19.496  0.00  0.00    +0.000 A 
ATOM      9  C   UNL     1      -9.099  -1.289  20.326  0.00  0.00    +0.000 A 
ATOM     10  C   UNL     1      -8.928  -1.044  21.683  0.00  0.00    +0.000 A 
ATOM     11  C   UNL     1      -9.697  -0.045  22.271  0.00  0.00    +0.000 A 
ATOM     12  C   UNL     1     -10.590   0.659  21.448  0.00  0.00    +0.000 A 
ATOM     13  C   UNL     1     -11.968   0.400  20.981  0.00  0.00    +0.000 A 
ATOM     14  C   UNL     1     -12.213   1.320  19.967  0.00  0.00    +0.000 A 
ATOM     15  N   UNL     1     -11.007   2.020  19.915  0.00  0.00    +0.000 N 
ATOM     16  C   UNL     1     -10.072   0.974  20.165  0.00  0.00    +0.000 A 
ATOM     17  C   UNL     1      -9.033  -2.630  19.842  0.00  0.00    +0.000 A 
ATOM     18  N   UNL     1      -8.576  -3.876  20.308  0.00  0.00    +0.000 N 
ATOM     19  C   UNL     1      -8.837  -4.876  19.345  0.00  0.00    +0.000 A 
ATOM     20  C   UNL     1      -8.424  -6.228  19.237  0.00  0.00    +0.000 A 
ATOM     21  C   UNL     1     -10.966   0.078  17.329  0.00  0.00    +0.000 C 
ATOM     22  O   UNL     1     -10.658   0.981  16.601  0.00  0.00    +0.000 OA
ATOM     23  N   UNL     1     -12.091  -0.712  17.165  0.00  0.00    +0.000 N 
ATOM     24  C   UNL     1     -11.759  -2.048  17.305  0.00  0.00    +0.000 C 
ATOM     25  O   UNL     1     -12.512  -2.949  16.961  0.00  0.00    +0.000 OA
ATOM     26  H   UNL     1     -10.050  -7.044  16.353  0.00  0.00    +0.000 HD
ATOM     27  H   UNL     1     -10.815  -4.740  16.546  0.00  0.00    +0.000 HD
ATOM     28  H   UNL     1      -8.372  -1.681  22.349  0.00  0.00    +0.000 HD
ATOM     29  H   UNL     1      -9.622   0.171  23.326  0.00  0.00    +0.000 HD
ATOM     30  H   UNL     1     -12.610  -0.425  21.253  0.00  0.00    +0.000 HD
ATOM     31  H   UNL     1     -13.041   1.591  19.321  0.00  0.00    +0.000 HD
ATOM     32  H   UNL     1      -7.776  -6.703  19.965  0.00  0.00    +0.000 HD
ATOM     33  H   UNL     1     -12.721  -0.506  17.934  0.00  0.00    +0.000 HD
ENDROOT
BRANCH  15  34
ATOM     34  C   UNL     1     -11.006   3.300  20.665  0.00  0.00    +0.000 C 
ATOM     35  H   UNL     1     -11.967   3.401  21.172  0.00  0.00    +0.000 HD
ATOM     36  H   UNL     1     -10.800   4.135  19.994  0.00  0.00    +0.000 HD
ATOM     37  H   UNL     1     -10.219   3.252  21.437  0.00  0.00    +0.000 HD
ENDBRANCH  15  34
BRANCH  18  38
ATOM     38  C   UNL     1      -7.801  -4.065  21.530  0.00  0.00    +0.000 C 
ATOM     39  H   UNL     1      -8.066  -5.046  21.937  0.00  0.00    +0.000 HD
ATOM     40  H   UNL     1      -8.145  -3.333  22.269  0.00  0.00    +0.000 HD
BRANCH  38  41
ATOM     41  C   UNL     1      -6.273  -3.972  21.455  0.00  0.00    +0.000 C 
ATOM     42  H   UNL     1      -5.894  -4.162  20.444  0.00  0.00    +0.000 HD
ATOM     43  H   UNL     1      -5.785  -4.669  22.145  0.00  0.00    +0.000 HD
BRANCH  41  44
ATOM     44  O   UNL     1      -5.841  -2.662  21.841  0.00  0.00    +0.000 OA
ATOM     45  H   UNL     1      -6.135  -2.034  21.158  0.00  0.00    +0.000 HD
ENDBRANCH  41  44
ENDBRANCH  38  41
ENDBRANCH  18  38
BRANCH   1  46
ATOM     46  O   UNL     1      -8.301  -8.251  18.048  0.00  0.00    +0.000 OA
BRANCH  46  47
ATOM     47  C   UNL     1      -9.254  -9.252  17.695  0.00  0.00    +0.000 C 
ATOM     48  H   UNL     1     -10.253  -8.846  17.881  0.00  0.00    +0.000 HD
ATOM     49  H   UNL     1      -9.132 -10.148  18.316  0.00  0.00    +0.000 HD
ATOM     50  H   UNL     1      -9.198  -9.503  16.634  0.00  0.00    +0.000 HD
ENDBRANCH  46  47
ENDBRANCH   1  46
TORSDOF 6
ENDMDL
MODEL 7
REMARK VINA RESULT:    -6.864      2.590      7.212
REMARK INTER + INTRA:          -9.091
REMARK INTER:                  -8.660
REMARK INTRA:                  -0.431
REMARK UNBOUND:                -0.422
REMARK  Name = 
REMARK  6 active torsions:
REMARK  status: ('A' for Active; 'I' for Inactive)
REMARK    1  A    between atoms: C_1  and  O_2
REMARK    2  A    between atoms: O_2  and  C_3
REMARK    3  A    between atoms: N_17  and  C_18
REMARK    4  A    between atoms: N_21  and  C_22
REMARK    5  A    between atoms: C_22  and  C_23
REMARK    6  A    between atoms: C_23  and  O_24
REMARK                            x       y       z     vdW  Elec       q    Type
REMARK                         _______ _______ _______ _____ _____    ______ ____
ROOT
ATOM      1  C   UNL     1     -10.858   0.933  19.089  0.00  0.00    +0.000 A 
ATOM      2  C   UNL     1      -9.897   0.506  19.995  0.00  0.00    +0.000 A 
ATOM      3  C   UNL     1      -9.480  -0.828  20.007  0.00  0.00    +0.000 A 
ATOM      4  C   UNL     1     -10.009  -1.743  19.071  0.00  0.00    +0.000 A 
ATOM      5  C   UNL     1      -9.760  -3.048  18.671  0.00  0.00    +0.000 A 
ATOM      6  C   UNL     1      -8.829  -3.908  19.295  0.00  0.00    +0.000 A 
ATOM      7  C   UNL     1      -8.426  -5.035  18.555  0.00  0.00    +0.000 A 
ATOM      8  C   UNL     1      -9.219  -5.638  17.580  0.00  0.00    +0.000 A 
ATOM      9  C   UNL     1     -10.359  -4.845  17.163  0.00  0.00    +0.000 A 
ATOM     10  C   UNL     1     -11.440  -5.496  16.581  0.00  0.00    +0.000 A 
ATOM     11  C   UNL     1     -11.616  -6.849  16.855  0.00  0.00    +0.000 A 
ATOM     12  C   UNL     1     -10.679  -7.471  17.694  0.00  0.00    +0.000 A 
ATOM     13  C   UNL     1     -10.539  -7.582  19.161  0.00  0.00    +0.000 A 
ATOM     14  C   UNL     1      -9.261  -8.080  19.392  0.00  0.00    +0.000 A 
ATOM     15  N   UNL     1      -8.765  -8.215  18.094  0.00  0.00    +0.000 N 
ATOM     16  C   UNL     1      -9.337  -7.073  17.463  0.00  0.00    +0.000 A 
ATOM     17  C   UNL     1     -10.508  -3.498  17.609  0.00  0.00    +0.000 A 
ATOM     18  N   UNL     1     -11.417  -2.441  17.418  0.00  0.00    +0.000 N 
ATOM     19  C   UNL     1     -11.029  -1.326  18.193  0.00  0.00    +0.000 A 
ATOM     20  C   UNL     1     -11.477   0.018  18.223  0.00  0.00    +0.000 A 
ATOM     21  C   UNL     1      -7.309  -5.583  19.282  0.00  0.00    +0.000 C 
ATOM     22  O   UNL     1      -6.228  -5.969  18.933  0.00  0.00    +0.000 OA
ATOM     23  N   UNL     1      -7.642  -5.261  20.587  0.00  0.00    +0.000 N 
ATOM     24  C   UNL     1      -8.314  -4.051  20.622  0.00  0.00    +0.000 C 
ATOM     25  O   UNL     1      -8.492  -3.431  21.663  0.00  0.00    +0.000 OA
ATOM     26  H   UNL     1      -9.457   1.190  20.709  0.00  0.00    +0.000 HD
ATOM     27  H   UNL     1      -8.709  -1.127  20.711  0.00  0.00    +0.000 HD
ATOM     28  H   UNL     1     -12.248  -4.997  16.075  0.00  0.00    +0.000 HD
ATOM     29  H   UNL     1     -12.452  -7.398  16.449  0.00  0.00    +0.000 HD
ATOM     30  H   UNL     1     -11.219  -7.215  19.916  0.00  0.00    +0.000 HD
ATOM     31  H   UNL     1      -8.664  -8.375  20.248  0.00  0.00    +0.000 HD
ATOM     32  H   UNL     1     -12.257   0.391  17.569  0.00  0.00    +0.000 HD
ATOM     33  H   UNL     1      -8.311  -5.953  20.909  0.00  0.00    +0.000 HD
ENDROOT
BRANCH  15  34
ATOM     34  C   UNL     1      -8.871  -9.585  17.535  0.00  0.00    +0.000 C 
ATOM     35  H   UNL     1      -8.017 -10.166  17.886  0.00  0.00    +0.000 HD
ATOM     36  H   UNL     1      -8.930  -9.548  16.447  0.00  0.00    +0.000 HD
ATOM     37  H   UNL     1      -9.787 -10.055  17.933  0.00  0.00    +0.000 HD
ENDBRANCH  15  34
BRANCH  18  38
ATOM     38  C   UNL     1     -12.497  -2.450  16.436  0.00  0.00    +0.000 C 
ATOM     39  H   UNL     1     -13.340  -1.905  16.873  0.00  0.00    +0.000 HD
ATOM     40  H   UNL     1     -12.841  -3.484  16.317  0.00  0.00    +0.000 HD
BRANCH  38  41
ATOM     41  C   UNL     1     -12.228  -1.880  15.039  0.00  0.00    +0.000 C 
ATOM     42  H   UNL     1     -11.663  -0.942  15.075  0.00  0.00    +0.000 HD
ATOM     43  H   UNL     1     -13.155  -1.707  14.481  0.00  0.00    +0.000 HD
BRANCH  41  44
ATOM     44  O   UNL     1     -11.467  -2.815  14.266  0.00  0.00    +0.000 OA
ATOM     45  H   UNL     1     -11.957  -3.657  14.242  0.00  0.00    +0.000 HD
ENDBRANCH  41  44
ENDBRANCH  38  41
ENDBRANCH  18  38
BRANCH   1  46
ATOM     46  O   UNL     1     -11.292   2.231  18.993  0.00  0.00    +0.000 OA
BRANCH  46  47
ATOM     47  C   UNL     1     -12.704   2.390  19.118  0.00  0.00    +0.000 C 
ATOM     48  H   UNL     1     -13.150   1.392  19.177  0.00  0.00    +0.000 HD
ATOM     49  H   UNL     1     -13.123   2.897  18.241  0.00  0.00    +0.000 HD
ATOM     50  H   UNL     1     -12.969   2.917  20.037  0.00  0.00    +0.000 HD
ENDBRANCH  46  47
ENDBRANCH   1  46
TORSDOF 6
ENDMDL
MODEL 8
REMARK VINA RESULT:    -6.848      2.459      6.731
REMARK INTER + INTRA:          -9.071
REMARK INTER:                  -8.676
REMARK INTRA:                  -0.396
REMARK UNBOUND:                -0.422
REMARK  Name = 
REMARK  6 active torsions:
REMARK  status: ('A' for Active; 'I' for Inactive)
REMARK    1  A    between atoms: C_1  and  O_2
REMARK    2  A    between atoms: O_2  and  C_3
REMARK    3  A    between atoms: N_17  and  C_18
REMARK    4  A    between atoms: N_21  and  C_22
REMARK    5  A    between atoms: C_22  and  C_23
REMARK    6  A    between atoms: C_23  and  O_24
REMARK                            x       y       z     vdW  Elec       q    Type
REMARK                         _______ _______ _______ _____ _____    ______ ____
ROOT
ATOM      1  C   UNL     1     -10.235   1.216  19.101  0.00  0.00    +0.000 A 
ATOM      2  C   UNL     1     -10.727   0.884  17.847  0.00  0.00    +0.000 A 
ATOM      3  C   UNL     1     -10.650  -0.433  17.384  0.00  0.00    +0.000 A 
ATOM      4  C   UNL     1     -10.104  -1.441  18.206  0.00  0.00    +0.000 A 
ATOM      5  C   UNL     1      -9.991  -2.824  18.183  0.00  0.00    +0.000 A 
ATOM      6  C   UNL     1     -10.382  -3.637  17.096  0.00  0.00    +0.000 A 
ATOM      7  C   UNL     1     -10.556  -5.006  17.369  0.00  0.00    +0.000 A 
ATOM      8  C   UNL     1      -9.886  -5.676  18.391  0.00  0.00    +0.000 A 
ATOM      9  C   UNL     1      -9.229  -4.806  19.347  0.00  0.00    +0.000 A 
ATOM     10  C   UNL     1      -8.181  -5.322  20.099  0.00  0.00    +0.000 A 
ATOM     11  C   UNL     1      -7.494  -6.423  19.599  0.00  0.00    +0.000 A 
ATOM     12  C   UNL     1      -7.915  -6.950  18.368  0.00  0.00    +0.000 A 
ATOM     13  C   UNL     1      -7.626  -6.608  16.960  0.00  0.00    +0.000 A 
ATOM     14  C   UNL     1      -8.556  -7.304  16.193  0.00  0.00    +0.000 A 
ATOM     15  N   UNL     1      -9.293  -7.972  17.172  0.00  0.00    +0.000 N 
ATOM     16  C   UNL     1      -9.324  -6.994  18.207  0.00  0.00    +0.000 A 
ATOM     17  C   UNL     1      -9.435  -3.395  19.304  0.00  0.00    +0.000 A 
ATOM     18  N   UNL     1      -9.019  -2.267  20.035  0.00  0.00    +0.000 N 
ATOM     19  C   UNL     1      -9.548  -1.094  19.454  0.00  0.00    +0.000 A 
ATOM     20  C   UNL     1      -9.588   0.253  19.891  0.00  0.00    +0.000 A 
ATOM     21  C   UNL     1     -11.195  -5.546  16.196  0.00  0.00    +0.000 C 
ATOM     22  O   UNL     1     -12.133  -6.280  16.051  0.00  0.00    +0.000 OA
ATOM     23  N   UNL     1     -10.666  -4.744  15.198  0.00  0.00    +0.000 N 
ATOM     24  C   UNL     1     -10.458  -3.463  15.677  0.00  0.00    +0.000 C 
ATOM     25  O   UNL     1     -10.238  -2.514  14.936  0.00  0.00    +0.000 OA
ATOM     26  H   UNL     1     -11.172   1.631  17.203  0.00  0.00    +0.000 HD
ATOM     27  H   UNL     1     -11.066  -0.668  16.408  0.00  0.00    +0.000 HD
ATOM     28  H   UNL     1      -7.749  -4.830  20.954  0.00  0.00    +0.000 HD
ATOM     29  H   UNL     1      -6.656  -6.849  20.130  0.00  0.00    +0.000 HD
ATOM     30  H   UNL     1      -6.940  -5.859  16.592  0.00  0.00    +0.000 HD
ATOM     31  H   UNL     1      -8.776  -7.443  15.141  0.00  0.00    +0.000 HD
ATOM     32  H   UNL     1      -9.176   0.574  20.841  0.00  0.00    +0.000 HD
ATOM     33  H   UNL     1      -9.743  -5.106  14.977  0.00  0.00    +0.000 HD
ENDROOT
BRANCH  15  34
ATOM     34  C   UNL     1      -8.878  -9.379  17.401  0.00  0.00    +0.000 C 
ATOM     35  H   UNL     1      -8.180  -9.397  18.240  0.00  0.00    +0.000 HD
ATOM     36  H   UNL     1      -8.447  -9.802  16.493  0.00  0.00    +0.000 HD
ATOM     37  H   UNL     1      -9.769  -9.964  17.688  0.00  0.00    +0.000 HD
ENDBRANCH  15  34
BRANCH  18  38
ATOM     38  C   UNL     1      -8.291  -2.327  21.299  0.00  0.00    +0.000 C 
ATOM     39  H   UNL     1      -7.656  -1.437  21.353  0.00  0.00    +0.000 HD
ATOM     40  H   UNL     1      -7.605  -3.181  21.258  0.00  0.00    +0.000 HD
BRANCH  38  41
ATOM     41  C   UNL     1      -9.088  -2.429  22.604  0.00  0.00    +0.000 C 
ATOM     42  H   UNL     1     -10.164  -2.291  22.446  0.00  0.00    +0.000 HD
ATOM     43  H   UNL     1      -8.750  -1.699  23.349  0.00  0.00    +0.000 HD
BRANCH  41  44
ATOM     44  O   UNL     1      -8.899  -3.719  23.196  0.00  0.00    +0.000 OA
ATOM     45  H   UNL     1      -9.577  -4.318  22.837  0.00  0.00    +0.000 HD
ENDBRANCH  41  44
ENDBRANCH  38  41
ENDBRANCH  18  38
BRANCH   1  46
ATOM     46  O   UNL     1     -10.306   2.477  19.638  0.00  0.00    +0.000 OA
BRANCH  46  47
ATOM     47  C   UNL     1     -11.092   2.566  20.825  0.00  0.00    +0.000 C 
ATOM     48  H   UNL     1     -11.258   3.627  21.039  0.00  0.00    +0.000 HD
ATOM     49  H   UNL     1     -10.565   2.127  21.681  0.00  0.00    +0.000 HD
ATOM     50  H   UNL     1     -12.073   2.105  20.693  0.00  0.00    +0.000 HD
ENDBRANCH  46  47
ENDBRANCH   1  46
TORSDOF 6
ENDMDL
