REMARK  Name = 
REMARK  8 active torsions:
REMARK  status: ('A' for Active; 'I' for Inactive)
REMARK    1  A    between atoms: O_1  and  C_2
REMARK    2  A    between atoms: C_8  and  O_9
REMARK    3  A    between atoms: C_10  and  O_11
REMARK    4  A    between atoms: N_13  and  C_14
REMARK    5  A    between atoms: C_14  and  C_15
REMARK    6  A    between atoms: C_15  and  C_16
REMARK    7  A    between atoms: C_16  and  C_17
REMARK    8  A    between atoms: C_25  and  O_26
REMARK                            x       y       z     vdW  Elec       q    Type
REMARK                         _______ _______ _______ _____ _____    ______ ____
ROOT
ATOM      1  C   UNL     1      -4.688   0.496   1.387  0.00  0.00    +0.000 A 
ATOM      2  C   UNL     1      -4.024  -0.729   1.381  0.00  0.00    +0.000 A 
ATOM      3  C   UNL     1      -2.611  -0.755   1.351  0.00  0.00    +0.000 A 
ATOM      4  C   UNL     1      -1.666  -1.820   1.352  0.00  0.00    +0.000 A 
ATOM      5  C   UNL     1      -1.825  -3.228   1.388  0.00  0.00    +0.000 A 
ATOM      6  C   UNL     1      -0.716  -4.072   1.385  0.00  0.00    +0.000 A 
ATOM      7  C   UNL     1       0.546  -3.512   1.355  0.00  0.00    +0.000 A 
ATOM      8  C   UNL     1       0.737  -2.119   1.327  0.00  0.00    +0.000 A 
ATOM      9  C   UNL     1      -0.379  -1.260   1.315  0.00  0.00    +0.000 A 
ATOM     10  N   UNL     1      -0.543   0.122   1.271  0.00  0.00    +0.000 N 
ATOM     11  C   UNL     1      -1.901   0.445   1.323  0.00  0.00    +0.000 A 
ATOM     12  C   UNL     1      -2.572   1.687   1.353  0.00  0.00    +0.000 A 
ATOM     13  C   UNL     1      -3.971   1.686   1.380  0.00  0.00    +0.000 A 
ATOM     14  H   UNL     1      -4.573  -1.664   1.396  0.00  0.00    +0.000 HD
ATOM     15  H   UNL     1      -2.825  -3.655   1.416  0.00  0.00    +0.000 HD
ATOM     16  H   UNL     1      -0.866  -5.146   1.405  0.00  0.00    +0.000 HD
ATOM     17  H   UNL     1      -2.026   2.623   1.349  0.00  0.00    +0.000 HD
ENDROOT
BRANCH  10  18
ATOM     18  C   UNL     1       0.504   1.134   1.318  0.00  0.00    +0.000 C 
ATOM     19  H   UNL     1       1.026   0.986   2.275  0.00  0.00    +0.000 HD
ATOM     20  H   UNL     1       0.033   2.118   1.399  0.00  0.00    +0.000 HD
BRANCH  18  21
ATOM     21  C   UNL     1       1.527   1.206   0.183  0.00  0.00    +0.000 C 
ATOM     22  H   UNL     1       2.158   0.320   0.223  0.00  0.00    +0.000 HD
ATOM     23  H   UNL     1       2.201   2.044   0.408  0.00  0.00    +0.000 HD
BRANCH  21  24
ATOM     24  C   UNL     1       1.004   1.386  -1.250  0.00  0.00    +0.000 C 
ATOM     25  H   UNL     1       0.431   2.320  -1.322  0.00  0.00    +0.000 HD
ATOM     26  H   UNL     1       0.325   0.573  -1.527  0.00  0.00    +0.000 HD
BRANCH  24  27
ATOM     27  C   UNL     1       2.163   1.413  -2.241  0.00  0.00    +0.000 A 
ATOM     28  C   UNL     1       3.023   0.307  -2.347  0.00  0.00    +0.000 A 
ATOM     29  C   UNL     1       4.143   0.339  -3.186  0.00  0.00    +0.000 A 
ATOM     30  C   UNL     1       4.409   1.472  -3.945  0.00  0.00    +0.000 A 
ATOM     31  C   UNL     1       3.546   2.564  -3.885  0.00  0.00    +0.000 A 
ATOM     32  C   UNL     1       2.420   2.529  -3.042  0.00  0.00    +0.000 A 
ATOM     33  H   UNL     1       2.841  -0.589  -1.759  0.00  0.00    +0.000 HD
ATOM     34  H   UNL     1       4.811  -0.517  -3.229  0.00  0.00    +0.000 HD
ATOM     35  H   UNL     1       5.292   1.507  -4.582  0.00  0.00    +0.000 HD
ATOM     36  H   UNL     1       3.748   3.444  -4.489  0.00  0.00    +0.000 HD
ATOM     37  H   UNL     1       1.763   3.396  -3.023  0.00  0.00    +0.000 HD
ENDBRANCH  24  27
ENDBRANCH  21  24
ENDBRANCH  18  21
ENDBRANCH  10  18
BRANCH   1  38
ATOM     38  O   UNL     1      -6.055   0.535   1.399  0.00  0.00    +0.000 OA
ATOM     39  H   UNL     1      -6.395  -0.373   1.382  0.00  0.00    +0.000 HD
ENDBRANCH   1  38
BRANCH   7  40
ATOM     40  O   UNL     1       1.671  -4.297   1.347  0.00  0.00    +0.000 OA
ATOM     41  H   UNL     1       1.388  -5.228   1.392  0.00  0.00    +0.000 HD
ENDBRANCH   7  40
BRANCH   8  42
ATOM     42  O   UNL     1       2.038  -1.671   1.310  0.00  0.00    +0.000 OA
ATOM     43  H   UNL     1       2.567  -2.496   1.273  0.00  0.00    +0.000 HD
ENDBRANCH   8  42
BRANCH  13  44
ATOM     44  O   UNL     1      -4.655   2.872   1.392  0.00  0.00    +0.000 OA
ATOM     45  H   UNL     1      -4.021   3.604   1.389  0.00  0.00    +0.000 HD
ENDBRANCH  13  44
TORSDOF 8
