MODEL 1
REMARK VINA RESULT:   -10.652      0.000      0.000
REMARK INTER + INTRA:         -19.586
REMARK INTER:                 -17.190
REMARK INTRA:                  -2.396
REMARK UNBOUND:                -2.396
REMARK  Name = 
REMARK  13 active torsions:
REMARK  status: ('A' for Active; 'I' for Inactive)
REMARK    1  A    between atoms: C_2  and  C_36
REMARK    2  A    between atoms: N_3  and  C_4
REMARK    3  A    between atoms: C_12  and  O_13
REMARK    4  A    between atoms: O_13  and  C_14
REMARK    5  A    between atoms: C_14  and  C_16
REMARK    6  A    between atoms: C_18  and  O_19
REMARK    7  A    between atoms: C_20  and  C_21
REMARK    8  A    between atoms: C_21  and  C_23
REMARK    9  A    between atoms: C_24  and  O_25
REMARK   10  A    between atoms: C_29  and  C_30
REMARK   11  A    between atoms: C_30  and  O_32
REMARK   12  A    between atoms: C_33  and  O_34
REMARK   13  A    between atoms: C_39  and  O_40
REMARK                            x       y       z     vdW  Elec       q    Type
REMARK                         _______ _______ _______ _____ _____    ______ ____
ROOT
ATOM      1  C   UNL     1      -8.702  -1.819  19.996  0.00  0.00    +0.000 C 
ATOM      2  C   UNL     1      -9.270  -0.523  19.359  0.00  0.00    +0.000 C 
ATOM      3  N   UNL     1     -10.735  -0.376  19.221  0.00  0.00    +0.000 NA
ATOM      4  C   UNL     1     -11.242  -0.840  17.928  0.00  0.00    +0.000 C 
ATOM      5  C   UNL     1     -11.145  -2.355  17.732  0.00  0.00    +0.000 C 
ATOM      6  C   UNL     1     -10.779  -3.110  19.025  0.00  0.00    +0.000 C 
ATOM      7  C   UNL     1     -11.624  -2.525  20.177  0.00  0.00    +0.000 C 
ATOM      8  C   UNL     1     -11.506  -0.993  20.303  0.00  0.00    +0.000 C 
ATOM      9  C   UNL     1      -9.241  -3.064  19.246  0.00  0.00    +0.000 C 
ATOM     10  H   UNL     1      -7.609  -1.802  19.894  0.00  0.00    +0.000 HD
ATOM     11  H   UNL     1      -8.807  -0.410  18.368  0.00  0.00    +0.000 HD
ATOM     12  H   UNL     1      -8.913   0.343  19.925  0.00  0.00    +0.000 HD
ATOM     13  H   UNL     1     -10.741  -0.317  17.104  0.00  0.00    +0.000 HD
ATOM     14  H   UNL     1     -12.296  -0.541  17.844  0.00  0.00    +0.000 HD
ATOM     15  H   UNL     1     -10.426  -2.583  16.937  0.00  0.00    +0.000 HD
ATOM     16  H   UNL     1     -12.117  -2.719  17.375  0.00  0.00    +0.000 HD
ATOM     17  H   UNL     1     -11.065  -4.162  18.898  0.00  0.00    +0.000 HD
ATOM     18  H   UNL     1     -11.388  -3.013  21.127  0.00  0.00    +0.000 HD
ATOM     19  H   UNL     1     -12.677  -2.765  19.982  0.00  0.00    +0.000 HD
ATOM     20  H   UNL     1     -11.123  -0.693  21.283  0.00  0.00    +0.000 HD
ATOM     21  H   UNL     1     -12.519  -0.570  20.285  0.00  0.00    +0.000 HD
ATOM     22  H   UNL     1      -8.751  -3.083  18.264  0.00  0.00    +0.000 HD
ENDROOT
BRANCH   1  25
ATOM     23  O   UNL     1      -6.790  -2.479  22.103  0.00  0.00    +0.000 OA
ATOM     24  C   UNL     1      -7.948  -2.202  22.382  0.00  0.00    +0.000 C 
ATOM     25  N   UNL     1      -8.926  -1.946  21.449  0.00  0.00    +0.000 N 
ATOM     26  H   UNL     1      -9.862  -1.749  21.767  0.00  0.00    +0.000 HD
BRANCH  24  27
ATOM     27  C   UNL     1      -8.370  -2.033  23.807  0.00  0.00    +0.000 A 
ATOM     28  C   UNL     1      -8.437  -3.172  24.621  0.00  0.00    +0.000 A 
ATOM     29  C   UNL     1      -8.735  -3.051  25.983  0.00  0.00    +0.000 A 
ATOM     30  C   UNL     1      -8.972  -1.790  26.522  0.00  0.00    +0.000 A 
ATOM     31  C   UNL     1      -8.934  -0.655  25.721  0.00  0.00    +0.000 A 
ATOM     32  C   UNL     1      -8.639  -0.774  24.361  0.00  0.00    +0.000 A 
ATOM     33  H   UNL     1      -8.233  -4.155  24.200  0.00  0.00    +0.000 HD
ATOM     34  H   UNL     1      -8.768  -3.943  26.601  0.00  0.00    +0.000 HD
ATOM     35  H   UNL     1      -9.129   0.322  26.156  0.00  0.00    +0.000 HD
ATOM     36  H   UNL     1      -8.635   0.124  23.754  0.00  0.00    +0.000 HD
BRANCH  30  37
ATOM     37  O   UNL     1      -9.246  -1.618  27.846  0.00  0.00    +0.000 OA
ATOM     38  H   UNL     1      -9.953  -0.957  27.936  0.00  0.00    +0.000 HD
ENDBRANCH  30  37
ENDBRANCH  24  27
ENDBRANCH   1  25
BRANCH   9  39
ATOM     39  O   UNL     1      -8.827  -4.226  20.012  0.00  0.00    +0.000 OA
BRANCH  39  40
ATOM     40  C   UNL     1      -7.878  -5.021  19.452  0.00  0.00    +0.000 C 
ATOM     41  O   UNL     1      -6.673  -4.842  19.487  0.00  0.00    +0.000 OA
BRANCH  40  42
ATOM     42  C   UNL     1      -8.513  -6.243  18.887  0.00  0.00    +0.000 A 
ATOM     43  C   UNL     1      -9.028  -6.206  17.585  0.00  0.00    +0.000 A 
ATOM     44  C   UNL     1      -9.550  -7.369  17.008  0.00  0.00    +0.000 A 
ATOM     45  C   UNL     1      -9.563  -8.588  17.715  0.00  0.00    +0.000 A 
ATOM     46  C   UNL     1      -9.010  -8.613  19.001  0.00  0.00    +0.000 A 
ATOM     47  C   UNL     1      -8.517  -7.453  19.591  0.00  0.00    +0.000 A 
ATOM     48  H   UNL     1      -9.017  -5.270  17.031  0.00  0.00    +0.000 HD
ATOM     49  H   UNL     1      -8.106  -7.511  20.591  0.00  0.00    +0.000 HD
BRANCH  44  50
ATOM     50  O   UNL     1     -10.057  -7.299  15.739  0.00  0.00    +0.000 OA
ATOM     51  H   UNL     1      -9.975  -6.399  15.388  0.00  0.00    +0.000 HD
ENDBRANCH  44  50
BRANCH  45  52
ATOM     52  C   UNL     1     -10.112  -9.813  17.074  0.00  0.00    +0.000 C 
ATOM     53  O   UNL     1     -11.328  -9.880  16.867  0.00  0.00    +0.000 OA
BRANCH  52  54
ATOM     54  C   UNL     1      -9.267 -10.887  16.469  0.00  0.00    +0.000 A 
ATOM     55  C   UNL     1      -8.901 -11.956  17.318  0.00  0.00    +0.000 A 
ATOM     56  C   UNL     1      -8.204 -13.064  16.849  0.00  0.00    +0.000 A 
ATOM     57  C   UNL     1      -7.845 -13.139  15.512  0.00  0.00    +0.000 A 
ATOM     58  C   UNL     1      -8.166 -12.091  14.651  0.00  0.00    +0.000 A 
ATOM     59  C   UNL     1      -8.879 -10.965  15.117  0.00  0.00    +0.000 A 
ATOM     60  H   UNL     1      -7.942 -13.866  17.535  0.00  0.00    +0.000 HD
ATOM     61  H   UNL     1      -7.294 -14.005  15.145  0.00  0.00    +0.000 HD
ATOM     62  H   UNL     1      -7.828 -12.157  13.618  0.00  0.00    +0.000 HD
BRANCH  55  63
ATOM     63  O   UNL     1      -9.223 -11.995  18.654  0.00  0.00    +0.000 OA
ATOM     64  H   UNL     1     -10.205 -12.006  18.734  0.00  0.00    +0.000 HD
ENDBRANCH  55  63
BRANCH  59  65
ATOM     65  C   UNL     1      -9.138  -9.874  14.144  0.00  0.00    +0.000 C 
ATOM     66  O   UNL     1     -10.064  -9.894  13.354  0.00  0.00    +0.000 OA
BRANCH  65  67
ATOM     67  O   UNL     1      -8.243  -8.863  14.199  0.00  0.00    +0.000 OA
ATOM     68  H   UNL     1      -8.188  -8.288  13.415  0.00  0.00    +0.000 HD
ENDBRANCH  65  67
ENDBRANCH  59  65
ENDBRANCH  52  54
ENDBRANCH  45  52
BRANCH  46  69
ATOM     69  O   UNL     1      -8.878  -9.742  19.772  0.00  0.00    +0.000 OA
ATOM     70  H   UNL     1      -9.623 -10.339  19.602  0.00  0.00    +0.000 HD
ENDBRANCH  46  69
ENDBRANCH  40  42
ENDBRANCH  39  40
ENDBRANCH   9  39
TORSDOF 13
ENDMDL
MODEL 2
REMARK VINA RESULT:   -10.356      2.285      5.656
REMARK INTER + INTRA:         -19.110
REMARK INTER:                 -16.005
REMARK INTRA:                  -3.104
REMARK UNBOUND:                -2.396
REMARK  Name = 
REMARK  13 active torsions:
REMARK  status: ('A' for Active; 'I' for Inactive)
REMARK    1  A    between atoms: C_2  and  C_36
REMARK    2  A    between atoms: N_3  and  C_4
REMARK    3  A    between atoms: C_12  and  O_13
REMARK    4  A    between atoms: O_13  and  C_14
REMARK    5  A    between atoms: C_14  and  C_16
REMARK    6  A    between atoms: C_18  and  O_19
REMARK    7  A    between atoms: C_20  and  C_21
REMARK    8  A    between atoms: C_21  and  C_23
REMARK    9  A    between atoms: C_24  and  O_25
REMARK   10  A    between atoms: C_29  and  C_30
REMARK   11  A    between atoms: C_30  and  O_32
REMARK   12  A    between atoms: C_33  and  O_34
REMARK   13  A    between atoms: C_39  and  O_40
REMARK                            x       y       z     vdW  Elec       q    Type
REMARK                         _______ _______ _______ _____ _____    ______ ____
ROOT
ATOM      1  C   UNL     1     -10.456  -3.598  19.178  0.00  0.00    +0.000 C 
ATOM      2  C   UNL     1     -11.675  -2.840  19.769  0.00  0.00    +0.000 C 
ATOM      3  N   UNL     1     -11.625  -1.364  19.858  0.00  0.00    +0.000 NA
ATOM      4  C   UNL     1     -11.120  -0.882  21.145  0.00  0.00    +0.000 C 
ATOM      5  C   UNL     1      -9.636  -1.175  21.378  0.00  0.00    +0.000 C 
ATOM      6  C   UNL     1      -8.915  -1.683  20.114  0.00  0.00    +0.000 C 
ATOM      7  C   UNL     1      -9.358  -0.805  18.924  0.00  0.00    +0.000 C 
ATOM      8  C   UNL     1     -10.890  -0.720  18.768  0.00  0.00    +0.000 C 
ATOM      9  C   UNL     1      -9.164  -3.207  19.939  0.00  0.00    +0.000 C 
ATOM     10  H   UNL     1     -10.623  -4.674  19.313  0.00  0.00    +0.000 HD
ATOM     11  H   UNL     1     -11.868  -3.250  20.770  0.00  0.00    +0.000 HD
ATOM     12  H   UNL     1     -12.571  -3.095  19.195  0.00  0.00    +0.000 HD
ATOM     13  H   UNL     1     -11.721  -1.279  21.972  0.00  0.00    +0.000 HD
ATOM     14  H   UNL     1     -11.276   0.206  21.190  0.00  0.00    +0.000 HD
ATOM     15  H   UNL     1      -9.522  -1.891  22.199  0.00  0.00    +0.000 HD
ATOM     16  H   UNL     1      -9.150  -0.249  21.712  0.00  0.00    +0.000 HD
ATOM     17  H   UNL     1      -7.835  -1.536  20.255  0.00  0.00    +0.000 HD
ATOM     18  H   UNL     1      -8.890  -1.136  17.992  0.00  0.00    +0.000 HD
ATOM     19  H   UNL     1      -8.982   0.211  19.092  0.00  0.00    +0.000 HD
ATOM     20  H   UNL     1     -11.222  -1.091  17.793  0.00  0.00    +0.000 HD
ATOM     21  H   UNL     1     -11.173   0.341  18.745  0.00  0.00    +0.000 HD
ATOM     22  H   UNL     1      -9.230  -3.662  20.935  0.00  0.00    +0.000 HD
ENDROOT
BRANCH   1  25
ATOM     23  O   UNL     1     -11.549  -5.212  17.004  0.00  0.00    +0.000 OA
ATOM     24  C   UNL     1     -10.880  -4.217  16.761  0.00  0.00    +0.000 C 
ATOM     25  N   UNL     1     -10.275  -3.442  17.723  0.00  0.00    +0.000 N 
ATOM     26  H   UNL     1      -9.721  -2.651  17.433  0.00  0.00    +0.000 HD
BRANCH  24  27
ATOM     27  C   UNL     1     -10.746  -3.712  15.360  0.00  0.00    +0.000 A 
ATOM     28  C   UNL     1     -10.034  -2.523  15.146  0.00  0.00    +0.000 A 
ATOM     29  C   UNL     1      -9.801  -2.063  13.845  0.00  0.00    +0.000 A 
ATOM     30  C   UNL     1     -10.290  -2.790  12.765  0.00  0.00    +0.000 A 
ATOM     31  C   UNL     1     -11.020  -3.956  12.962  0.00  0.00    +0.000 A 
ATOM     32  C   UNL     1     -11.254  -4.416  14.260  0.00  0.00    +0.000 A 
ATOM     33  H   UNL     1      -9.637  -1.967  15.993  0.00  0.00    +0.000 HD
ATOM     34  H   UNL     1      -9.234  -1.148  13.699  0.00  0.00    +0.000 HD
ATOM     35  H   UNL     1     -11.401  -4.508  12.108  0.00  0.00    +0.000 HD
ATOM     36  H   UNL     1     -11.844  -5.317  14.389  0.00  0.00    +0.000 HD
BRANCH  30  37
ATOM     37  O   UNL     1     -10.073  -2.393  11.479  0.00  0.00    +0.000 OA
ATOM     38  H   UNL     1      -9.548  -1.576  11.488  0.00  0.00    +0.000 HD
ENDBRANCH  30  37
ENDBRANCH  24  27
ENDBRANCH   1  25
BRANCH   9  39
ATOM     39  O   UNL     1      -8.055  -3.798  19.213  0.00  0.00    +0.000 OA
BRANCH  39  40
ATOM     40  C   UNL     1      -7.485  -4.903  19.760  0.00  0.00    +0.000 C 
ATOM     41  O   UNL     1      -6.717  -4.927  20.706  0.00  0.00    +0.000 OA
BRANCH  40  42
ATOM     42  C   UNL     1      -8.040  -6.127  19.120  0.00  0.00    +0.000 A 
ATOM     43  C   UNL     1      -8.627  -7.113  19.924  0.00  0.00    +0.000 A 
ATOM     44  C   UNL     1      -9.229  -8.228  19.330  0.00  0.00    +0.000 A 
ATOM     45  C   UNL     1      -9.263  -8.378  17.930  0.00  0.00    +0.000 A 
ATOM     46  C   UNL     1      -8.704  -7.363  17.143  0.00  0.00    +0.000 A 
ATOM     47  C   UNL     1      -8.077  -6.266  17.727  0.00  0.00    +0.000 A 
ATOM     48  H   UNL     1      -8.610  -7.002  21.006  0.00  0.00    +0.000 HD
ATOM     49  H   UNL     1      -7.648  -5.508  17.085  0.00  0.00    +0.000 HD
BRANCH  44  50
ATOM     50  O   UNL     1      -9.783  -9.181  20.142  0.00  0.00    +0.000 OA
ATOM     51  H   UNL     1     -10.342  -9.784  19.627  0.00  0.00    +0.000 HD
ENDBRANCH  44  50
BRANCH  45  52
ATOM     52  C   UNL     1      -9.921  -9.566  17.325  0.00  0.00    +0.000 C 
ATOM     53  O   UNL     1     -11.129  -9.511  17.071  0.00  0.00    +0.000 OA
BRANCH  52  54
ATOM     54  C   UNL     1      -9.179 -10.754  16.803  0.00  0.00    +0.000 A 
ATOM     55  C   UNL     1      -8.739 -11.695  17.762  0.00  0.00    +0.000 A 
ATOM     56  C   UNL     1      -8.129 -12.889  17.396  0.00  0.00    +0.000 A 
ATOM     57  C   UNL     1      -7.932 -13.183  16.056  0.00  0.00    +0.000 A 
ATOM     58  C   UNL     1      -8.329 -12.267  15.083  0.00  0.00    +0.000 A 
ATOM     59  C   UNL     1      -8.956 -11.055  15.445  0.00  0.00    +0.000 A 
ATOM     60  H   UNL     1      -7.805 -13.587  18.166  0.00  0.00    +0.000 HD
ATOM     61  H   UNL     1      -7.449 -14.116  15.769  0.00  0.00    +0.000 HD
ATOM     62  H   UNL     1      -8.118 -12.504  14.041  0.00  0.00    +0.000 HD
BRANCH  55  63
ATOM     63  O   UNL     1      -8.901 -11.515  19.116  0.00  0.00    +0.000 OA
ATOM     64  H   UNL     1      -8.827 -12.395  19.554  0.00  0.00    +0.000 HD
ENDBRANCH  55  63
BRANCH  59  65
ATOM     65  C   UNL     1      -9.304 -10.116  14.349  0.00  0.00    +0.000 C 
ATOM     66  O   UNL     1     -10.400 -10.089  13.819  0.00  0.00    +0.000 OA
BRANCH  65  67
ATOM     67  O   UNL     1      -8.290  -9.304  13.977  0.00  0.00    +0.000 OA
ATOM     68  H   UNL     1      -8.248  -8.433  14.413  0.00  0.00    +0.000 HD
ENDBRANCH  65  67
ENDBRANCH  59  65
ENDBRANCH  52  54
ENDBRANCH  45  52
BRANCH  46  69
ATOM     69  O   UNL     1      -8.738  -7.332  15.770  0.00  0.00    +0.000 OA
ATOM     70  H   UNL     1      -8.853  -6.417  15.470  0.00  0.00    +0.000 HD
ENDBRANCH  46  69
ENDBRANCH  40  42
ENDBRANCH  39  40
ENDBRANCH   9  39
TORSDOF 13
ENDMDL
MODEL 3
REMARK VINA RESULT:   -10.168      1.975      4.603
REMARK INTER + INTRA:         -18.807
REMARK INTER:                 -16.954
REMARK INTRA:                  -1.852
REMARK UNBOUND:                -2.396
REMARK  Name = 
REMARK  13 active torsions:
REMARK  status: ('A' for Active; 'I' for Inactive)
REMARK    1  A    between atoms: C_2  and  C_36
REMARK    2  A    between atoms: N_3  and  C_4
REMARK    3  A    between atoms: C_12  and  O_13
REMARK    4  A    between atoms: O_13  and  C_14
REMARK    5  A    between atoms: C_14  and  C_16
REMARK    6  A    between atoms: C_18  and  O_19
REMARK    7  A    between atoms: C_20  and  C_21
REMARK    8  A    between atoms: C_21  and  C_23
REMARK    9  A    between atoms: C_24  and  O_25
REMARK   10  A    between atoms: C_29  and  C_30
REMARK   11  A    between atoms: C_30  and  O_32
REMARK   12  A    between atoms: C_33  and  O_34
REMARK   13  A    between atoms: C_39  and  O_40
REMARK                            x       y       z     vdW  Elec       q    Type
REMARK                         _______ _______ _______ _____ _____    ______ ____
ROOT
ATOM      1  C   UNL     1      -9.461  -2.773  21.371  0.00  0.00    +0.000 C 
ATOM      2  C   UNL     1     -10.169  -2.410  22.703  0.00  0.00    +0.000 C 
ATOM      3  N   UNL     1      -9.390  -1.742  23.768  0.00  0.00    +0.000 NA
ATOM      4  C   UNL     1      -8.796  -2.680  24.723  0.00  0.00    +0.000 C 
ATOM      5  C   UNL     1      -7.680  -3.543  24.130  0.00  0.00    +0.000 C 
ATOM      6  C   UNL     1      -7.230  -3.074  22.732  0.00  0.00    +0.000 C 
ATOM      7  C   UNL     1      -7.094  -1.537  22.763  0.00  0.00    +0.000 C 
ATOM      8  C   UNL     1      -8.361  -0.823  23.275  0.00  0.00    +0.000 C 
ATOM      9  C   UNL     1      -8.199  -3.630  21.652  0.00  0.00    +0.000 C 
ATOM     10  H   UNL     1     -10.154  -3.371  20.765  0.00  0.00    +0.000 HD
ATOM     11  H   UNL     1     -10.607  -3.333  23.109  0.00  0.00    +0.000 HD
ATOM     12  H   UNL     1     -11.032  -1.773  22.490  0.00  0.00    +0.000 HD
ATOM     13  H   UNL     1      -9.568  -3.315  25.175  0.00  0.00    +0.000 HD
ATOM     14  H   UNL     1      -8.387  -2.103  25.563  0.00  0.00    +0.000 HD
ATOM     15  H   UNL     1      -7.994  -4.592  24.101  0.00  0.00    +0.000 HD
ATOM     16  H   UNL     1      -6.817  -3.504  24.808  0.00  0.00    +0.000 HD
ATOM     17  H   UNL     1      -6.235  -3.495  22.535  0.00  0.00    +0.000 HD
ATOM     18  H   UNL     1      -6.796  -1.146  21.786  0.00  0.00    +0.000 HD
ATOM     19  H   UNL     1      -6.270  -1.282  23.441  0.00  0.00    +0.000 HD
ATOM     20  H   UNL     1      -8.771  -0.134  22.530  0.00  0.00    +0.000 HD
ATOM     21  H   UNL     1      -8.071  -0.161  24.101  0.00  0.00    +0.000 HD
ATOM     22  H   UNL     1      -8.550  -4.617  21.977  0.00  0.00    +0.000 HD
ENDROOT
BRANCH   1  25
ATOM     23  O   UNL     1     -10.633  -1.992  18.813  0.00  0.00    +0.000 OA
ATOM     24  C   UNL     1      -9.780  -1.294  19.342  0.00  0.00    +0.000 C 
ATOM     25  N   UNL     1      -9.131  -1.622  20.510  0.00  0.00    +0.000 N 
ATOM     26  H   UNL     1      -8.423  -0.998  20.865  0.00  0.00    +0.000 HD
BRANCH  24  27
ATOM     27  C   UNL     1      -9.439   0.050  18.781  0.00  0.00    +0.000 A 
ATOM     28  C   UNL     1      -9.985   1.186  19.395  0.00  0.00    +0.000 A 
ATOM     29  C   UNL     1      -9.620   2.467  18.964  0.00  0.00    +0.000 A 
ATOM     30  C   UNL     1      -8.715   2.604  17.916  0.00  0.00    +0.000 A 
ATOM     31  C   UNL     1      -8.185   1.487  17.282  0.00  0.00    +0.000 A 
ATOM     32  C   UNL     1      -8.550   0.208  17.709  0.00  0.00    +0.000 A 
ATOM     33  H   UNL     1     -10.679   1.075  20.226  0.00  0.00    +0.000 HD
ATOM     34  H   UNL     1     -10.042   3.335  19.462  0.00  0.00    +0.000 HD
ATOM     35  H   UNL     1      -7.486   1.611  16.460  0.00  0.00    +0.000 HD
ATOM     36  H   UNL     1      -8.139  -0.648  17.185  0.00  0.00    +0.000 HD
BRANCH  30  37
ATOM     37  O   UNL     1      -8.313   3.829  17.474  0.00  0.00    +0.000 OA
ATOM     38  H   UNL     1      -7.485   4.067  17.923  0.00  0.00    +0.000 HD
ENDBRANCH  30  37
ENDBRANCH  24  27
ENDBRANCH   1  25
BRANCH   9  39
ATOM     39  O   UNL     1      -7.494  -3.762  20.390  0.00  0.00    +0.000 OA
BRANCH  39  40
ATOM     40  C   UNL     1      -6.675  -4.838  20.258  0.00  0.00    +0.000 C 
ATOM     41  O   UNL     1      -5.559  -4.960  20.733  0.00  0.00    +0.000 OA
BRANCH  40  42
ATOM     42  C   UNL     1      -7.390  -5.931  19.545  0.00  0.00    +0.000 A 
ATOM     43  C   UNL     1      -8.164  -6.836  20.283  0.00  0.00    +0.000 A 
ATOM     44  C   UNL     1      -8.911  -7.816  19.620  0.00  0.00    +0.000 A 
ATOM     45  C   UNL     1      -8.905  -7.909  18.214  0.00  0.00    +0.000 A 
ATOM     46  C   UNL     1      -8.155  -6.971  17.493  0.00  0.00    +0.000 A 
ATOM     47  C   UNL     1      -7.386  -6.013  18.147  0.00  0.00    +0.000 A 
ATOM     48  H   UNL     1      -8.178  -6.768  21.368  0.00  0.00    +0.000 HD
ATOM     49  H   UNL     1      -6.812  -5.312  17.555  0.00  0.00    +0.000 HD
BRANCH  44  50
ATOM     50  O   UNL     1      -9.648  -8.694  20.368  0.00  0.00    +0.000 OA
ATOM     51  H   UNL     1     -10.122  -8.227  21.073  0.00  0.00    +0.000 HD
ENDBRANCH  44  50
BRANCH  45  52
ATOM     52  C   UNL     1      -9.718  -8.951  17.534  0.00  0.00    +0.000 C 
ATOM     53  O   UNL     1     -10.878  -8.680  17.206  0.00  0.00    +0.000 OA
BRANCH  52  54
ATOM     54  C   UNL     1      -9.161 -10.242  17.025  0.00  0.00    +0.000 A 
ATOM     55  C   UNL     1      -8.781 -11.193  18.000  0.00  0.00    +0.000 A 
ATOM     56  C   UNL     1      -8.346 -12.468  17.656  0.00  0.00    +0.000 A 
ATOM     57  C   UNL     1      -8.271 -12.835  16.321  0.00  0.00    +0.000 A 
ATOM     58  C   UNL     1      -8.613 -11.915  15.332  0.00  0.00    +0.000 A 
ATOM     59  C   UNL     1      -9.062 -10.621  15.673  0.00  0.00    +0.000 A 
ATOM     60  H   UNL     1      -8.063 -13.170  18.437  0.00  0.00    +0.000 HD
ATOM     61  H   UNL     1      -7.925 -13.832  16.051  0.00  0.00    +0.000 HD
ATOM     62  H   UNL     1      -8.497 -12.216  14.291  0.00  0.00    +0.000 HD
BRANCH  55  63
ATOM     63  O   UNL     1      -8.834 -10.943  19.351  0.00  0.00    +0.000 OA
ATOM     64  H   UNL     1      -8.871 -11.807  19.823  0.00  0.00    +0.000 HD
ENDBRANCH  55  63
BRANCH  59  65
ATOM     65  C   UNL     1      -9.360  -9.689  14.556  0.00  0.00    +0.000 C 
ATOM     66  O   UNL     1      -8.643  -8.748  14.266  0.00  0.00    +0.000 OA
BRANCH  65  67
ATOM     67  O   UNL     1     -10.507  -9.965  13.898  0.00  0.00    +0.000 OA
ATOM     68  H   UNL     1     -10.460 -10.660  13.216  0.00  0.00    +0.000 HD
ENDBRANCH  65  67
ENDBRANCH  59  65
ENDBRANCH  52  54
ENDBRANCH  45  52
BRANCH  46  69
ATOM     69  O   UNL     1      -8.121  -6.887  16.122  0.00  0.00    +0.000 OA
ATOM     70  H   UNL     1      -8.998  -6.638  15.791  0.00  0.00    +0.000 HD
ENDBRANCH  46  69
ENDBRANCH  40  42
ENDBRANCH  39  40
ENDBRANCH   9  39
TORSDOF 13
ENDMDL
MODEL 4
REMARK VINA RESULT:    -9.967      1.971      3.585
REMARK INTER + INTRA:         -18.482
REMARK INTER:                 -15.371
REMARK INTRA:                  -3.111
REMARK UNBOUND:                -2.396
REMARK  Name = 
REMARK  13 active torsions:
REMARK  status: ('A' for Active; 'I' for Inactive)
REMARK    1  A    between atoms: C_2  and  C_36
REMARK    2  A    between atoms: N_3  and  C_4
REMARK    3  A    between atoms: C_12  and  O_13
REMARK    4  A    between atoms: O_13  and  C_14
REMARK    5  A    between atoms: C_14  and  C_16
REMARK    6  A    between atoms: C_18  and  O_19
REMARK    7  A    between atoms: C_20  and  C_21
REMARK    8  A    between atoms: C_21  and  C_23
REMARK    9  A    between atoms: C_24  and  O_25
REMARK   10  A    between atoms: C_29  and  C_30
REMARK   11  A    between atoms: C_30  and  O_32
REMARK   12  A    between atoms: C_33  and  O_34
REMARK   13  A    between atoms: C_39  and  O_40
REMARK                            x       y       z     vdW  Elec       q    Type
REMARK                         _______ _______ _______ _____ _____    ______ ____
ROOT
ATOM      1  C   UNL     1      -9.630  -0.798  18.631  0.00  0.00    +0.000 C 
ATOM      2  C   UNL     1      -8.858   0.532  18.422  0.00  0.00    +0.000 C 
ATOM      3  N   UNL     1      -9.524   1.807  18.764  0.00  0.00    +0.000 NA
ATOM      4  C   UNL     1     -10.219   2.417  17.629  0.00  0.00    +0.000 C 
ATOM      5  C   UNL     1     -11.450   1.635  17.164  0.00  0.00    +0.000 C 
ATOM      6  C   UNL     1     -11.857   0.513  18.139  0.00  0.00    +0.000 C 
ATOM      7  C   UNL     1     -11.789   1.077  19.574  0.00  0.00    +0.000 C 
ATOM      8  C   UNL     1     -10.430   1.724  19.911  0.00  0.00    +0.000 C 
ATOM      9  C   UNL     1     -10.988  -0.750  17.885  0.00  0.00    +0.000 C 
ATOM     10  H   UNL     1      -9.032  -1.614  18.205  0.00  0.00    +0.000 HD
ATOM     11  H   UNL     1      -8.539   0.569  17.370  0.00  0.00    +0.000 HD
ATOM     12  H   UNL     1      -7.922   0.497  18.987  0.00  0.00    +0.000 HD
ATOM     13  H   UNL     1      -9.530   2.576  16.791  0.00  0.00    +0.000 HD
ATOM     14  H   UNL     1     -10.535   3.428  17.922  0.00  0.00    +0.000 HD
ATOM     15  H   UNL     1     -11.276   1.228  16.161  0.00  0.00    +0.000 HD
ATOM     16  H   UNL     1     -12.288   2.337  17.066  0.00  0.00    +0.000 HD
ATOM     17  H   UNL     1     -12.902   0.245  17.933  0.00  0.00    +0.000 HD
ATOM     18  H   UNL     1     -12.050   0.314  20.313  0.00  0.00    +0.000 HD
ATOM     19  H   UNL     1     -12.561   1.851  19.673  0.00  0.00    +0.000 HD
ATOM     20  H   UNL     1      -9.947   1.236  20.763  0.00  0.00    +0.000 HD
ATOM     21  H   UNL     1     -10.617   2.744  20.274  0.00  0.00    +0.000 HD
ATOM     22  H   UNL     1     -10.765  -0.805  16.812  0.00  0.00    +0.000 HD
ENDROOT
BRANCH   1  25
ATOM     23  O   UNL     1      -8.446  -3.028  20.097  0.00  0.00    +0.000 OA
ATOM     24  C   UNL     1      -9.171  -2.227  20.669  0.00  0.00    +0.000 C 
ATOM     25  N   UNL     1      -9.820  -1.190  20.040  0.00  0.00    +0.000 N 
ATOM     26  H   UNL     1     -10.419  -0.589  20.585  0.00  0.00    +0.000 HD
BRANCH  24  27
ATOM     27  C   UNL     1      -9.334  -2.271  22.155  0.00  0.00    +0.000 A 
ATOM     28  C   UNL     1      -8.441  -3.053  22.900  0.00  0.00    +0.000 A 
ATOM     29  C   UNL     1      -8.496  -3.050  24.299  0.00  0.00    +0.000 A 
ATOM     30  C   UNL     1      -9.451  -2.271  24.944  0.00  0.00    +0.000 A 
ATOM     31  C   UNL     1     -10.360  -1.512  24.217  0.00  0.00    +0.000 A 
ATOM     32  C   UNL     1     -10.308  -1.515  22.822  0.00  0.00    +0.000 A 
ATOM     33  H   UNL     1      -7.683  -3.646  22.392  0.00  0.00    +0.000 HD
ATOM     34  H   UNL     1      -7.785  -3.650  24.859  0.00  0.00    +0.000 HD
ATOM     35  H   UNL     1     -11.105  -0.915  24.737  0.00  0.00    +0.000 HD
ATOM     36  H   UNL     1     -11.041  -0.930  22.277  0.00  0.00    +0.000 HD
BRANCH  30  37
ATOM     37  O   UNL     1      -9.533  -2.220  26.304  0.00  0.00    +0.000 OA
ATOM     38  H   UNL     1      -9.871  -1.348  26.565  0.00  0.00    +0.000 HD
ENDBRANCH  30  37
ENDBRANCH  24  27
ENDBRANCH   1  25
BRANCH   9  39
ATOM     39  O   UNL     1     -11.727  -1.934  18.284  0.00  0.00    +0.000 OA
BRANCH  39  40
ATOM     40  C   UNL     1     -12.169  -2.744  17.286  0.00  0.00    +0.000 C 
ATOM     41  O   UNL     1     -13.081  -2.506  16.513  0.00  0.00    +0.000 OA
BRANCH  40  42
ATOM     42  C   UNL     1     -11.284  -3.936  17.174  0.00  0.00    +0.000 A 
ATOM     43  C   UNL     1     -10.907  -4.389  15.904  0.00  0.00    +0.000 A 
ATOM     44  C   UNL     1     -10.008  -5.455  15.784  0.00  0.00    +0.000 A 
ATOM     45  C   UNL     1      -9.465  -6.081  16.923  0.00  0.00    +0.000 A 
ATOM     46  C   UNL     1      -9.826  -5.588  18.184  0.00  0.00    +0.000 A 
ATOM     47  C   UNL     1     -10.743  -4.549  18.311  0.00  0.00    +0.000 A 
ATOM     48  H   UNL     1     -11.317  -3.908  15.020  0.00  0.00    +0.000 HD
ATOM     49  H   UNL     1     -11.005  -4.203  19.303  0.00  0.00    +0.000 HD
BRANCH  44  50
ATOM     50  O   UNL     1      -9.667  -5.885  14.530  0.00  0.00    +0.000 OA
ATOM     51  H   UNL     1      -8.749  -6.198  14.515  0.00  0.00    +0.000 HD
ENDBRANCH  44  50
BRANCH  45  52
ATOM     52  C   UNL     1      -8.502  -7.203  16.768  0.00  0.00    +0.000 C 
ATOM     53  O   UNL     1      -7.292  -6.963  16.856  0.00  0.00    +0.000 OA
BRANCH  52  54
ATOM     54  C   UNL     1      -8.899  -8.643  16.723  0.00  0.00    +0.000 A 
ATOM     55  C   UNL     1      -9.074  -9.209  15.439  0.00  0.00    +0.000 A 
ATOM     56  C   UNL     1      -9.343 -10.562  15.261  0.00  0.00    +0.000 A 
ATOM     57  C   UNL     1      -9.451 -11.396  16.363  0.00  0.00    +0.000 A 
ATOM     58  C   UNL     1      -9.310 -10.867  17.645  0.00  0.00    +0.000 A 
ATOM     59  C   UNL     1      -9.030  -9.497  17.835  0.00  0.00    +0.000 A 
ATOM     60  H   UNL     1      -9.471 -10.958  14.256  0.00  0.00    +0.000 HD
ATOM     61  H   UNL     1      -9.667 -12.454  16.224  0.00  0.00    +0.000 HD
ATOM     62  H   UNL     1      -9.448 -11.538  18.492  0.00  0.00    +0.000 HD
BRANCH  55  63
ATOM     63  O   UNL     1      -8.969  -8.480  14.278  0.00  0.00    +0.000 OA
ATOM     64  H   UNL     1      -8.394  -8.978  13.653  0.00  0.00    +0.000 HD
ENDBRANCH  55  63
BRANCH  59  65
ATOM     65  C   UNL     1      -8.943  -9.009  19.235  0.00  0.00    +0.000 C 
ATOM     66  O   UNL     1      -7.888  -8.742  19.781  0.00  0.00    +0.000 OA
BRANCH  65  67
ATOM     67  O   UNL     1     -10.138  -8.903  19.856  0.00  0.00    +0.000 OA
ATOM     68  H   UNL     1     -10.816  -8.366  19.405  0.00  0.00    +0.000 HD
ENDBRANCH  65  67
ENDBRANCH  59  65
ENDBRANCH  52  54
ENDBRANCH  45  52
BRANCH  46  69
ATOM     69  O   UNL     1      -9.315  -6.042  19.375  0.00  0.00    +0.000 OA
ATOM     70  H   UNL     1      -8.527  -5.527  19.607  0.00  0.00    +0.000 HD
ENDBRANCH  46  69
ENDBRANCH  40  42
ENDBRANCH  39  40
ENDBRANCH   9  39
TORSDOF 13
ENDMDL
MODEL 5
REMARK VINA RESULT:    -9.962      3.054      9.640
REMARK INTER + INTRA:         -18.473
REMARK INTER:                 -15.023
REMARK INTRA:                  -3.450
REMARK UNBOUND:                -2.396
REMARK  Name = 
REMARK  13 active torsions:
REMARK  status: ('A' for Active; 'I' for Inactive)
REMARK    1  A    between atoms: C_2  and  C_36
REMARK    2  A    between atoms: N_3  and  C_4
REMARK    3  A    between atoms: C_12  and  O_13
REMARK    4  A    between atoms: O_13  and  C_14
REMARK    5  A    between atoms: C_14  and  C_16
REMARK    6  A    between atoms: C_18  and  O_19
REMARK    7  A    between atoms: C_20  and  C_21
REMARK    8  A    between atoms: C_21  and  C_23
REMARK    9  A    between atoms: C_24  and  O_25
REMARK   10  A    between atoms: C_29  and  C_30
REMARK   11  A    between atoms: C_30  and  O_32
REMARK   12  A    between atoms: C_33  and  O_34
REMARK   13  A    between atoms: C_39  and  O_40
REMARK                            x       y       z     vdW  Elec       q    Type
REMARK                         _______ _______ _______ _____ _____    ______ ____
ROOT
ATOM      1  C   UNL     1      -8.459  -6.496  16.542  0.00  0.00    +0.000 C 
ATOM      2  C   UNL     1      -9.071  -7.838  16.059  0.00  0.00    +0.000 C 
ATOM      3  N   UNL     1     -10.139  -8.468  16.866  0.00  0.00    +0.000 NA
ATOM      4  C   UNL     1      -9.630  -9.432  17.844  0.00  0.00    +0.000 C 
ATOM      5  C   UNL     1      -8.830  -8.795  18.982  0.00  0.00    +0.000 C 
ATOM      6  C   UNL     1      -8.940  -7.258  19.013  0.00  0.00    +0.000 C 
ATOM      7  C   UNL     1     -10.420  -6.879  18.794  0.00  0.00    +0.000 C 
ATOM      8  C   UNL     1     -11.032  -7.516  17.530  0.00  0.00    +0.000 C 
ATOM      9  C   UNL     1      -7.942  -6.636  17.997  0.00  0.00    +0.000 C 
ATOM     10  H   UNL     1      -7.605  -6.256  15.895  0.00  0.00    +0.000 HD
ATOM     11  H   UNL     1      -8.246  -8.555  15.940  0.00  0.00    +0.000 HD
ATOM     12  H   UNL     1      -9.467  -7.711  15.047  0.00  0.00    +0.000 HD
ATOM     13  H   UNL     1      -9.036 -10.210  17.350  0.00  0.00    +0.000 HD
ATOM     14  H   UNL     1     -10.487  -9.970  18.273  0.00  0.00    +0.000 HD
ATOM     15  H   UNL     1      -7.781  -9.104  18.919  0.00  0.00    +0.000 HD
ATOM     16  H   UNL     1      -9.207  -9.194  19.934  0.00  0.00    +0.000 HD
ATOM     17  H   UNL     1      -8.650  -6.915  20.016  0.00  0.00    +0.000 HD
ATOM     18  H   UNL     1     -10.554  -5.793  18.786  0.00  0.00    +0.000 HD
ATOM     19  H   UNL     1     -10.994  -7.235  19.659  0.00  0.00    +0.000 HD
ATOM     20  H   UNL     1     -11.397  -6.760  16.828  0.00  0.00    +0.000 HD
ATOM     21  H   UNL     1     -11.945  -8.052  17.825  0.00  0.00    +0.000 HD
ATOM     22  H   UNL     1      -7.048  -7.271  17.958  0.00  0.00    +0.000 HD
ENDROOT
BRANCH   1  25
ATOM     23  O   UNL     1      -9.350  -5.121  14.125  0.00  0.00    +0.000 OA
ATOM     24  C   UNL     1      -9.767  -4.778  15.222  0.00  0.00    +0.000 C 
ATOM     25  N   UNL     1      -9.349  -5.327  16.412  0.00  0.00    +0.000 N 
ATOM     26  H   UNL     1      -9.728  -4.967  17.274  0.00  0.00    +0.000 HD
BRANCH  24  27
ATOM     27  C   UNL     1     -10.861  -3.764  15.340  0.00  0.00    +0.000 A 
ATOM     28  C   UNL     1     -11.446  -3.559  16.597  0.00  0.00    +0.000 A 
ATOM     29  C   UNL     1     -12.406  -2.556  16.775  0.00  0.00    +0.000 A 
ATOM     30  C   UNL     1     -12.781  -1.769  15.691  0.00  0.00    +0.000 A 
ATOM     31  C   UNL     1     -12.229  -1.978  14.434  0.00  0.00    +0.000 A 
ATOM     32  C   UNL     1     -11.272  -2.980  14.254  0.00  0.00    +0.000 A 
ATOM     33  H   UNL     1     -11.137  -4.166  17.447  0.00  0.00    +0.000 HD
ATOM     34  H   UNL     1     -12.837  -2.403  17.760  0.00  0.00    +0.000 HD
ATOM     35  H   UNL     1     -12.538  -1.359  13.596  0.00  0.00    +0.000 HD
ATOM     36  H   UNL     1     -10.870  -3.137  13.259  0.00  0.00    +0.000 HD
BRANCH  30  37
ATOM     37  O   UNL     1     -13.697  -0.767  15.818  0.00  0.00    +0.000 OA
ATOM     38  H   UNL     1     -14.400  -1.060  16.422  0.00  0.00    +0.000 HD
ENDBRANCH  30  37
ENDBRANCH  24  27
ENDBRANCH   1  25
BRANCH   9  39
ATOM     39  O   UNL     1      -7.568  -5.305  18.438  0.00  0.00    +0.000 OA
BRANCH  39  40
ATOM     40  C   UNL     1      -6.922  -5.215  19.630  0.00  0.00    +0.000 C 
ATOM     41  O   UNL     1      -5.825  -5.675  19.894  0.00  0.00    +0.000 OA
BRANCH  40  42
ATOM     42  C   UNL     1      -7.695  -4.345  20.558  0.00  0.00    +0.000 A 
ATOM     43  C   UNL     1      -8.810  -3.649  20.073  0.00  0.00    +0.000 A 
ATOM     44  C   UNL     1      -9.597  -2.895  20.951  0.00  0.00    +0.000 A 
ATOM     45  C   UNL     1      -9.292  -2.826  22.324  0.00  0.00    +0.000 A 
ATOM     46  C   UNL     1      -8.195  -3.559  22.796  0.00  0.00    +0.000 A 
ATOM     47  C   UNL     1      -7.391  -4.286  21.923  0.00  0.00    +0.000 A 
ATOM     48  H   UNL     1      -9.055  -3.701  19.015  0.00  0.00    +0.000 HD
ATOM     49  H   UNL     1      -6.546  -4.832  22.324  0.00  0.00    +0.000 HD
BRANCH  44  50
ATOM     50  O   UNL     1     -10.672  -2.216  20.446  0.00  0.00    +0.000 OA
ATOM     51  H   UNL     1     -10.390  -1.378  20.048  0.00  0.00    +0.000 HD
ENDBRANCH  44  50
BRANCH  45  52
ATOM     52  C   UNL     1     -10.151  -2.029  23.238  0.00  0.00    +0.000 C 
ATOM     53  O   UNL     1     -11.193  -2.537  23.668  0.00  0.00    +0.000 OA
BRANCH  52  54
ATOM     54  C   UNL     1      -9.739  -0.727  23.846  0.00  0.00    +0.000 A 
ATOM     55  C   UNL     1      -9.177  -0.786  25.142  0.00  0.00    +0.000 A 
ATOM     56  C   UNL     1      -8.662   0.341  25.774  0.00  0.00    +0.000 A 
ATOM     57  C   UNL     1      -8.696   1.569  25.131  0.00  0.00    +0.000 A 
ATOM     58  C   UNL     1      -9.266   1.669  23.864  0.00  0.00    +0.000 A 
ATOM     59  C   UNL     1      -9.785   0.529  23.212  0.00  0.00    +0.000 A 
ATOM     60  H   UNL     1      -8.238   0.253  26.772  0.00  0.00    +0.000 HD
ATOM     61  H   UNL     1      -8.297   2.453  25.628  0.00  0.00    +0.000 HD
ATOM     62  H   UNL     1      -9.322   2.656  23.404  0.00  0.00    +0.000 HD
BRANCH  55  63
ATOM     63  O   UNL     1      -9.075  -1.953  25.862  0.00  0.00    +0.000 OA
ATOM     64  H   UNL     1      -8.825  -1.723  26.787  0.00  0.00    +0.000 HD
ENDBRANCH  55  63
BRANCH  59  65
ATOM     65  C   UNL     1     -10.417   0.734  21.884  0.00  0.00    +0.000 C 
ATOM     66  O   UNL     1     -11.598   0.995  21.743  0.00  0.00    +0.000 OA
BRANCH  65  67
ATOM     67  O   UNL     1      -9.569   0.589  20.842  0.00  0.00    +0.000 OA
ATOM     68  H   UNL     1      -8.988   1.347  20.646  0.00  0.00    +0.000 HD
ENDBRANCH  65  67
ENDBRANCH  59  65
ENDBRANCH  52  54
ENDBRANCH  45  52
BRANCH  46  69
ATOM     69  O   UNL     1      -7.829  -3.654  24.116  0.00  0.00    +0.000 OA
ATOM     70  H   UNL     1      -7.008  -4.165  24.189  0.00  0.00    +0.000 HD
ENDBRANCH  46  69
ENDBRANCH  40  42
ENDBRANCH  39  40
ENDBRANCH   9  39
TORSDOF 13
ENDMDL
MODEL 6
REMARK VINA RESULT:    -9.787      3.447      7.243
REMARK INTER + INTRA:         -18.191
REMARK INTER:                 -15.034
REMARK INTRA:                  -3.157
REMARK UNBOUND:                -2.396
REMARK  Name = 
REMARK  13 active torsions:
REMARK  status: ('A' for Active; 'I' for Inactive)
REMARK    1  A    between atoms: C_2  and  C_36
REMARK    2  A    between atoms: N_3  and  C_4
REMARK    3  A    between atoms: C_12  and  O_13
REMARK    4  A    between atoms: O_13  and  C_14
REMARK    5  A    between atoms: C_14  and  C_16
REMARK    6  A    between atoms: C_18  and  O_19
REMARK    7  A    between atoms: C_20  and  C_21
REMARK    8  A    between atoms: C_21  and  C_23
REMARK    9  A    between atoms: C_24  and  O_25
REMARK   10  A    between atoms: C_29  and  C_30
REMARK   11  A    between atoms: C_30  and  O_32
REMARK   12  A    between atoms: C_33  and  O_34
REMARK   13  A    between atoms: C_39  and  O_40
REMARK                            x       y       z     vdW  Elec       q    Type
REMARK                         _______ _______ _______ _____ _____    ______ ____
ROOT
ATOM      1  C   UNL     1     -12.084   0.024  16.597  0.00  0.00    +0.000 C 
ATOM      2  C   UNL     1     -11.407   1.381  16.268  0.00  0.00    +0.000 C 
ATOM      3  N   UNL     1      -9.932   1.438  16.167  0.00  0.00    +0.000 NA
ATOM      4  C   UNL     1      -9.282   1.797  17.429  0.00  0.00    +0.000 C 
ATOM      5  C   UNL     1      -9.395   0.720  18.511  0.00  0.00    +0.000 C 
ATOM      6  C   UNL     1      -9.939  -0.620  17.977  0.00  0.00    +0.000 C 
ATOM      7  C   UNL     1      -9.228  -0.927  16.642  0.00  0.00    +0.000 C 
ATOM      8  C   UNL     1      -9.318   0.226  15.623  0.00  0.00    +0.000 C 
ATOM      9  C   UNL     1     -11.491  -0.568  17.901  0.00  0.00    +0.000 C 
ATOM     10  H   UNL     1     -13.155   0.204  16.757  0.00  0.00    +0.000 HD
ATOM     11  H   UNL     1     -11.740   2.110  17.021  0.00  0.00    +0.000 HD
ATOM     12  H   UNL     1     -11.808   1.764  15.325  0.00  0.00    +0.000 HD
ATOM     13  H   UNL     1      -9.662   2.754  17.805  0.00  0.00    +0.000 HD
ATOM     14  H   UNL     1      -8.218   1.983  17.227  0.00  0.00    +0.000 HD
ATOM     15  H   UNL     1     -10.016   1.085  19.337  0.00  0.00    +0.000 HD
ATOM     16  H   UNL     1      -8.396   0.550  18.934  0.00  0.00    +0.000 HD
ATOM     17  H   UNL     1      -9.668  -1.408  18.692  0.00  0.00    +0.000 HD
ATOM     18  H   UNL     1      -9.592  -1.862  16.206  0.00  0.00    +0.000 HD
ATOM     19  H   UNL     1      -8.166  -1.103  16.855  0.00  0.00    +0.000 HD
ATOM     20  H   UNL     1      -9.812  -0.086  14.697  0.00  0.00    +0.000 HD
ATOM     21  H   UNL     1      -8.300   0.475  15.297  0.00  0.00    +0.000 HD
ATOM     22  H   UNL     1     -11.856   0.054  18.728  0.00  0.00    +0.000 HD
ENDROOT
BRANCH   1  25
ATOM     23  O   UNL     1     -13.596  -0.026  14.099  0.00  0.00    +0.000 OA
ATOM     24  C   UNL     1     -12.753  -0.881  14.330  0.00  0.00    +0.000 C 
ATOM     25  N   UNL     1     -12.046  -0.969  15.506  0.00  0.00    +0.000 N 
ATOM     26  H   UNL     1     -11.385  -1.721  15.622  0.00  0.00    +0.000 HD
BRANCH  24  27
ATOM     27  C   UNL     1     -12.360  -1.868  13.277  0.00  0.00    +0.000 A 
ATOM     28  C   UNL     1     -11.470  -2.894  13.625  0.00  0.00    +0.000 A 
ATOM     29  C   UNL     1     -11.148  -3.894  12.700  0.00  0.00    +0.000 A 
ATOM     30  C   UNL     1     -11.712  -3.857  11.429  0.00  0.00    +0.000 A 
ATOM     31  C   UNL     1     -12.574  -2.832  11.062  0.00  0.00    +0.000 A 
ATOM     32  C   UNL     1     -12.896  -1.832  11.983  0.00  0.00    +0.000 A 
ATOM     33  H   UNL     1     -11.046  -2.930  14.627  0.00  0.00    +0.000 HD
ATOM     34  H   UNL     1     -10.469  -4.689  12.994  0.00  0.00    +0.000 HD
ATOM     35  H   UNL     1     -13.000  -2.814  10.062  0.00  0.00    +0.000 HD
ATOM     36  H   UNL     1     -13.555  -1.032  11.666  0.00  0.00    +0.000 HD
BRANCH  30  37
ATOM     37  O   UNL     1     -11.444  -4.819  10.500  0.00  0.00    +0.000 OA
ATOM     38  H   UNL     1     -10.513  -5.083  10.583  0.00  0.00    +0.000 HD
ENDBRANCH  30  37
ENDBRANCH  24  27
ENDBRANCH   1  25
BRANCH   9  39
ATOM     39  O   UNL     1     -12.027  -1.909  18.034  0.00  0.00    +0.000 OA
BRANCH  39  40
ATOM     40  C   UNL     1     -11.597  -2.637  19.097  0.00  0.00    +0.000 C 
ATOM     41  O   UNL     1     -11.880  -2.444  20.267  0.00  0.00    +0.000 OA
BRANCH  40  42
ATOM     42  C   UNL     1     -10.818  -3.813  18.622  0.00  0.00    +0.000 A 
ATOM     43  C   UNL     1     -11.267  -4.522  17.501  0.00  0.00    +0.000 A 
ATOM     44  C   UNL     1     -10.500  -5.576  16.990  0.00  0.00    +0.000 A 
ATOM     45  C   UNL     1      -9.274  -5.937  17.582  0.00  0.00    +0.000 A 
ATOM     46  C   UNL     1      -8.825  -5.192  18.680  0.00  0.00    +0.000 A 
ATOM     47  C   UNL     1      -9.597  -4.163  19.211  0.00  0.00    +0.000 A 
ATOM     48  H   UNL     1     -12.210  -4.246  17.034  0.00  0.00    +0.000 HD
ATOM     49  H   UNL     1      -9.220  -3.616  20.066  0.00  0.00    +0.000 HD
BRANCH  44  50
ATOM     50  O   UNL     1     -10.970  -6.258  15.901  0.00  0.00    +0.000 OA
ATOM     51  H   UNL     1     -10.784  -5.768  15.085  0.00  0.00    +0.000 HD
ENDBRANCH  44  50
BRANCH  45  52
ATOM     52  C   UNL     1      -8.473  -7.052  17.013  0.00  0.00    +0.000 C 
ATOM     53  O   UNL     1      -7.304  -6.833  16.677  0.00  0.00    +0.000 OA
BRANCH  52  54
ATOM     54  C   UNL     1      -8.914  -8.480  17.012  0.00  0.00    +0.000 A 
ATOM     55  C   UNL     1      -9.242  -9.039  15.755  0.00  0.00    +0.000 A 
ATOM     56  C   UNL     1      -9.568 -10.383  15.608  0.00  0.00    +0.000 A 
ATOM     57  C   UNL     1      -9.581 -11.216  16.716  0.00  0.00    +0.000 A 
ATOM     58  C   UNL     1      -9.289 -10.694  17.975  0.00  0.00    +0.000 A 
ATOM     59  C   UNL     1      -8.951  -9.332  18.133  0.00  0.00    +0.000 A 
ATOM     60  H   UNL     1      -9.813 -10.773  14.623  0.00  0.00    +0.000 HD
ATOM     61  H   UNL     1      -9.842 -12.267  16.602  0.00  0.00    +0.000 HD
ATOM     62  H   UNL     1      -9.356 -11.361  18.833  0.00  0.00    +0.000 HD
BRANCH  55  63
ATOM     63  O   UNL     1      -9.241  -8.311  14.588  0.00  0.00    +0.000 OA
ATOM     64  H   UNL     1      -9.713  -8.833  13.899  0.00  0.00    +0.000 HD
ENDBRANCH  55  63
BRANCH  59  65
ATOM     65  C   UNL     1      -8.701  -8.849  19.514  0.00  0.00    +0.000 C 
ATOM     66  O   UNL     1      -7.739  -8.166  19.816  0.00  0.00    +0.000 OA
BRANCH  65  67
ATOM     67  O   UNL     1      -9.626  -9.251  20.414  0.00  0.00    +0.000 OA
ATOM     68  H   UNL     1      -9.610 -10.193  20.663  0.00  0.00    +0.000 HD
ENDBRANCH  65  67
ENDBRANCH  59  65
ENDBRANCH  52  54
ENDBRANCH  45  52
BRANCH  46  69
ATOM     69  O   UNL     1      -7.616  -5.374  19.305  0.00  0.00    +0.000 OA
ATOM     70  H   UNL     1      -6.923  -4.905  18.814  0.00  0.00    +0.000 HD
ENDBRANCH  46  69
ENDBRANCH  40  42
ENDBRANCH  39  40
ENDBRANCH   9  39
TORSDOF 13
ENDMDL
MODEL 7
REMARK VINA RESULT:    -9.558      2.552     10.123
REMARK INTER + INTRA:         -17.821
REMARK INTER:                 -16.614
REMARK INTRA:                  -1.208
REMARK UNBOUND:                -2.396
REMARK  Name = 
REMARK  13 active torsions:
REMARK  status: ('A' for Active; 'I' for Inactive)
REMARK    1  A    between atoms: C_2  and  C_36
REMARK    2  A    between atoms: N_3  and  C_4
REMARK    3  A    between atoms: C_12  and  O_13
REMARK    4  A    between atoms: O_13  and  C_14
REMARK    5  A    between atoms: C_14  and  C_16
REMARK    6  A    between atoms: C_18  and  O_19
REMARK    7  A    between atoms: C_20  and  C_21
REMARK    8  A    between atoms: C_21  and  C_23
REMARK    9  A    between atoms: C_24  and  O_25
REMARK   10  A    between atoms: C_29  and  C_30
REMARK   11  A    between atoms: C_30  and  O_32
REMARK   12  A    between atoms: C_33  and  O_34
REMARK   13  A    between atoms: C_39  and  O_40
REMARK                            x       y       z     vdW  Elec       q    Type
REMARK                         _______ _______ _______ _____ _____    ______ ____
ROOT
ATOM      1  C   UNL     1     -10.048  -6.849  18.903  0.00  0.00    +0.000 C 
ATOM      2  C   UNL     1     -11.482  -6.478  18.439  0.00  0.00    +0.000 C 
ATOM      3  N   UNL     1     -11.680  -5.973  17.062  0.00  0.00    +0.000 NA
ATOM      4  C   UNL     1     -11.629  -4.513  16.972  0.00  0.00    +0.000 C 
ATOM      5  C   UNL     1     -10.241  -3.924  17.232  0.00  0.00    +0.000 C 
ATOM      6  C   UNL     1      -9.130  -4.992  17.280  0.00  0.00    +0.000 C 
ATOM      7  C   UNL     1      -9.355  -5.970  16.107  0.00  0.00    +0.000 C 
ATOM      8  C   UNL     1     -10.778  -6.561  16.070  0.00  0.00    +0.000 C 
ATOM      9  C   UNL     1      -9.089  -5.649  18.688  0.00  0.00    +0.000 C 
ATOM     10  H   UNL     1     -10.081  -7.075  19.976  0.00  0.00    +0.000 HD
ATOM     11  H   UNL     1     -11.880  -5.739  19.149  0.00  0.00    +0.000 HD
ATOM     12  H   UNL     1     -12.135  -7.347  18.558  0.00  0.00    +0.000 HD
ATOM     13  H   UNL     1     -12.368  -4.055  17.641  0.00  0.00    +0.000 HD
ATOM     14  H   UNL     1     -11.952  -4.219  15.963  0.00  0.00    +0.000 HD
ATOM     15  H   UNL     1     -10.251  -3.339  18.159  0.00  0.00    +0.000 HD
ATOM     16  H   UNL     1     -10.011  -3.213  16.427  0.00  0.00    +0.000 HD
ATOM     17  H   UNL     1      -8.167  -4.490  17.120  0.00  0.00    +0.000 HD
ATOM     18  H   UNL     1      -8.603  -6.764  16.105  0.00  0.00    +0.000 HD
ATOM     19  H   UNL     1      -9.196  -5.419  15.171  0.00  0.00    +0.000 HD
ATOM     20  H   UNL     1     -10.768  -7.653  16.142  0.00  0.00    +0.000 HD
ATOM     21  H   UNL     1     -11.200  -6.376  15.073  0.00  0.00    +0.000 HD
ATOM     22  H   UNL     1      -9.359  -4.888  19.432  0.00  0.00    +0.000 HD
ENDROOT
BRANCH   1  25
ATOM     23  O   UNL     1      -9.173  -9.315  20.199  0.00  0.00    +0.000 OA
ATOM     24  C   UNL     1      -9.165  -9.220  18.980  0.00  0.00    +0.000 C 
ATOM     25  N   UNL     1      -9.497  -8.074  18.294  0.00  0.00    +0.000 N 
ATOM     26  H   UNL     1      -9.440  -8.076  17.287  0.00  0.00    +0.000 HD
BRANCH  24  27
ATOM     27  C   UNL     1      -8.869 -10.410  18.124  0.00  0.00    +0.000 A 
ATOM     28  C   UNL     1      -8.429 -11.586  18.747  0.00  0.00    +0.000 A 
ATOM     29  C   UNL     1      -8.230 -12.751  17.998  0.00  0.00    +0.000 A 
ATOM     30  C   UNL     1      -8.464 -12.731  16.627  0.00  0.00    +0.000 A 
ATOM     31  C   UNL     1      -8.875 -11.566  15.992  0.00  0.00    +0.000 A 
ATOM     32  C   UNL     1      -9.072 -10.401  16.737  0.00  0.00    +0.000 A 
ATOM     33  H   UNL     1      -8.265 -11.602  19.823  0.00  0.00    +0.000 HD
ATOM     34  H   UNL     1      -7.904 -13.657  18.502  0.00  0.00    +0.000 HD
ATOM     35  H   UNL     1      -9.046 -11.565  14.919  0.00  0.00    +0.000 HD
ATOM     36  H   UNL     1      -9.373  -9.500  16.215  0.00  0.00    +0.000 HD
BRANCH  30  37
ATOM     37  O   UNL     1      -8.304 -13.845  15.858  0.00  0.00    +0.000 OA
ATOM     38  H   UNL     1      -7.506 -13.737  15.314  0.00  0.00    +0.000 HD
ENDBRANCH  30  37
ENDBRANCH  24  27
ENDBRANCH   1  25
BRANCH   9  39
ATOM     39  O   UNL     1      -7.748  -6.132  18.958  0.00  0.00    +0.000 OA
BRANCH  39  40
ATOM     40  C   UNL     1      -6.883  -5.250  19.525  0.00  0.00    +0.000 C 
ATOM     41  O   UNL     1      -5.692  -5.152  19.286  0.00  0.00    +0.000 OA
BRANCH  40  42
ATOM     42  C   UNL     1      -7.628  -4.306  20.403  0.00  0.00    +0.000 A 
ATOM     43  C   UNL     1      -8.365  -3.268  19.820  0.00  0.00    +0.000 A 
ATOM     44  C   UNL     1      -9.139  -2.425  20.626  0.00  0.00    +0.000 A 
ATOM     45  C   UNL     1      -9.197  -2.606  22.022  0.00  0.00    +0.000 A 
ATOM     46  C   UNL     1      -8.483  -3.674  22.581  0.00  0.00    +0.000 A 
ATOM     47  C   UNL     1      -7.687  -4.496  21.789  0.00  0.00    +0.000 A 
ATOM     48  H   UNL     1      -8.330  -3.125  18.742  0.00  0.00    +0.000 HD
ATOM     49  H   UNL     1      -7.142  -5.304  22.260  0.00  0.00    +0.000 HD
BRANCH  44  50
ATOM     50  O   UNL     1      -9.838  -1.412  20.030  0.00  0.00    +0.000 OA
ATOM     51  H   UNL     1     -10.783  -1.629  19.987  0.00  0.00    +0.000 HD
ENDBRANCH  44  50
BRANCH  45  52
ATOM     52  C   UNL     1     -10.038  -1.705  22.854  0.00  0.00    +0.000 C 
ATOM     53  O   UNL     1     -11.245  -1.947  22.958  0.00  0.00    +0.000 OA
BRANCH  52  54
ATOM     54  C   UNL     1      -9.487  -0.644  23.751  0.00  0.00    +0.000 A 
ATOM     55  C   UNL     1      -9.283   0.629  23.170  0.00  0.00    +0.000 A 
ATOM     56  C   UNL     1      -8.872   1.725  23.922  0.00  0.00    +0.000 A 
ATOM     57  C   UNL     1      -8.646   1.584  25.283  0.00  0.00    +0.000 A 
ATOM     58  C   UNL     1      -8.812   0.337  25.884  0.00  0.00    +0.000 A 
ATOM     59  C   UNL     1      -9.235  -0.779  25.130  0.00  0.00    +0.000 A 
ATOM     60  H   UNL     1      -8.727   2.687  23.437  0.00  0.00    +0.000 HD
ATOM     61  H   UNL     1      -8.319   2.440  25.870  0.00  0.00    +0.000 HD
ATOM     62  H   UNL     1      -8.581   0.246  26.944  0.00  0.00    +0.000 HD
BRANCH  55  63
ATOM     63  O   UNL     1      -9.495   0.887  21.836  0.00  0.00    +0.000 OA
ATOM     64  H   UNL     1      -8.963   0.245  21.311  0.00  0.00    +0.000 HD
ENDBRANCH  55  63
BRANCH  59  65
ATOM     65  C   UNL     1      -9.340  -2.079  25.840  0.00  0.00    +0.000 C 
ATOM     66  O   UNL     1      -8.458  -2.519  26.554  0.00  0.00    +0.000 OA
BRANCH  65  67
ATOM     67  O   UNL     1     -10.497  -2.740  25.611  0.00  0.00    +0.000 OA
ATOM     68  H   UNL     1     -10.576  -3.626  26.009  0.00  0.00    +0.000 HD
ENDBRANCH  65  67
ENDBRANCH  59  65
ENDBRANCH  52  54
ENDBRANCH  45  52
BRANCH  46  69
ATOM     69  O   UNL     1      -8.512  -4.021  23.909  0.00  0.00    +0.000 OA
ATOM     70  H   UNL     1      -8.230  -3.266  24.448  0.00  0.00    +0.000 HD
ENDBRANCH  46  69
ENDBRANCH  40  42
ENDBRANCH  39  40
ENDBRANCH   9  39
TORSDOF 13
ENDMDL
MODEL 8
REMARK VINA RESULT:    -9.464      3.023      5.222
REMARK INTER + INTRA:         -17.670
REMARK INTER:                 -15.856
REMARK INTRA:                  -1.814
REMARK UNBOUND:                -2.396
REMARK  Name = 
REMARK  13 active torsions:
REMARK  status: ('A' for Active; 'I' for Inactive)
REMARK    1  A    between atoms: C_2  and  C_36
REMARK    2  A    between atoms: N_3  and  C_4
REMARK    3  A    between atoms: C_12  and  O_13
REMARK    4  A    between atoms: O_13  and  C_14
REMARK    5  A    between atoms: C_14  and  C_16
REMARK    6  A    between atoms: C_18  and  O_19
REMARK    7  A    between atoms: C_20  and  C_21
REMARK    8  A    between atoms: C_21  and  C_23
REMARK    9  A    between atoms: C_24  and  O_25
REMARK   10  A    between atoms: C_29  and  C_30
REMARK   11  A    between atoms: C_30  and  O_32
REMARK   12  A    between atoms: C_33  and  O_34
REMARK   13  A    between atoms: C_39  and  O_40
REMARK                            x       y       z     vdW  Elec       q    Type
REMARK                         _______ _______ _______ _____ _____    ______ ____
ROOT
ATOM      1  C   UNL     1     -10.963  -1.767  22.957  0.00  0.00    +0.000 C 
ATOM      2  C   UNL     1     -10.836  -2.270  24.420  0.00  0.00    +0.000 C 
ATOM      3  N   UNL     1      -9.560  -2.061  25.139  0.00  0.00    +0.000 NA
ATOM      4  C   UNL     1      -8.639  -3.193  25.018  0.00  0.00    +0.000 C 
ATOM      5  C   UNL     1      -8.076  -3.386  23.608  0.00  0.00    +0.000 C 
ATOM      6  C   UNL     1      -8.386  -2.205  22.667  0.00  0.00    +0.000 C 
ATOM      7  C   UNL     1      -8.122  -0.895  23.439  0.00  0.00    +0.000 C 
ATOM      8  C   UNL     1      -8.866  -0.821  24.787  0.00  0.00    +0.000 C 
ATOM      9  C   UNL     1      -9.821  -2.352  22.088  0.00  0.00    +0.000 C 
ATOM     10  H   UNL     1     -11.920  -2.122  22.554  0.00  0.00    +0.000 HD
ATOM     11  H   UNL     1     -11.074  -3.343  24.424  0.00  0.00    +0.000 HD
ATOM     12  H   UNL     1     -11.624  -1.815  25.027  0.00  0.00    +0.000 HD
ATOM     13  H   UNL     1      -9.111  -4.118  25.369  0.00  0.00    +0.000 HD
ATOM     14  H   UNL     1      -7.802  -3.031  25.712  0.00  0.00    +0.000 HD
ATOM     15  H   UNL     1      -8.450  -4.324  23.183  0.00  0.00    +0.000 HD
ATOM     16  H   UNL     1      -6.987  -3.499  23.684  0.00  0.00    +0.000 HD
ATOM     17  H   UNL     1      -7.682  -2.247  21.824  0.00  0.00    +0.000 HD
ATOM     18  H   UNL     1      -8.346  -0.020  22.821  0.00  0.00    +0.000 HD
ATOM     19  H   UNL     1      -7.046  -0.834  23.647  0.00  0.00    +0.000 HD
ATOM     20  H   UNL     1      -9.543   0.038  24.832  0.00  0.00    +0.000 HD
ATOM     21  H   UNL     1      -8.130  -0.606  25.573  0.00  0.00    +0.000 HD
ATOM     22  H   UNL     1     -10.033  -3.421  21.960  0.00  0.00    +0.000 HD
ENDROOT
BRANCH   1  25
ATOM     23  O   UNL     1     -13.143  -0.124  21.918  0.00  0.00    +0.000 OA
ATOM     24  C   UNL     1     -12.132   0.399  22.364  0.00  0.00    +0.000 C 
ATOM     25  N   UNL     1     -11.034  -0.300  22.810  0.00  0.00    +0.000 N 
ATOM     26  H   UNL     1     -10.232   0.212  23.141  0.00  0.00    +0.000 HD
BRANCH  24  27
ATOM     27  C   UNL     1     -12.055   1.882  22.541  0.00  0.00    +0.000 A 
ATOM     28  C   UNL     1     -11.050   2.403  23.369  0.00  0.00    +0.000 A 
ATOM     29  C   UNL     1     -10.881   3.787  23.490  0.00  0.00    +0.000 A 
ATOM     30  C   UNL     1     -11.723   4.643  22.787  0.00  0.00    +0.000 A 
ATOM     31  C   UNL     1     -12.739   4.141  21.983  0.00  0.00    +0.000 A 
ATOM     32  C   UNL     1     -12.911   2.761  21.863  0.00  0.00    +0.000 A 
ATOM     33  H   UNL     1     -10.382   1.730  23.903  0.00  0.00    +0.000 HD
ATOM     34  H   UNL     1     -10.087   4.171  24.124  0.00  0.00    +0.000 HD
ATOM     35  H   UNL     1     -13.393   4.824  21.447  0.00  0.00    +0.000 HD
ATOM     36  H   UNL     1     -13.724   2.394  21.246  0.00  0.00    +0.000 HD
BRANCH  30  37
ATOM     37  O   UNL     1     -11.585   5.997  22.856  0.00  0.00    +0.000 OA
ATOM     38  H   UNL     1     -12.011   6.314  23.670  0.00  0.00    +0.000 HD
ENDBRANCH  30  37
ENDBRANCH  24  27
ENDBRANCH   1  25
BRANCH   9  39
ATOM     39  O   UNL     1      -9.894  -1.690  20.799  0.00  0.00    +0.000 OA
BRANCH  39  40
ATOM     40  C   UNL     1     -10.735  -2.231  19.880  0.00  0.00    +0.000 C 
ATOM     41  O   UNL     1     -11.794  -1.760  19.503  0.00  0.00    +0.000 OA
BRANCH  40  42
ATOM     42  C   UNL     1     -10.114  -3.444  19.281  0.00  0.00    +0.000 A 
ATOM     43  C   UNL     1     -10.760  -4.089  18.219  0.00  0.00    +0.000 A 
ATOM     44  C   UNL     1     -10.148  -5.178  17.589  0.00  0.00    +0.000 A 
ATOM     45  C   UNL     1      -8.882  -5.639  18.000  0.00  0.00    +0.000 A 
ATOM     46  C   UNL     1      -8.235  -4.957  19.039  0.00  0.00    +0.000 A 
ATOM     47  C   UNL     1      -8.852  -3.893  19.689  0.00  0.00    +0.000 A 
ATOM     48  H   UNL     1     -11.736  -3.736  17.892  0.00  0.00    +0.000 HD
ATOM     49  H   UNL     1      -8.324  -3.397  20.495  0.00  0.00    +0.000 HD
BRANCH  44  50
ATOM     50  O   UNL     1     -10.809  -5.797  16.562  0.00  0.00    +0.000 OA
ATOM     51  H   UNL     1     -11.020  -6.714  16.796  0.00  0.00    +0.000 HD
ENDBRANCH  44  50
BRANCH  45  52
ATOM     52  C   UNL     1      -8.248  -6.790  17.305  0.00  0.00    +0.000 C 
ATOM     53  O   UNL     1      -7.077  -6.681  16.922  0.00  0.00    +0.000 OA
BRANCH  52  54
ATOM     54  C   UNL     1      -8.857  -8.153  17.223  0.00  0.00    +0.000 A 
ATOM     55  C   UNL     1      -9.312  -8.564  15.949  0.00  0.00    +0.000 A 
ATOM     56  C   UNL     1      -9.803  -9.845  15.720  0.00  0.00    +0.000 A 
ATOM     57  C   UNL     1      -9.861 -10.759  16.761  0.00  0.00    +0.000 A 
ATOM     58  C   UNL     1      -9.445 -10.379  18.036  0.00  0.00    +0.000 A 
ATOM     59  C   UNL     1      -8.938  -9.084  18.276  0.00  0.00    +0.000 A 
ATOM     60  H   UNL     1     -10.143 -10.122  14.725  0.00  0.00    +0.000 HD
ATOM     61  H   UNL     1     -10.251 -11.760  16.584  0.00  0.00    +0.000 HD
ATOM     62  H   UNL     1      -9.548 -11.103  18.844  0.00  0.00    +0.000 HD
BRANCH  55  63
ATOM     63  O   UNL     1      -9.282  -7.747  14.843  0.00  0.00    +0.000 OA
ATOM     64  H   UNL     1      -9.090  -6.829  15.144  0.00  0.00    +0.000 HD
ENDBRANCH  55  63
BRANCH  59  65
ATOM     65  C   UNL     1      -8.563  -8.749  19.673  0.00  0.00    +0.000 C 
ATOM     66  O   UNL     1      -7.619  -8.032  19.954  0.00  0.00    +0.000 OA
BRANCH  65  67
ATOM     67  O   UNL     1      -9.350  -9.324  20.608  0.00  0.00    +0.000 OA
ATOM     68  H   UNL     1      -9.974 -10.004  20.292  0.00  0.00    +0.000 HD
ENDBRANCH  65  67
ENDBRANCH  59  65
ENDBRANCH  52  54
ENDBRANCH  45  52
BRANCH  46  69
ATOM     69  O   UNL     1      -6.969  -5.239  19.488  0.00  0.00    +0.000 OA
ATOM     70  H   UNL     1      -6.317  -4.826  18.900  0.00  0.00    +0.000 HD
ENDBRANCH  46  69
ENDBRANCH  40  42
ENDBRANCH  39  40
ENDBRANCH   9  39
TORSDOF 13
ENDMDL
MODEL 9
REMARK VINA RESULT:    -9.315      2.878      4.687
REMARK INTER + INTRA:         -17.428
REMARK INTER:                 -17.021
REMARK INTRA:                  -0.407
REMARK UNBOUND:                -2.396
REMARK  Name = 
REMARK  13 active torsions:
REMARK  status: ('A' for Active; 'I' for Inactive)
REMARK    1  A    between atoms: C_2  and  C_36
REMARK    2  A    between atoms: N_3  and  C_4
REMARK    3  A    between atoms: C_12  and  O_13
REMARK    4  A    between atoms: O_13  and  C_14
REMARK    5  A    between atoms: C_14  and  C_16
REMARK    6  A    between atoms: C_18  and  O_19
REMARK    7  A    between atoms: C_20  and  C_21
REMARK    8  A    between atoms: C_21  and  C_23
REMARK    9  A    between atoms: C_24  and  O_25
REMARK   10  A    between atoms: C_29  and  C_30
REMARK   11  A    between atoms: C_30  and  O_32
REMARK   12  A    between atoms: C_33  and  O_34
REMARK   13  A    between atoms: C_39  and  O_40
REMARK                            x       y       z     vdW  Elec       q    Type
REMARK                         _______ _______ _______ _____ _____    ______ ____
ROOT
ATOM      1  C   UNL     1     -10.506  -2.003  22.263  0.00  0.00    +0.000 C 
ATOM      2  C   UNL     1     -10.652  -2.472  23.735  0.00  0.00    +0.000 C 
ATOM      3  N   UNL     1      -9.553  -2.196  24.686  0.00  0.00    +0.000 NA
ATOM      4  C   UNL     1      -8.584  -3.290  24.780  0.00  0.00    +0.000 C 
ATOM      5  C   UNL     1      -7.747  -3.487  23.514  0.00  0.00    +0.000 C 
ATOM      6  C   UNL     1      -7.907  -2.339  22.498  0.00  0.00    +0.000 C 
ATOM      7  C   UNL     1      -7.850  -1.004  23.272  0.00  0.00    +0.000 C 
ATOM      8  C   UNL     1      -8.850  -0.935  24.444  0.00  0.00    +0.000 C 
ATOM      9  C   UNL     1      -9.193  -2.557  21.653  0.00  0.00    +0.000 C 
ATOM     10  H   UNL     1     -11.349  -2.406  21.688  0.00  0.00    +0.000 HD
ATOM     11  H   UNL     1     -10.846  -3.554  23.721  0.00  0.00    +0.000 HD
ATOM     12  H   UNL     1     -11.561  -2.039  24.162  0.00  0.00    +0.000 HD
ATOM     13  H   UNL     1      -9.082  -4.228  25.056  0.00  0.00    +0.000 HD
ATOM     14  H   UNL     1      -7.908  -3.080  25.621  0.00  0.00    +0.000 HD
ATOM     15  H   UNL     1      -7.993  -4.448  23.049  0.00  0.00    +0.000 HD
ATOM     16  H   UNL     1      -6.690  -3.553  23.806  0.00  0.00    +0.000 HD
ATOM     17  H   UNL     1      -7.049  -2.367  21.813  0.00  0.00    +0.000 HD
ATOM     18  H   UNL     1      -7.980  -0.151  22.599  0.00  0.00    +0.000 HD
ATOM     19  H   UNL     1      -6.840  -0.894  23.686  0.00  0.00    +0.000 HD
ATOM     20  H   UNL     1      -9.554  -0.104  24.331  0.00  0.00    +0.000 HD
ATOM     21  H   UNL     1      -8.292  -0.674  25.353  0.00  0.00    +0.000 HD
ATOM     22  H   UNL     1      -9.335  -3.636  21.514  0.00  0.00    +0.000 HD
ENDROOT
BRANCH   1  25
ATOM     23  O   UNL     1     -12.883  -0.312  22.147  0.00  0.00    +0.000 OA
ATOM     24  C   UNL     1     -11.768   0.184  22.085  0.00  0.00    +0.000 C 
ATOM     25  N   UNL     1     -10.600  -0.544  22.065  0.00  0.00    +0.000 N 
ATOM     26  H   UNL     1      -9.723  -0.054  21.987  0.00  0.00    +0.000 HD
BRANCH  24  27
ATOM     27  C   UNL     1     -11.590   1.669  22.115  0.00  0.00    +0.000 A 
ATOM     28  C   UNL     1     -12.714   2.479  21.903  0.00  0.00    +0.000 A 
ATOM     29  C   UNL     1     -12.614   3.870  22.016  0.00  0.00    +0.000 A 
ATOM     30  C   UNL     1     -11.387   4.444  22.331  0.00  0.00    +0.000 A 
ATOM     31  C   UNL     1     -10.259   3.656  22.518  0.00  0.00    +0.000 A 
ATOM     32  C   UNL     1     -10.356   2.267  22.404  0.00  0.00    +0.000 A 
ATOM     33  H   UNL     1     -13.677   2.024  21.674  0.00  0.00    +0.000 HD
ATOM     34  H   UNL     1     -13.500   4.480  21.863  0.00  0.00    +0.000 HD
ATOM     35  H   UNL     1      -9.306   4.121  22.756  0.00  0.00    +0.000 HD
ATOM     36  H   UNL     1      -9.457   1.675  22.535  0.00  0.00    +0.000 HD
BRANCH  30  37
ATOM     37  O   UNL     1     -11.244   5.793  22.471  0.00  0.00    +0.000 OA
ATOM     38  H   UNL     1     -10.475   5.969  23.039  0.00  0.00    +0.000 HD
ENDBRANCH  30  37
ENDBRANCH  24  27
ENDBRANCH   1  25
BRANCH   9  39
ATOM     39  O   UNL     1      -9.033  -1.923  20.357  0.00  0.00    +0.000 OA
BRANCH  39  40
ATOM     40  C   UNL     1      -9.795  -2.407  19.341  0.00  0.00    +0.000 C 
ATOM     41  O   UNL     1     -10.494  -1.753  18.587  0.00  0.00    +0.000 OA
BRANCH  40  42
ATOM     42  C   UNL     1      -9.555  -3.868  19.184  0.00  0.00    +0.000 A 
ATOM     43  C   UNL     1      -8.291  -4.390  19.485  0.00  0.00    +0.000 A 
ATOM     44  C   UNL     1      -8.075  -5.771  19.424  0.00  0.00    +0.000 A 
ATOM     45  C   UNL     1      -9.113  -6.655  19.070  0.00  0.00    +0.000 A 
ATOM     46  C   UNL     1     -10.380  -6.117  18.809  0.00  0.00    +0.000 A 
ATOM     47  C   UNL     1     -10.594  -4.742  18.838  0.00  0.00    +0.000 A 
ATOM     48  H   UNL     1      -7.486  -3.715  19.765  0.00  0.00    +0.000 HD
ATOM     49  H   UNL     1     -11.584  -4.363  18.620  0.00  0.00    +0.000 HD
BRANCH  44  50
ATOM     50  O   UNL     1      -6.826  -6.251  19.712  0.00  0.00    +0.000 OA
ATOM     51  H   UNL     1      -6.476  -6.760  18.964  0.00  0.00    +0.000 HD
ENDBRANCH  44  50
BRANCH  45  52
ATOM     52  C   UNL     1      -8.861  -8.119  19.026  0.00  0.00    +0.000 C 
ATOM     53  O   UNL     1      -8.734  -8.732  20.091  0.00  0.00    +0.000 OA
BRANCH  52  54
ATOM     54  C   UNL     1      -8.960  -8.945  17.784  0.00  0.00    +0.000 A 
ATOM     55  C   UNL     1      -9.008 -10.347  17.961  0.00  0.00    +0.000 A 
ATOM     56  C   UNL     1      -9.203 -11.218  16.894  0.00  0.00    +0.000 A 
ATOM     57  C   UNL     1      -9.351 -10.716  15.610  0.00  0.00    +0.000 A 
ATOM     58  C   UNL     1      -9.282  -9.341  15.395  0.00  0.00    +0.000 A 
ATOM     59  C   UNL     1      -9.092  -8.449  16.473  0.00  0.00    +0.000 A 
ATOM     60  H   UNL     1      -9.234 -12.291  17.073  0.00  0.00    +0.000 HD
ATOM     61  H   UNL     1      -9.497 -11.399  14.774  0.00  0.00    +0.000 HD
ATOM     62  H   UNL     1      -9.354  -8.980  14.370  0.00  0.00    +0.000 HD
BRANCH  55  63
ATOM     63  O   UNL     1      -8.893 -10.951  19.191  0.00  0.00    +0.000 OA
ATOM     64  H   UNL     1      -8.534 -10.289  19.826  0.00  0.00    +0.000 HD
ENDBRANCH  55  63
BRANCH  59  65
ATOM     65  C   UNL     1      -8.984  -7.004  16.148  0.00  0.00    +0.000 C 
ATOM     66  O   UNL     1      -9.933  -6.330  15.793  0.00  0.00    +0.000 OA
BRANCH  65  67
ATOM     67  O   UNL     1      -7.733  -6.506  16.264  0.00  0.00    +0.000 OA
ATOM     68  H   UNL     1      -7.002  -7.114  16.051  0.00  0.00    +0.000 HD
ENDBRANCH  65  67
ENDBRANCH  59  65
ENDBRANCH  52  54
ENDBRANCH  45  52
BRANCH  46  69
ATOM     69  O   UNL     1     -11.502  -6.859  18.534  0.00  0.00    +0.000 OA
ATOM     70  H   UNL     1     -11.384  -7.761  18.870  0.00  0.00    +0.000 HD
ENDBRANCH  46  69
ENDBRANCH  40  42
ENDBRANCH  39  40
ENDBRANCH   9  39
TORSDOF 13
ENDMDL
