REMARK  Name = 
REMARK  8 active torsions:
REMARK  status: ('A' for Active; 'I' for Inactive)
REMARK    1  A    between atoms: S_2  and  C_4
REMARK    2  A    between atoms: S_2  and  C_10
REMARK    3  A    between atoms: C_13  and  C_14
REMARK    4  A    between atoms: C_14  and  N_15
REMARK    5  A    between atoms: C_18  and  O_19
REMARK    6  A    between atoms: C_20  and  O_21
REMARK    7  A    between atoms: C_27  and  O_28
REMARK    8  A    between atoms: C_29  and  O_30
REMARK                            x       y       z     vdW  Elec       q    Type
REMARK                         _______ _______ _______ _____ _____    ______ ____
ROOT
ATOM      1  C   UNL     1      -0.867  -0.457   2.483  0.00  0.00    +0.000 C 
ATOM      2  H   UNL     1      -0.410  -0.963   3.340  0.00  0.00    +0.000 HD
ATOM      3  H   UNL     1      -1.865  -0.140   2.809  0.00  0.00    +0.000 HD
ENDROOT
BRANCH   1   4
ATOM      4  N   UNL     1      -0.076   0.730   2.190  0.00  0.00    +0.000 N 
ATOM      5  C   UNL     1      -0.609   2.000   2.052  0.00  0.00    +0.000 A 
ATOM      6  C   UNL     1      -1.899   2.498   1.852  0.00  0.00    +0.000 A 
ATOM      7  C   UNL     1      -2.117   3.772   2.365  0.00  0.00    +0.000 A 
ATOM      8  C   UNL     1      -1.123   4.454   3.058  0.00  0.00    +0.000 A 
ATOM      9  C   UNL     1       0.206   4.064   2.965  0.00  0.00    +0.000 A 
ATOM     10  C   UNL     1       0.464   2.841   2.328  0.00  0.00    +0.000 A 
ATOM     11  C   UNL     1       1.581   2.140   1.813  0.00  0.00    +0.000 A 
ATOM     12  C   UNL     1       2.820   2.467   1.231  0.00  0.00    +0.000 A 
ATOM     13  C   UNL     1       3.796   1.474   1.111  0.00  0.00    +0.000 A 
ATOM     14  C   UNL     1       3.600   0.258   1.753  0.00  0.00    +0.000 A 
ATOM     15  C   UNL     1       2.356  -0.090   2.291  0.00  0.00    +0.000 A 
ATOM     16  C   UNL     1       1.302   0.806   2.116  0.00  0.00    +0.000 A 
ATOM     17  H   UNL     1      -2.692   1.907   1.416  0.00  0.00    +0.000 HD
ATOM     18  H   UNL     1       0.996   4.619   3.459  0.00  0.00    +0.000 HD
ATOM     19  H   UNL     1       2.984   3.460   0.822  0.00  0.00    +0.000 HD
ATOM     20  H   UNL     1       4.716   1.695   0.580  0.00  0.00    +0.000 HD
BRANCH   7  21
ATOM     21  O   UNL     1      -3.342   4.368   2.248  0.00  0.00    +0.000 OA
ATOM     22  H   UNL     1      -3.640   4.188   1.337  0.00  0.00    +0.000 HD
ENDBRANCH   7  21
BRANCH   8  23
ATOM     23  O   UNL     1      -1.461   5.520   3.841  0.00  0.00    +0.000 OA
ATOM     24  H   UNL     1      -2.439   5.505   3.859  0.00  0.00    +0.000 HD
ENDBRANCH   8  23
BRANCH  14  25
ATOM     25  O   UNL     1       4.622  -0.642   1.889  0.00  0.00    +0.000 OA
ATOM     26  H   UNL     1       5.410  -0.265   1.460  0.00  0.00    +0.000 HD
ENDBRANCH  14  25
BRANCH  15  27
ATOM     27  O   UNL     1       2.228  -1.238   3.028  0.00  0.00    +0.000 OA
ATOM     28  H   UNL     1       3.154  -1.501   3.209  0.00  0.00    +0.000 HD
ENDBRANCH  15  27
ENDBRANCH   1   4
BRANCH   1  32
ATOM     29  C   UNL     1      -0.999  -2.911  -1.033  0.00  0.00    +0.000 A 
ATOM     30  C   UNL     1      -0.170  -3.268   0.028  0.00  0.00    +0.000 A 
ATOM     31  C   UNL     1      -0.164  -2.489   1.181  0.00  0.00    +0.000 A 
ATOM     32  C   UNL     1      -0.971  -1.347   1.270  0.00  0.00    +0.000 A 
ATOM     33  C   UNL     1      -1.826  -1.024   0.208  0.00  0.00    +0.000 A 
ATOM     34  C   UNL     1      -1.842  -1.802  -0.949  0.00  0.00    +0.000 A 
ATOM     35  H   UNL     1       0.484  -4.135  -0.032  0.00  0.00    +0.000 HD
ATOM     36  H   UNL     1       0.499  -2.765   2.000  0.00  0.00    +0.000 HD
ATOM     37  H   UNL     1      -2.474  -0.153   0.265  0.00  0.00    +0.000 HD
ATOM     38  H   UNL     1      -2.502  -1.533  -1.769  0.00  0.00    +0.000 HD
BRANCH  29  40
ATOM     39  O   UNL     1      -2.278  -4.442  -2.679  0.00  0.00    +0.000 OA
ATOM     40  S   UNL     1      -0.943  -3.865  -2.546  0.00  0.00    +0.000 S 
ATOM     41  O   UNL     1       0.232  -4.704  -2.476  0.00  0.00    +0.000 OA
BRANCH  40  42
ATOM     42  C   UNL     1      -0.685  -2.743  -3.888  0.00  0.00    +0.000 A 
ATOM     43  C   UNL     1      -1.644  -2.638  -4.902  0.00  0.00    +0.000 A 
ATOM     44  C   UNL     1      -1.420  -1.757  -5.967  0.00  0.00    +0.000 A 
ATOM     45  C   UNL     1      -0.249  -0.996  -6.011  0.00  0.00    +0.000 A 
ATOM     46  C   UNL     1       0.704  -1.109  -5.000  0.00  0.00    +0.000 A 
ATOM     47  C   UNL     1       0.494  -1.990  -3.936  0.00  0.00    +0.000 A 
ATOM     48  H   UNL     1      -2.557  -3.222  -4.872  0.00  0.00    +0.000 HD
ATOM     49  H   UNL     1      -2.161  -1.665  -6.755  0.00  0.00    +0.000 HD
ATOM     50  H   UNL     1      -0.082  -0.316  -6.842  0.00  0.00    +0.000 HD
ATOM     51  H   UNL     1       1.616  -0.518  -5.048  0.00  0.00    +0.000 HD
ATOM     52  H   UNL     1       1.249  -2.079  -3.159  0.00  0.00    +0.000 HD
ENDBRANCH  40  42
ENDBRANCH  29  40
ENDBRANCH   1  32
TORSDOF 8
