
 OpenBabel01112422403D

 43 46  0  0  0  0  0  0  0  0999 V2000
    0.9276    0.2126    0.0558 O   0  0  0  0  0  0  0  0  0  0  0  0
    2.1554    0.1216    0.0225 C   0  0  0  0  0  0  0  0  0  0  0  0
    2.9409    1.3759    0.0313 C   0  0  0  0  0  0  0  0  0  0  0  0
    2.2321    2.5954    0.0448 C   0  0  0  0  0  0  0  0  0  0  0  0
    2.9303    3.7890    0.0198 C   0  0  0  0  0  0  0  0  0  0  0  0
    2.3003    5.0009    0.0137 O   0  0  0  0  0  0  0  0  0  0  0  0
    4.3153    3.7738   -0.0116 C   0  0  0  0  0  0  0  0  0  0  0  0
    5.0099    4.9494   -0.0431 O   0  0  0  0  0  0  0  0  0  0  0  0
    5.0199    2.5733   -0.0151 C   0  0  0  0  0  0  0  0  0  0  0  0
    4.3444    1.3343    0.0077 C   0  0  0  0  0  0  0  0  0  0  0  0
    5.0333    0.0253   -0.0005 C   0  0  0  0  0  0  0  0  0  0  0  0
    6.4463   -0.0745    0.0139 C   0  0  0  0  0  0  0  0  0  0  0  0
    7.0759   -1.3118   -0.0046 C   0  0  0  0  0  0  0  0  0  0  0  0
    8.4356   -1.4399    0.0076 O   0  0  0  0  0  0  0  0  0  0  0  0
    6.3208   -2.4698   -0.0386 C   0  0  0  0  0  0  0  0  0  0  0  0
    6.9354   -3.6871   -0.0577 O   0  0  0  0  0  0  0  0  0  0  0  0
    4.9372   -2.4104   -0.0541 C   0  0  0  0  0  0  0  0  0  0  0  0
    4.2668   -1.1734   -0.0254 C   0  0  0  0  0  0  0  0  0  0  0  0
    2.8329   -1.0993   -0.0291 N   0  0  0  0  0  0  0  0  0  0  0  0
    1.9997   -2.3129   -0.0321 C   0  0  0  0  0  0  0  0  0  0  0  0
    1.7931   -2.8835    1.3600 C   0  0  0  0  0  0  0  0  0  0  0  0
    1.0630   -2.1597    2.3176 C   0  0  0  0  0  0  0  0  0  0  0  0
    0.9974   -2.5889    3.6433 C   0  0  0  0  0  0  0  0  0  0  0  0
    1.6527   -3.7662    4.0152 C   0  0  0  0  0  0  0  0  0  0  0  0
    1.6964   -4.1546    5.4288 N   0  3  0  0  0  0  0  0  0  0  0  0
    1.1754   -3.3902    6.2541 O   0  0  0  0  0  0  0  0  0  0  0  0
    2.2687   -5.2152    5.7186 O   0  5  0  0  0  0  0  0  0  0  0  0
    2.3043   -4.5508    3.0563 C   0  0  0  0  0  0  0  0  0  0  0  0
    2.3637   -4.1107    1.7313 C   0  0  0  0  0  0  0  0  0  0  0  0
    1.1457    2.5888    0.0687 H   0  0  0  0  0  0  0  0  0  0  0  0
    1.3382    4.8473    0.0168 H   0  0  0  0  0  0  0  0  0  0  0  0
    4.3210    5.6451   -0.0373 H   0  0  0  0  0  0  0  0  0  0  0  0
    6.1012    2.6445   -0.0439 H   0  0  0  0  0  0  0  0  0  0  0  0
    7.0682    0.8127    0.0409 H   0  0  0  0  0  0  0  0  0  0  0  0
    8.8330   -0.5525    0.0269 H   0  0  0  0  0  0  0  0  0  0  0  0
    7.8915   -3.4857   -0.0307 H   0  0  0  0  0  0  0  0  0  0  0  0
    4.4140   -3.3552   -0.0864 H   0  0  0  0  0  0  0  0  0  0  0  0
    2.4217   -3.0545   -0.7196 H   0  0  0  0  0  0  0  0  0  0  0  0
    1.0122   -2.0860   -0.4541 H   0  0  0  0  0  0  0  0  0  0  0  0
    0.5631   -1.2323    2.0427 H   0  0  0  0  0  0  0  0  0  0  0  0
    0.4611   -1.9812    4.3688 H   0  0  0  0  0  0  0  0  0  0  0  0
    2.7943   -5.4840    3.3264 H   0  0  0  0  0  0  0  0  0  0  0  0
    2.8916   -4.7213    1.0012 H   0  0  0  0  0  0  0  0  0  0  0  0
  1  2  2  0  0  0  0
  2  3  1  0  0  0  0
  2 19  1  0  0  0  0
  3  4  1  0  0  0  0
  3 10  2  0  0  0  0
  4  5  2  0  0  0  0
  4 30  1  0  0  0  0
  5  6  1  0  0  0  0
  5  7  1  0  0  0  0
  6 31  1  0  0  0  0
  7  8  1  0  0  0  0
  7  9  2  0  0  0  0
  8 32  1  0  0  0  0
  9 10  1  0  0  0  0
  9 33  1  0  0  0  0
 10 11  1  0  0  0  0
 11 12  1  0  0  0  0
 11 18  2  0  0  0  0
 12 13  2  0  0  0  0
 12 34  1  0  0  0  0
 13 14  1  0  0  0  0
 13 15  1  0  0  0  0
 14 35  1  0  0  0  0
 15 16  1  0  0  0  0
 15 17  2  0  0  0  0
 16 36  1  0  0  0  0
 17 18  1  0  0  0  0
 17 37  1  0  0  0  0
 18 19  1  0  0  0  0
 19 20  1  0  0  0  0
 20 21  1  0  0  0  0
 20 38  1  0  0  0  0
 20 39  1  0  0  0  0
 21 22  1  0  0  0  0
 21 29  2  0  0  0  0
 22 23  2  0  0  0  0
 22 40  1  0  0  0  0
 23 24  1  0  0  0  0
 23 41  1  0  0  0  0
 24 25  1  0  0  0  0
 24 28  2  0  0  0  0
 25 26  2  0  0  0  0
 25 27  1  0  0  0  0
 28 29  1  0  0  0  0
 28 42  1  0  0  0  0
 29 43  1  0  0  0  0
M  CHG  2  25   1  27  -1
M  END
$$$$
