MODEL 1
REMARK VINA RESULT:    -9.106      0.000      0.000
REMARK INTER + INTRA:         -12.731
REMARK INTER:                 -12.034
REMARK INTRA:                  -0.697
REMARK UNBOUND:                -0.697
REMARK  Name = 
REMARK  7 active torsions:
REMARK  status: ('A' for Active; 'I' for Inactive)
REMARK    1  A    between atoms: C_1  and  O_2
REMARK    2  A    between atoms: O_2  and  C_3
REMARK    3  A    between atoms: N_17  and  C_18
REMARK    4  A    between atoms: N_21  and  C_22
REMARK    5  A    between atoms: C_22  and  C_23
REMARK    6  A    between atoms: C_23  and  C_24
REMARK    7  A    between atoms: C_24  and  O_25
REMARK                            x       y       z     vdW  Elec       q    Type
REMARK                         _______ _______ _______ _____ _____    ______ ____
ROOT
ATOM      1  C   UNL     1      -9.386  -7.028  16.326  0.00  0.00    +0.000 A 
ATOM      2  C   UNL     1     -10.450  -6.138  16.268  0.00  0.00    +0.000 A 
ATOM      3  C   UNL     1     -10.541  -5.086  17.183  0.00  0.00    +0.000 A 
ATOM      4  C   UNL     1      -9.545  -4.918  18.169  0.00  0.00    +0.000 A 
ATOM      5  C   UNL     1      -9.208  -3.995  19.134  0.00  0.00    +0.000 A 
ATOM      6  C   UNL     1     -10.052  -2.908  19.451  0.00  0.00    +0.000 A 
ATOM      7  C   UNL     1      -9.494  -1.931  20.291  0.00  0.00    +0.000 A 
ATOM      8  C   UNL     1      -8.442  -2.206  21.166  0.00  0.00    +0.000 A 
ATOM      9  C   UNL     1      -7.754  -3.443  21.013  0.00  0.00    +0.000 A 
ATOM     10  C   UNL     1      -6.997  -3.957  22.074  0.00  0.00    +0.000 A 
ATOM     11  C   UNL     1      -7.359  -3.587  23.380  0.00  0.00    +0.000 A 
ATOM     12  C   UNL     1      -8.347  -2.605  23.481  0.00  0.00    +0.000 A 
ATOM     13  C   UNL     1      -9.698  -2.587  24.000  0.00  0.00    +0.000 A 
ATOM     14  C   UNL     1     -10.265  -1.384  23.606  0.00  0.00    +0.000 A 
ATOM     15  N   UNL     1      -9.174  -0.665  23.136  0.00  0.00    +0.000 N 
ATOM     16  C   UNL     1      -8.418  -1.637  22.461  0.00  0.00    +0.000 A 
ATOM     17  C   UNL     1      -8.085  -4.259  19.886  0.00  0.00    +0.000 A 
ATOM     18  N   UNL     1      -7.704  -5.495  19.360  0.00  0.00    +0.000 N 
ATOM     19  C   UNL     1      -8.514  -5.860  18.266  0.00  0.00    +0.000 A 
ATOM     20  C   UNL     1      -8.434  -6.934  17.355  0.00  0.00    +0.000 A 
ATOM     21  C   UNL     1     -10.424  -0.843  20.360  0.00  0.00    +0.000 C 
ATOM     22  O   UNL     1     -10.332   0.327  20.706  0.00  0.00    +0.000 OA
ATOM     23  N   UNL     1     -11.578  -1.408  19.895  0.00  0.00    +0.000 N 
ATOM     24  C   UNL     1     -11.448  -2.626  19.284  0.00  0.00    +0.000 C 
ATOM     25  O   UNL     1     -12.404  -3.265  18.869  0.00  0.00    +0.000 OA
ATOM     26  H   UNL     1     -11.232  -6.226  15.520  0.00  0.00    +0.000 HD
ATOM     27  H   UNL     1     -11.374  -4.397  17.087  0.00  0.00    +0.000 HD
ATOM     28  H   UNL     1      -6.358  -4.822  21.982  0.00  0.00    +0.000 HD
ATOM     29  H   UNL     1      -7.090  -4.217  24.219  0.00  0.00    +0.000 HD
ATOM     30  H   UNL     1     -10.227  -3.411  24.454  0.00  0.00    +0.000 HD
ATOM     31  H   UNL     1     -11.239  -0.923  23.705  0.00  0.00    +0.000 HD
ATOM     32  H   UNL     1      -7.637  -7.666  17.408  0.00  0.00    +0.000 HD
ATOM     33  H   UNL     1     -12.467  -1.088  20.232  0.00  0.00    +0.000 HD
ENDROOT
BRANCH  15  34
ATOM     34  C   UNL     1      -8.554   0.289  24.066  0.00  0.00    +0.000 C 
ATOM     35  H   UNL     1      -7.547   0.514  23.711  0.00  0.00    +0.000 HD
ATOM     36  H   UNL     1      -8.542  -0.132  25.073  0.00  0.00    +0.000 HD
ATOM     37  H   UNL     1      -9.156   1.208  24.062  0.00  0.00    +0.000 HD
ENDBRANCH  15  34
BRANCH  18  38
ATOM     38  C   UNL     1      -6.568  -6.301  19.806  0.00  0.00    +0.000 C 
ATOM     39  H   UNL     1      -6.800  -7.349  19.586  0.00  0.00    +0.000 HD
ATOM     40  H   UNL     1      -6.524  -6.236  20.896  0.00  0.00    +0.000 HD
BRANCH  38  41
ATOM     41  C   UNL     1      -5.232  -5.857  19.198  0.00  0.00    +0.000 C 
ATOM     42  H   UNL     1      -5.403  -5.011  18.520  0.00  0.00    +0.000 HD
ATOM     43  H   UNL     1      -4.785  -6.653  18.591  0.00  0.00    +0.000 HD
BRANCH  41  44
ATOM     44  C   UNL     1      -4.245  -5.445  20.283  0.00  0.00    +0.000 C 
ATOM     45  H   UNL     1      -3.272  -5.926  20.135  0.00  0.00    +0.000 HD
ATOM     46  H   UNL     1      -4.612  -5.733  21.274  0.00  0.00    +0.000 HD
BRANCH  44  47
ATOM     47  O   UNL     1      -4.061  -4.038  20.272  0.00  0.00    +0.000 OA
ATOM     48  H   UNL     1      -3.837  -3.762  21.179  0.00  0.00    +0.000 HD
ENDBRANCH  44  47
ENDBRANCH  41  44
ENDBRANCH  38  41
ENDBRANCH  18  38
BRANCH   1  49
ATOM     49  O   UNL     1      -9.199  -8.052  15.433  0.00  0.00    +0.000 OA
BRANCH  49  50
ATOM     50  C   UNL     1      -9.827  -9.283  15.792  0.00  0.00    +0.000 C 
ATOM     51  H   UNL     1      -9.130 -10.096  15.571  0.00  0.00    +0.000 HD
ATOM     52  H   UNL     1     -10.737  -9.456  15.204  0.00  0.00    +0.000 HD
ATOM     53  H   UNL     1     -10.043  -9.318  16.865  0.00  0.00    +0.000 HD
ENDBRANCH  49  50
ENDBRANCH   1  49
TORSDOF 7
ENDMDL
MODEL 2
REMARK VINA RESULT:    -8.649      2.957      5.953
REMARK INTER + INTRA:         -12.128
REMARK INTER:                 -12.257
REMARK INTRA:                   0.129
REMARK UNBOUND:                -0.697
REMARK  Name = 
REMARK  7 active torsions:
REMARK  status: ('A' for Active; 'I' for Inactive)
REMARK    1  A    between atoms: C_1  and  O_2
REMARK    2  A    between atoms: O_2  and  C_3
REMARK    3  A    between atoms: N_17  and  C_18
REMARK    4  A    between atoms: N_21  and  C_22
REMARK    5  A    between atoms: C_22  and  C_23
REMARK    6  A    between atoms: C_23  and  C_24
REMARK    7  A    between atoms: C_24  and  O_25
REMARK                            x       y       z     vdW  Elec       q    Type
REMARK                         _______ _______ _______ _____ _____    ______ ____
ROOT
ATOM      1  C   UNL     1      -8.453 -10.031  19.280  0.00  0.00    +0.000 A 
ATOM      2  C   UNL     1      -8.018  -9.013  20.118  0.00  0.00    +0.000 A 
ATOM      3  C   UNL     1      -8.435  -7.697  19.904  0.00  0.00    +0.000 A 
ATOM      4  C   UNL     1      -9.309  -7.396  18.837  0.00  0.00    +0.000 A 
ATOM      5  C   UNL     1     -10.020  -6.312  18.373  0.00  0.00    +0.000 A 
ATOM      6  C   UNL     1      -9.852  -5.021  18.923  0.00  0.00    +0.000 A 
ATOM      7  C   UNL     1     -10.786  -4.059  18.508  0.00  0.00    +0.000 A 
ATOM      8  C   UNL     1     -11.482  -4.160  17.303  0.00  0.00    +0.000 A 
ATOM      9  C   UNL     1     -11.429  -5.398  16.604  0.00  0.00    +0.000 A 
ATOM     10  C   UNL     1     -11.738  -5.445  15.238  0.00  0.00    +0.000 A 
ATOM     11  C   UNL     1     -11.544  -4.277  14.481  0.00  0.00    +0.000 A 
ATOM     12  C   UNL     1     -11.212  -3.131  15.206  0.00  0.00    +0.000 A 
ATOM     13  C   UNL     1     -10.042  -2.281  15.266  0.00  0.00    +0.000 A 
ATOM     14  C   UNL     1     -10.214  -1.433  16.349  0.00  0.00    +0.000 A 
ATOM     15  N   UNL     1     -11.546  -1.628  16.689  0.00  0.00    +0.000 N 
ATOM     16  C   UNL     1     -11.721  -3.010  16.514  0.00  0.00    +0.000 A 
ATOM     17  C   UNL     1     -10.789  -6.504  17.248  0.00  0.00    +0.000 A 
ATOM     18  N   UNL     1     -10.498  -7.839  16.958  0.00  0.00    +0.000 N 
ATOM     19  C   UNL     1      -9.687  -8.416  17.955  0.00  0.00    +0.000 A 
ATOM     20  C   UNL     1      -9.248  -9.741  18.159  0.00  0.00    +0.000 A 
ATOM     21  C   UNL     1     -10.560  -2.879  19.289  0.00  0.00    +0.000 C 
ATOM     22  O   UNL     1     -11.230  -1.883  19.528  0.00  0.00    +0.000 OA
ATOM     23  N   UNL     1      -9.313  -3.095  19.802  0.00  0.00    +0.000 N 
ATOM     24  C   UNL     1      -8.824  -4.367  19.678  0.00  0.00    +0.000 C 
ATOM     25  O   UNL     1      -7.702  -4.685  20.046  0.00  0.00    +0.000 OA
ATOM     26  H   UNL     1      -7.353  -9.203  20.955  0.00  0.00    +0.000 HD
ATOM     27  H   UNL     1      -8.094  -6.935  20.597  0.00  0.00    +0.000 HD
ATOM     28  H   UNL     1     -11.834  -6.364  14.682  0.00  0.00    +0.000 HD
ATOM     29  H   UNL     1     -11.391  -4.341  13.411  0.00  0.00    +0.000 HD
ATOM     30  H   UNL     1      -9.133  -2.393  14.694  0.00  0.00    +0.000 HD
ATOM     31  H   UNL     1      -9.621  -0.664  16.826  0.00  0.00    +0.000 HD
ATOM     32  H   UNL     1      -9.539 -10.545  17.493  0.00  0.00    +0.000 HD
ATOM     33  H   UNL     1      -8.704  -2.320  19.990  0.00  0.00    +0.000 HD
ENDROOT
BRANCH  15  34
ATOM     34  C   UNL     1     -12.515  -0.653  16.168  0.00  0.00    +0.000 C 
ATOM     35  H   UNL     1     -12.033  -0.072  15.381  0.00  0.00    +0.000 HD
ATOM     36  H   UNL     1     -12.872  -0.017  16.979  0.00  0.00    +0.000 HD
ATOM     37  H   UNL     1     -13.361  -1.211  15.742  0.00  0.00    +0.000 HD
ENDBRANCH  15  34
BRANCH  18  38
ATOM     38  C   UNL     1     -11.015  -8.600  15.821  0.00  0.00    +0.000 C 
ATOM     39  H   UNL     1     -11.222  -7.888  15.014  0.00  0.00    +0.000 HD
ATOM     40  H   UNL     1     -11.988  -9.005  16.108  0.00  0.00    +0.000 HD
BRANCH  38  41
ATOM     41  C   UNL     1     -10.083  -9.734  15.375  0.00  0.00    +0.000 C 
ATOM     42  H   UNL     1     -10.659 -10.479  14.811  0.00  0.00    +0.000 HD
ATOM     43  H   UNL     1      -9.656 -10.262  16.234  0.00  0.00    +0.000 HD
BRANCH  41  44
ATOM     44  C   UNL     1      -8.952  -9.203  14.503  0.00  0.00    +0.000 C 
ATOM     45  H   UNL     1      -8.060  -9.834  14.587  0.00  0.00    +0.000 HD
ATOM     46  H   UNL     1      -8.672  -8.187  14.802  0.00  0.00    +0.000 HD
BRANCH  44  47
ATOM     47  O   UNL     1      -9.354  -9.168  13.142  0.00  0.00    +0.000 OA
ATOM     48  H   UNL     1     -10.212  -9.623  13.076  0.00  0.00    +0.000 HD
ENDBRANCH  44  47
ENDBRANCH  41  44
ENDBRANCH  38  41
ENDBRANCH  18  38
BRANCH   1  49
ATOM     49  O   UNL     1      -8.131 -11.354  19.456  0.00  0.00    +0.000 OA
BRANCH  49  50
ATOM     50  C   UNL     1      -8.486 -12.207  18.367  0.00  0.00    +0.000 C 
ATOM     51  H   UNL     1      -7.784 -12.021  17.550  0.00  0.00    +0.000 HD
ATOM     52  H   UNL     1      -9.495 -11.986  17.997  0.00  0.00    +0.000 HD
ATOM     53  H   UNL     1      -8.394 -13.262  18.646  0.00  0.00    +0.000 HD
ENDBRANCH  49  50
ENDBRANCH   1  49
TORSDOF 7
ENDMDL
MODEL 3
REMARK VINA RESULT:    -7.969      1.136      1.273
REMARK INTER + INTRA:         -11.229
REMARK INTER:                 -10.606
REMARK INTRA:                  -0.623
REMARK UNBOUND:                -0.697
REMARK  Name = 
REMARK  7 active torsions:
REMARK  status: ('A' for Active; 'I' for Inactive)
REMARK    1  A    between atoms: C_1  and  O_2
REMARK    2  A    between atoms: O_2  and  C_3
REMARK    3  A    between atoms: N_17  and  C_18
REMARK    4  A    between atoms: N_21  and  C_22
REMARK    5  A    between atoms: C_22  and  C_23
REMARK    6  A    between atoms: C_23  and  C_24
REMARK    7  A    between atoms: C_24  and  O_25
REMARK                            x       y       z     vdW  Elec       q    Type
REMARK                         _______ _______ _______ _____ _____    ______ ____
ROOT
ATOM      1  C   UNL     1      -9.214  -7.146  16.232  0.00  0.00    +0.000 A 
ATOM      2  C   UNL     1     -10.149  -6.233  15.763  0.00  0.00    +0.000 A 
ATOM      3  C   UNL     1     -10.400  -5.055  16.470  0.00  0.00    +0.000 A 
ATOM      4  C   UNL     1      -9.697  -4.782  17.664  0.00  0.00    +0.000 A 
ATOM      5  C   UNL     1      -9.561  -3.741  18.554  0.00  0.00    +0.000 A 
ATOM      6  C   UNL     1     -10.372  -2.585  18.477  0.00  0.00    +0.000 A 
ATOM      7  C   UNL     1      -9.986  -1.518  19.304  0.00  0.00    +0.000 A 
ATOM      8  C   UNL     1      -9.234  -1.702  20.465  0.00  0.00    +0.000 A 
ATOM      9  C   UNL     1      -8.630  -2.974  20.674  0.00  0.00    +0.000 A 
ATOM     10  C   UNL     1      -8.230  -3.355  21.961  0.00  0.00    +0.000 A 
ATOM     11  C   UNL     1      -8.901  -2.781  23.054  0.00  0.00    +0.000 A 
ATOM     12  C   UNL     1      -9.799  -1.757  22.747  0.00  0.00    +0.000 A 
ATOM     13  C   UNL     1     -11.234  -1.608  22.862  0.00  0.00    +0.000 A 
ATOM     14  C   UNL     1     -11.577  -0.456  22.172  0.00  0.00    +0.000 A 
ATOM     15  N   UNL     1     -10.346   0.142  21.933  0.00  0.00    +0.000 N 
ATOM     16  C   UNL     1      -9.516  -0.948  21.629  0.00  0.00    +0.000 A 
ATOM     17  C   UNL     1      -8.708  -3.934  19.617  0.00  0.00    +0.000 A 
ATOM     18  N   UNL     1      -8.297  -5.249  19.384  0.00  0.00    +0.000 N 
ATOM     19  C   UNL     1      -8.808  -5.739  18.167  0.00  0.00    +0.000 A 
ATOM     20  C   UNL     1      -8.571  -6.938  17.463  0.00  0.00    +0.000 A 
ATOM     21  C   UNL     1     -10.812  -0.396  18.967  0.00  0.00    +0.000 C 
ATOM     22  O   UNL     1     -10.724   0.808  19.169  0.00  0.00    +0.000 OA
ATOM     23  N   UNL     1     -11.837  -0.978  18.278  0.00  0.00    +0.000 N 
ATOM     24  C   UNL     1     -11.644  -2.276  17.893  0.00  0.00    +0.000 C 
ATOM     25  O   UNL     1     -12.500  -2.932  17.316  0.00  0.00    +0.000 OA
ATOM     26  H   UNL     1     -10.705  -6.401  14.845  0.00  0.00    +0.000 HD
ATOM     27  H   UNL     1     -11.119  -4.355  16.056  0.00  0.00    +0.000 HD
ATOM     28  H   UNL     1      -7.660  -4.248  22.165  0.00  0.00    +0.000 HD
ATOM     29  H   UNL     1      -8.919  -3.290  24.010  0.00  0.00    +0.000 HD
ATOM     30  H   UNL     1     -11.929  -2.335  23.255  0.00  0.00    +0.000 HD
ATOM     31  H   UNL     1     -12.502   0.052  21.934  0.00  0.00    +0.000 HD
ATOM     32  H   UNL     1      -7.878  -7.686  17.832  0.00  0.00    +0.000 HD
ATOM     33  H   UNL     1     -12.756  -0.576  18.309  0.00  0.00    +0.000 HD
ENDROOT
BRANCH  15  34
ATOM     34  C   UNL     1      -9.927   1.198  22.865  0.00  0.00    +0.000 C 
ATOM     35  H   UNL     1      -9.155   0.793  23.522  0.00  0.00    +0.000 HD
ATOM     36  H   UNL     1     -10.789   1.557  23.429  0.00  0.00    +0.000 HD
ATOM     37  H   UNL     1      -9.507   2.024  22.276  0.00  0.00    +0.000 HD
ENDBRANCH  15  34
BRANCH  18  38
ATOM     38  C   UNL     1      -7.391  -6.024  20.231  0.00  0.00    +0.000 C 
ATOM     39  H   UNL     1      -7.747  -7.060  20.233  0.00  0.00    +0.000 HD
ATOM     40  H   UNL     1      -7.516  -5.672  21.258  0.00  0.00    +0.000 HD
BRANCH  38  41
ATOM     41  C   UNL     1      -5.920  -5.911  19.811  0.00  0.00    +0.000 C 
ATOM     42  H   UNL     1      -5.864  -5.715  18.732  0.00  0.00    +0.000 HD
ATOM     43  H   UNL     1      -5.382  -6.849  19.982  0.00  0.00    +0.000 HD
BRANCH  41  44
ATOM     44  C   UNL     1      -5.219  -4.789  20.567  0.00  0.00    +0.000 C 
ATOM     45  H   UNL     1      -4.792  -5.154  21.507  0.00  0.00    +0.000 HD
ATOM     46  H   UNL     1      -5.920  -3.984  20.808  0.00  0.00    +0.000 HD
BRANCH  44  47
ATOM     47  O   UNL     1      -4.173  -4.243  19.778  0.00  0.00    +0.000 OA
ATOM     48  H   UNL     1      -4.332  -4.504  18.854  0.00  0.00    +0.000 HD
ENDBRANCH  44  47
ENDBRANCH  41  44
ENDBRANCH  38  41
ENDBRANCH  18  38
BRANCH   1  49
ATOM     49  O   UNL     1      -8.874  -8.298  15.568  0.00  0.00    +0.000 OA
BRANCH  49  50
ATOM     50  C   UNL     1      -9.828  -9.356  15.676  0.00  0.00    +0.000 C 
ATOM     51  H   UNL     1     -10.804  -8.910  15.886  0.00  0.00    +0.000 HD
ATOM     52  H   UNL     1      -9.586 -10.032  16.506  0.00  0.00    +0.000 HD
ATOM     53  H   UNL     1      -9.914  -9.908  14.734  0.00  0.00    +0.000 HD
ENDBRANCH  49  50
ENDBRANCH   1  49
TORSDOF 7
ENDMDL
MODEL 4
REMARK VINA RESULT:    -7.532      2.882      6.694
REMARK INTER + INTRA:         -10.651
REMARK INTER:                 -10.055
REMARK INTRA:                  -0.597
REMARK UNBOUND:                -0.697
REMARK  Name = 
REMARK  7 active torsions:
REMARK  status: ('A' for Active; 'I' for Inactive)
REMARK    1  A    between atoms: C_1  and  O_2
REMARK    2  A    between atoms: O_2  and  C_3
REMARK    3  A    between atoms: N_17  and  C_18
REMARK    4  A    between atoms: N_21  and  C_22
REMARK    5  A    between atoms: C_22  and  C_23
REMARK    6  A    between atoms: C_23  and  C_24
REMARK    7  A    between atoms: C_24  and  O_25
REMARK                            x       y       z     vdW  Elec       q    Type
REMARK                         _______ _______ _______ _____ _____    ______ ____
ROOT
ATOM      1  C   UNL     1      -7.912  -3.437  22.106  0.00  0.00    +0.000 A 
ATOM      2  C   UNL     1      -8.454  -2.189  21.828  0.00  0.00    +0.000 A 
ATOM      3  C   UNL     1      -9.120  -1.962  20.621  0.00  0.00    +0.000 A 
ATOM      4  C   UNL     1      -9.253  -3.005  19.679  0.00  0.00    +0.000 A 
ATOM      5  C   UNL     1      -9.903  -3.228  18.486  0.00  0.00    +0.000 A 
ATOM      6  C   UNL     1     -10.575  -2.190  17.800  0.00  0.00    +0.000 A 
ATOM      7  C   UNL     1     -11.372  -2.596  16.717  0.00  0.00    +0.000 A 
ATOM      8  C   UNL     1     -11.146  -3.787  16.025  0.00  0.00    +0.000 A 
ATOM      9  C   UNL     1     -10.247  -4.731  16.596  0.00  0.00    +0.000 A 
ATOM     10  C   UNL     1      -9.668  -5.721  15.791  0.00  0.00    +0.000 A 
ATOM     11  C   UNL     1      -9.521  -5.450  14.420  0.00  0.00    +0.000 A 
ATOM     12  C   UNL     1     -10.120  -4.274  13.966  0.00  0.00    +0.000 A 
ATOM     13  C   UNL     1      -9.615  -3.037  13.408  0.00  0.00    +0.000 A 
ATOM     14  C   UNL     1     -10.678  -2.148  13.370  0.00  0.00    +0.000 A 
ATOM     15  N   UNL     1     -11.773  -2.960  13.634  0.00  0.00    +0.000 N 
ATOM     16  C   UNL     1     -11.290  -3.837  14.618  0.00  0.00    +0.000 A 
ATOM     17  C   UNL     1      -9.745  -4.467  17.909  0.00  0.00    +0.000 A 
ATOM     18  N   UNL     1      -8.873  -5.068  18.820  0.00  0.00    +0.000 N 
ATOM     19  C   UNL     1      -8.643  -4.239  19.935  0.00  0.00    +0.000 A 
ATOM     20  C   UNL     1      -7.952  -4.461  21.145  0.00  0.00    +0.000 A 
ATOM     21  C   UNL     1     -12.093  -1.445  16.262  0.00  0.00    +0.000 C 
ATOM     22  O   UNL     1     -13.087  -1.293  15.564  0.00  0.00    +0.000 OA
ATOM     23  N   UNL     1     -11.400  -0.415  16.831  0.00  0.00    +0.000 N 
ATOM     24  C   UNL     1     -10.502  -0.759  17.805  0.00  0.00    +0.000 C 
ATOM     25  O   UNL     1      -9.779   0.057  18.359  0.00  0.00    +0.000 OA
ATOM     26  H   UNL     1      -8.382  -1.363  22.529  0.00  0.00    +0.000 HD
ATOM     27  H   UNL     1      -9.553  -0.981  20.454  0.00  0.00    +0.000 HD
ATOM     28  H   UNL     1      -9.078  -6.534  16.184  0.00  0.00    +0.000 HD
ATOM     29  H   UNL     1      -8.768  -5.970  13.841  0.00  0.00    +0.000 HD
ATOM     30  H   UNL     1      -8.582  -2.788  13.219  0.00  0.00    +0.000 HD
ATOM     31  H   UNL     1     -10.805  -1.112  13.085  0.00  0.00    +0.000 HD
ATOM     32  H   UNL     1      -7.483  -5.413  21.365  0.00  0.00    +0.000 HD
ATOM     33  H   UNL     1     -11.351   0.475  16.369  0.00  0.00    +0.000 HD
ENDROOT
BRANCH  15  34
ATOM     34  C   UNL     1     -12.539  -3.442  12.476  0.00  0.00    +0.000 C 
ATOM     35  H   UNL     1     -13.580  -3.140  12.599  0.00  0.00    +0.000 HD
ATOM     36  H   UNL     1     -12.440  -4.526  12.393  0.00  0.00    +0.000 HD
ATOM     37  H   UNL     1     -12.126  -2.968  11.575  0.00  0.00    +0.000 HD
ENDBRANCH  15  34
BRANCH  18  38
ATOM     38  C   UNL     1      -8.312  -6.415  18.707  0.00  0.00    +0.000 C 
ATOM     39  H   UNL     1      -7.342  -6.412  19.217  0.00  0.00    +0.000 HD
ATOM     40  H   UNL     1      -8.086  -6.591  17.652  0.00  0.00    +0.000 HD
BRANCH  38  41
ATOM     41  C   UNL     1      -9.248  -7.509  19.236  0.00  0.00    +0.000 C 
ATOM     42  H   UNL     1      -9.574  -8.144  18.402  0.00  0.00    +0.000 HD
ATOM     43  H   UNL     1     -10.158  -7.081  19.671  0.00  0.00    +0.000 HD
BRANCH  41  44
ATOM     44  C   UNL     1      -8.551  -8.367  20.284  0.00  0.00    +0.000 C 
ATOM     45  H   UNL     1      -8.381  -7.802  21.206  0.00  0.00    +0.000 HD
ATOM     46  H   UNL     1      -7.578  -8.714  19.920  0.00  0.00    +0.000 HD
BRANCH  44  47
ATOM     47  O   UNL     1      -9.340  -9.507  20.591  0.00  0.00    +0.000 OA
ATOM     48  H   UNL     1      -9.731  -9.367  21.471  0.00  0.00    +0.000 HD
ENDBRANCH  44  47
ENDBRANCH  41  44
ENDBRANCH  38  41
ENDBRANCH  18  38
BRANCH   1  49
ATOM     49  O   UNL     1      -7.291  -3.752  23.288  0.00  0.00    +0.000 OA
BRANCH  49  50
ATOM     50  C   UNL     1      -8.146  -3.759  24.431  0.00  0.00    +0.000 C 
ATOM     51  H   UNL     1      -8.893  -2.972  24.299  0.00  0.00    +0.000 HD
ATOM     52  H   UNL     1      -7.589  -3.538  25.351  0.00  0.00    +0.000 HD
ATOM     53  H   UNL     1      -8.682  -4.710  24.518  0.00  0.00    +0.000 HD
ENDBRANCH  49  50
ENDBRANCH   1  49
TORSDOF 7
ENDMDL
MODEL 5
REMARK VINA RESULT:    -7.517      2.860      6.730
REMARK INTER + INTRA:         -10.632
REMARK INTER:                  -9.866
REMARK INTRA:                  -0.766
REMARK UNBOUND:                -0.697
REMARK  Name = 
REMARK  7 active torsions:
REMARK  status: ('A' for Active; 'I' for Inactive)
REMARK    1  A    between atoms: C_1  and  O_2
REMARK    2  A    between atoms: O_2  and  C_3
REMARK    3  A    between atoms: N_17  and  C_18
REMARK    4  A    between atoms: N_21  and  C_22
REMARK    5  A    between atoms: C_22  and  C_23
REMARK    6  A    between atoms: C_23  and  C_24
REMARK    7  A    between atoms: C_24  and  O_25
REMARK                            x       y       z     vdW  Elec       q    Type
REMARK                         _______ _______ _______ _____ _____    ______ ____
ROOT
ATOM      1  C   UNL     1     -12.488   0.743  16.489  0.00  0.00    +0.000 A 
ATOM      2  C   UNL     1     -12.882  -0.227  15.576  0.00  0.00    +0.000 A 
ATOM      3  C   UNL     1     -12.491  -1.557  15.750  0.00  0.00    +0.000 A 
ATOM      4  C   UNL     1     -11.699  -1.924  16.859  0.00  0.00    +0.000 A 
ATOM      5  C   UNL     1     -11.223  -3.079  17.437  0.00  0.00    +0.000 A 
ATOM      6  C   UNL     1     -11.366  -4.338  16.812  0.00  0.00    +0.000 A 
ATOM      7  C   UNL     1     -11.033  -5.449  17.603  0.00  0.00    +0.000 A 
ATOM      8  C   UNL     1     -10.157  -5.364  18.686  0.00  0.00    +0.000 A 
ATOM      9  C   UNL     1      -9.797  -4.068  19.151  0.00  0.00    +0.000 A 
ATOM     10  C   UNL     1      -8.643  -3.899  19.928  0.00  0.00    +0.000 A 
ATOM     11  C   UNL     1      -7.603  -4.831  19.769  0.00  0.00    +0.000 A 
ATOM     12  C   UNL     1      -7.893  -5.934  18.964  0.00  0.00    +0.000 A 
ATOM     13  C   UNL     1      -7.387  -6.414  17.695  0.00  0.00    +0.000 A 
ATOM     14  C   UNL     1      -8.232  -7.434  17.285  0.00  0.00    +0.000 A 
ATOM     15  N   UNL     1      -8.995  -7.681  18.418  0.00  0.00    +0.000 N 
ATOM     16  C   UNL     1      -9.222  -6.396  18.936  0.00  0.00    +0.000 A 
ATOM     17  C   UNL     1     -10.466  -2.941  18.578  0.00  0.00    +0.000 A 
ATOM     18  N   UNL     1     -10.435  -1.549  18.703  0.00  0.00    +0.000 N 
ATOM     19  C   UNL     1     -11.248  -0.929  17.735  0.00  0.00    +0.000 A 
ATOM     20  C   UNL     1     -11.625   0.417  17.547  0.00  0.00    +0.000 A 
ATOM     21  C   UNL     1     -11.398  -6.623  16.866  0.00  0.00    +0.000 C 
ATOM     22  O   UNL     1     -11.579  -7.793  17.178  0.00  0.00    +0.000 OA
ATOM     23  N   UNL     1     -11.545  -6.144  15.596  0.00  0.00    +0.000 N 
ATOM     24  C   UNL     1     -11.592  -4.782  15.468  0.00  0.00    +0.000 C 
ATOM     25  O   UNL     1     -11.669  -4.220  14.385  0.00  0.00    +0.000 OA
ATOM     26  H   UNL     1     -13.498   0.011  14.715  0.00  0.00    +0.000 HD
ATOM     27  H   UNL     1     -12.842  -2.289  15.029  0.00  0.00    +0.000 HD
ATOM     28  H   UNL     1      -8.383  -2.970  20.410  0.00  0.00    +0.000 HD
ATOM     29  H   UNL     1      -6.586  -4.559  20.025  0.00  0.00    +0.000 HD
ATOM     30  H   UNL     1      -6.612  -5.961  17.095  0.00  0.00    +0.000 HD
ATOM     31  H   UNL     1      -8.305  -8.068  16.411  0.00  0.00    +0.000 HD
ATOM     32  H   UNL     1     -11.294   1.199  18.222  0.00  0.00    +0.000 HD
ATOM     33  H   UNL     1     -11.347  -6.734  14.809  0.00  0.00    +0.000 HD
ENDROOT
BRANCH  15  34
ATOM     34  C   UNL     1      -8.572  -8.797  19.276  0.00  0.00    +0.000 C 
ATOM     35  H   UNL     1      -9.166  -9.676  19.019  0.00  0.00    +0.000 HD
ATOM     36  H   UNL     1      -8.689  -8.522  20.325  0.00  0.00    +0.000 HD
ATOM     37  H   UNL     1      -7.512  -9.001  19.068  0.00  0.00    +0.000 HD
ENDBRANCH  15  34
BRANCH  18  38
ATOM     38  C   UNL     1      -9.727  -0.799  19.740  0.00  0.00    +0.000 C 
ATOM     39  H   UNL     1      -9.289   0.086  19.266  0.00  0.00    +0.000 HD
ATOM     40  H   UNL     1      -8.878  -1.405  20.066  0.00  0.00    +0.000 HD
BRANCH  38  41
ATOM     41  C   UNL     1     -10.611  -0.442  20.942  0.00  0.00    +0.000 C 
ATOM     42  H   UNL     1     -11.639  -0.269  20.600  0.00  0.00    +0.000 HD
ATOM     43  H   UNL     1     -10.284   0.490  21.416  0.00  0.00    +0.000 HD
BRANCH  41  44
ATOM     44  C   UNL     1     -10.603  -1.558  21.979  0.00  0.00    +0.000 C 
ATOM     45  H   UNL     1     -10.561  -1.151  22.996  0.00  0.00    +0.000 HD
ATOM     46  H   UNL     1      -9.735  -2.210  21.844  0.00  0.00    +0.000 HD
BRANCH  44  47
ATOM     47  O   UNL     1     -11.774  -2.351  21.858  0.00  0.00    +0.000 OA
ATOM     48  H   UNL     1     -12.201  -2.121  21.014  0.00  0.00    +0.000 HD
ENDBRANCH  44  47
ENDBRANCH  41  44
ENDBRANCH  38  41
ENDBRANCH  18  38
BRANCH   1  49
ATOM     49  O   UNL     1     -12.874   2.058  16.417  0.00  0.00    +0.000 OA
BRANCH  49  50
ATOM     50  C   UNL     1     -13.834   2.347  15.399  0.00  0.00    +0.000 C 
ATOM     51  H   UNL     1     -13.913   3.433  15.308  0.00  0.00    +0.000 HD
ATOM     52  H   UNL     1     -14.826   1.960  15.662  0.00  0.00    +0.000 HD
ATOM     53  H   UNL     1     -13.508   1.959  14.428  0.00  0.00    +0.000 HD
ENDBRANCH  49  50
ENDBRANCH   1  49
TORSDOF 7
ENDMDL
MODEL 6
REMARK VINA RESULT:    -7.485      2.356      4.802
REMARK INTER + INTRA:         -10.589
REMARK INTER:                 -10.164
REMARK INTRA:                  -0.425
REMARK UNBOUND:                -0.697
REMARK  Name = 
REMARK  7 active torsions:
REMARK  status: ('A' for Active; 'I' for Inactive)
REMARK    1  A    between atoms: C_1  and  O_2
REMARK    2  A    between atoms: O_2  and  C_3
REMARK    3  A    between atoms: N_17  and  C_18
REMARK    4  A    between atoms: N_21  and  C_22
REMARK    5  A    between atoms: C_22  and  C_23
REMARK    6  A    between atoms: C_23  and  C_24
REMARK    7  A    between atoms: C_24  and  O_25
REMARK                            x       y       z     vdW  Elec       q    Type
REMARK                         _______ _______ _______ _____ _____    ______ ____
ROOT
ATOM      1  C   UNL     1      -9.248  -8.482  17.432  0.00  0.00    +0.000 A 
ATOM      2  C   UNL     1      -8.547  -8.083  18.562  0.00  0.00    +0.000 A 
ATOM      3  C   UNL     1      -8.633  -6.765  19.015  0.00  0.00    +0.000 A 
ATOM      4  C   UNL     1      -9.440  -5.831  18.330  0.00  0.00    +0.000 A 
ATOM      5  C   UNL     1      -9.874  -4.536  18.501  0.00  0.00    +0.000 A 
ATOM      6  C   UNL     1      -9.374  -3.714  19.536  0.00  0.00    +0.000 A 
ATOM      7  C   UNL     1     -10.055  -2.501  19.729  0.00  0.00    +0.000 A 
ATOM      8  C   UNL     1     -10.793  -1.885  18.717  0.00  0.00    +0.000 A 
ATOM      9  C   UNL     1     -11.071  -2.639  17.542  0.00  0.00    +0.000 A 
ATOM     10  C   UNL     1     -11.426  -1.981  16.357  0.00  0.00    +0.000 A 
ATOM     11  C   UNL     1     -10.974  -0.663  16.177  0.00  0.00    +0.000 A 
ATOM     12  C   UNL     1     -10.346  -0.080  17.279  0.00  0.00    +0.000 A 
ATOM     13  C   UNL     1      -9.000   0.385  17.541  0.00  0.00    +0.000 A 
ATOM     14  C   UNL     1      -8.922   0.648  18.900  0.00  0.00    +0.000 A 
ATOM     15  N   UNL     1     -10.249   0.595  19.305  0.00  0.00    +0.000 N 
ATOM     16  C   UNL     1     -10.766  -0.479  18.562  0.00  0.00    +0.000 A 
ATOM     17  C   UNL     1     -10.704  -4.021  17.531  0.00  0.00    +0.000 A 
ATOM     18  N   UNL     1     -10.762  -5.097  16.641  0.00  0.00    +0.000 N 
ATOM     19  C   UNL     1     -10.086  -6.223  17.151  0.00  0.00    +0.000 A 
ATOM     20  C   UNL     1      -9.982  -7.549  16.683  0.00  0.00    +0.000 A 
ATOM     21  C   UNL     1      -9.518  -1.893  20.911  0.00  0.00    +0.000 C 
ATOM     22  O   UNL     1      -9.913  -1.009  21.659  0.00  0.00    +0.000 OA
ATOM     23  N   UNL     1      -8.347  -2.573  21.090  0.00  0.00    +0.000 N 
ATOM     24  C   UNL     1      -8.192  -3.711  20.347  0.00  0.00    +0.000 C 
ATOM     25  O   UNL     1      -7.172  -4.385  20.371  0.00  0.00    +0.000 OA
ATOM     26  H   UNL     1      -7.923  -8.772  19.124  0.00  0.00    +0.000 HD
ATOM     27  H   UNL     1      -8.091  -6.500  19.918  0.00  0.00    +0.000 HD
ATOM     28  H   UNL     1     -11.765  -2.496  15.472  0.00  0.00    +0.000 HD
ATOM     29  H   UNL     1     -10.877  -0.253  15.179  0.00  0.00    +0.000 HD
ATOM     30  H   UNL     1      -8.166   0.368  16.855  0.00  0.00    +0.000 HD
ATOM     31  H   UNL     1      -8.142   0.968  19.578  0.00  0.00    +0.000 HD
ATOM     32  H   UNL     1     -10.485  -7.873  15.778  0.00  0.00    +0.000 HD
ATOM     33  H   UNL     1      -7.560  -2.117  21.513  0.00  0.00    +0.000 HD
ENDROOT
BRANCH  15  34
ATOM     34  C   UNL     1     -10.963   1.874  19.414  0.00  0.00    +0.000 C 
ATOM     35  H   UNL     1     -11.991   1.672  19.718  0.00  0.00    +0.000 HD
ATOM     36  H   UNL     1     -10.920   2.404  18.462  0.00  0.00    +0.000 HD
ATOM     37  H   UNL     1     -10.466   2.475  20.189  0.00  0.00    +0.000 HD
ENDBRANCH  15  34
BRANCH  18  38
ATOM     38  C   UNL     1     -11.487  -5.119  15.371  0.00  0.00    +0.000 C 
ATOM     39  H   UNL     1     -12.496  -4.735  15.561  0.00  0.00    +0.000 HD
ATOM     40  H   UNL     1     -11.623  -6.165  15.085  0.00  0.00    +0.000 HD
BRANCH  38  41
ATOM     41  C   UNL     1     -10.772  -4.354  14.250  0.00  0.00    +0.000 C 
ATOM     42  H   UNL     1     -10.648  -3.305  14.546  0.00  0.00    +0.000 HD
ATOM     43  H   UNL     1     -11.366  -4.346  13.329  0.00  0.00    +0.000 HD
BRANCH  41  44
ATOM     44  C   UNL     1      -9.407  -4.963  13.956  0.00  0.00    +0.000 C 
ATOM     45  H   UNL     1      -9.470  -5.702  13.150  0.00  0.00    +0.000 HD
ATOM     46  H   UNL     1      -9.006  -5.467  14.841  0.00  0.00    +0.000 HD
BRANCH  44  47
ATOM     47  O   UNL     1      -8.489  -3.951  13.570  0.00  0.00    +0.000 OA
ATOM     48  H   UNL     1      -8.246  -4.111  12.641  0.00  0.00    +0.000 HD
ENDBRANCH  44  47
ENDBRANCH  41  44
ENDBRANCH  38  41
ENDBRANCH  18  38
BRANCH   1  49
ATOM     49  O   UNL     1      -9.257  -9.769  16.956  0.00  0.00    +0.000 OA
BRANCH  49  50
ATOM     50  C   UNL     1      -8.834 -10.759  17.895  0.00  0.00    +0.000 C 
ATOM     51  H   UNL     1      -7.756 -10.897  17.777  0.00  0.00    +0.000 HD
ATOM     52  H   UNL     1      -9.317 -11.726  17.704  0.00  0.00    +0.000 HD
ATOM     53  H   UNL     1      -9.013 -10.429  18.924  0.00  0.00    +0.000 HD
ENDBRANCH  49  50
ENDBRANCH   1  49
TORSDOF 7
ENDMDL
MODEL 7
REMARK VINA RESULT:    -7.391      2.072      3.098
REMARK INTER + INTRA:         -10.465
REMARK INTER:                  -9.866
REMARK INTRA:                  -0.599
REMARK UNBOUND:                -0.697
REMARK  Name = 
REMARK  7 active torsions:
REMARK  status: ('A' for Active; 'I' for Inactive)
REMARK    1  A    between atoms: C_1  and  O_2
REMARK    2  A    between atoms: O_2  and  C_3
REMARK    3  A    between atoms: N_17  and  C_18
REMARK    4  A    between atoms: N_21  and  C_22
REMARK    5  A    between atoms: C_22  and  C_23
REMARK    6  A    between atoms: C_23  and  C_24
REMARK    7  A    between atoms: C_24  and  O_25
REMARK                            x       y       z     vdW  Elec       q    Type
REMARK                         _______ _______ _______ _____ _____    ______ ____
ROOT
ATOM      1  C   UNL     1      -8.615  -7.049  18.762  0.00  0.00    +0.000 A 
ATOM      2  C   UNL     1      -9.471  -6.590  17.769  0.00  0.00    +0.000 A 
ATOM      3  C   UNL     1      -9.917  -5.267  17.780  0.00  0.00    +0.000 A 
ATOM      4  C   UNL     1      -9.493  -4.385  18.797  0.00  0.00    +0.000 A 
ATOM      5  C   UNL     1      -9.593  -3.044  19.095  0.00  0.00    +0.000 A 
ATOM      6  C   UNL     1     -10.420  -2.176  18.347  0.00  0.00    +0.000 A 
ATOM      7  C   UNL     1     -10.264  -0.806  18.618  0.00  0.00    +0.000 A 
ATOM      8  C   UNL     1      -9.766  -0.334  19.832  0.00  0.00    +0.000 A 
ATOM      9  C   UNL     1      -9.163  -1.273  20.716  0.00  0.00    +0.000 A 
ATOM     10  C   UNL     1      -9.025  -0.965  22.076  0.00  0.00    +0.000 A 
ATOM     11  C   UNL     1      -9.936  -0.054  22.638  0.00  0.00    +0.000 A 
ATOM     12  C   UNL     1     -10.793   0.581  21.739  0.00  0.00    +0.000 A 
ATOM     13  C   UNL     1     -12.227   0.566  21.532  0.00  0.00    +0.000 A 
ATOM     14  C   UNL     1     -12.467   1.216  20.332  0.00  0.00    +0.000 A 
ATOM     15  N   UNL     1     -11.242   1.803  20.043  0.00  0.00    +0.000 N 
ATOM     16  C   UNL     1     -10.318   0.821  20.435  0.00  0.00    +0.000 A 
ATOM     17  C   UNL     1      -8.975  -2.611  20.245  0.00  0.00    +0.000 A 
ATOM     18  N   UNL     1      -8.466  -3.816  20.737  0.00  0.00    +0.000 N 
ATOM     19  C   UNL     1      -8.688  -4.873  19.833  0.00  0.00    +0.000 A 
ATOM     20  C   UNL     1      -8.255  -6.216  19.833  0.00  0.00    +0.000 A 
ATOM     21  C   UNL     1     -11.050  -0.088  17.659  0.00  0.00    +0.000 C 
ATOM     22  O   UNL     1     -11.060   1.074  17.275  0.00  0.00    +0.000 OA
ATOM     23  N   UNL     1     -11.882  -1.056  17.171  0.00  0.00    +0.000 N 
ATOM     24  C   UNL     1     -11.554  -2.346  17.486  0.00  0.00    +0.000 C 
ATOM     25  O   UNL     1     -12.240  -3.304  17.159  0.00  0.00    +0.000 OA
ATOM     26  H   UNL     1      -9.814  -7.233  16.964  0.00  0.00    +0.000 HD
ATOM     27  H   UNL     1     -10.564  -4.940  16.971  0.00  0.00    +0.000 HD
ATOM     28  H   UNL     1      -8.472  -1.578  22.770  0.00  0.00    +0.000 HD
ATOM     29  H   UNL     1     -10.131  -0.068  23.704  0.00  0.00    +0.000 HD
ATOM     30  H   UNL     1     -12.955   0.011  22.103  0.00  0.00    +0.000 HD
ATOM     31  H   UNL     1     -13.343   1.427  19.733  0.00  0.00    +0.000 HD
ATOM     32  H   UNL     1      -7.622  -6.608  20.621  0.00  0.00    +0.000 HD
ATOM     33  H   UNL     1     -12.803  -0.816  16.856  0.00  0.00    +0.000 HD
ENDROOT
BRANCH  15  34
ATOM     34  C   UNL     1     -11.075   3.214  20.417  0.00  0.00    +0.000 C 
ATOM     35  H   UNL     1     -10.704   3.761  19.549  0.00  0.00    +0.000 HD
ATOM     36  H   UNL     1     -10.394   3.294  21.266  0.00  0.00    +0.000 HD
ATOM     37  H   UNL     1     -12.061   3.608  20.702  0.00  0.00    +0.000 HD
ENDBRANCH  15  34
BRANCH  18  38
ATOM     38  C   UNL     1      -7.725  -3.985  21.986  0.00  0.00    +0.000 C 
ATOM     39  H   UNL     1      -7.724  -5.054  22.227  0.00  0.00    +0.000 HD
ATOM     40  H   UNL     1      -8.303  -3.509  22.781  0.00  0.00    +0.000 HD
BRANCH  38  41
ATOM     41  C   UNL     1      -6.309  -3.395  21.937  0.00  0.00    +0.000 C 
ATOM     42  H   UNL     1      -5.899  -3.348  22.954  0.00  0.00    +0.000 HD
ATOM     43  H   UNL     1      -6.318  -2.366  21.561  0.00  0.00    +0.000 HD
BRANCH  41  44
ATOM     44  C   UNL     1      -5.394  -4.239  21.059  0.00  0.00    +0.000 C 
ATOM     45  H   UNL     1      -5.836  -4.402  20.070  0.00  0.00    +0.000 HD
ATOM     46  H   UNL     1      -5.215  -5.220  21.511  0.00  0.00    +0.000 HD
BRANCH  44  47
ATOM     47  O   UNL     1      -4.140  -3.594  20.893  0.00  0.00    +0.000 OA
ATOM     48  H   UNL     1      -3.990  -3.033  21.674  0.00  0.00    +0.000 HD
ENDBRANCH  44  47
ENDBRANCH  41  44
ENDBRANCH  38  41
ENDBRANCH  18  38
BRANCH   1  49
ATOM     49  O   UNL     1      -8.093  -8.318  18.791  0.00  0.00    +0.000 OA
BRANCH  49  50
ATOM     50  C   UNL     1      -8.485  -9.101  19.919  0.00  0.00    +0.000 C 
ATOM     51  H   UNL     1      -7.766  -8.919  20.723  0.00  0.00    +0.000 HD
ATOM     52  H   UNL     1      -8.464 -10.174  19.690  0.00  0.00    +0.000 HD
ATOM     53  H   UNL     1      -9.471  -8.800  20.286  0.00  0.00    +0.000 HD
ENDBRANCH  49  50
ENDBRANCH   1  49
TORSDOF 7
ENDMDL
MODEL 8
REMARK VINA RESULT:    -6.932      2.165      7.686
REMARK INTER + INTRA:          -9.859
REMARK INTER:                  -9.112
REMARK INTRA:                  -0.747
REMARK UNBOUND:                -0.697
REMARK  Name = 
REMARK  7 active torsions:
REMARK  status: ('A' for Active; 'I' for Inactive)
REMARK    1  A    between atoms: C_1  and  O_2
REMARK    2  A    between atoms: O_2  and  C_3
REMARK    3  A    between atoms: N_17  and  C_18
REMARK    4  A    between atoms: N_21  and  C_22
REMARK    5  A    between atoms: C_22  and  C_23
REMARK    6  A    between atoms: C_23  and  C_24
REMARK    7  A    between atoms: C_24  and  O_25
REMARK                            x       y       z     vdW  Elec       q    Type
REMARK                         _______ _______ _______ _____ _____    ______ ____
ROOT
ATOM      1  C   UNL     1      -9.595   1.031  23.808  0.00  0.00    +0.000 A 
ATOM      2  C   UNL     1      -8.713   0.019  24.163  0.00  0.00    +0.000 A 
ATOM      3  C   UNL     1      -8.513  -1.072  23.314  0.00  0.00    +0.000 A 
ATOM      4  C   UNL     1      -9.202  -1.147  22.084  0.00  0.00    +0.000 A 
ATOM      5  C   UNL     1      -9.204  -1.944  20.962  0.00  0.00    +0.000 A 
ATOM      6  C   UNL     1      -8.458  -3.143  20.898  0.00  0.00    +0.000 A 
ATOM      7  C   UNL     1      -8.378  -3.741  19.630  0.00  0.00    +0.000 A 
ATOM      8  C   UNL     1      -9.333  -3.523  18.636  0.00  0.00    +0.000 A 
ATOM      9  C   UNL     1     -10.269  -2.469  18.831  0.00  0.00    +0.000 A 
ATOM     10  C   UNL     1     -11.471  -2.458  18.110  0.00  0.00    +0.000 A 
ATOM     11  C   UNL     1     -11.981  -3.690  17.667  0.00  0.00    +0.000 A 
ATOM     12  C   UNL     1     -11.148  -4.795  17.853  0.00  0.00    +0.000 A 
ATOM     13  C   UNL     1     -11.236  -6.000  18.652  0.00  0.00    +0.000 A 
ATOM     14  C   UNL     1      -9.992  -6.608  18.602  0.00  0.00    +0.000 A 
ATOM     15  N   UNL     1      -9.344  -5.911  17.591  0.00  0.00    +0.000 N 
ATOM     16  C   UNL     1      -9.757  -4.585  17.803  0.00  0.00    +0.000 A 
ATOM     17  C   UNL     1     -10.083  -1.607  19.957  0.00  0.00    +0.000 A 
ATOM     18  N   UNL     1     -10.723  -0.506  20.531  0.00  0.00    +0.000 N 
ATOM     19  C   UNL     1     -10.142  -0.160  21.766  0.00  0.00    +0.000 A 
ATOM     20  C   UNL     1     -10.359   0.931  22.634  0.00  0.00    +0.000 A 
ATOM     21  C   UNL     1      -7.455  -4.833  19.730  0.00  0.00    +0.000 C 
ATOM     22  O   UNL     1      -6.830  -5.488  18.907  0.00  0.00    +0.000 OA
ATOM     23  N   UNL     1      -7.371  -5.029  21.079  0.00  0.00    +0.000 N 
ATOM     24  C   UNL     1      -7.898  -4.040  21.865  0.00  0.00    +0.000 C 
ATOM     25  O   UNL     1      -7.935  -4.112  23.085  0.00  0.00    +0.000 OA
ATOM     26  H   UNL     1      -8.156   0.043  25.095  0.00  0.00    +0.000 HD
ATOM     27  H   UNL     1      -7.795  -1.828  23.616  0.00  0.00    +0.000 HD
ATOM     28  H   UNL     1     -12.162  -1.630  18.121  0.00  0.00    +0.000 HD
ATOM     29  H   UNL     1     -13.039  -3.799  17.463  0.00  0.00    +0.000 HD
ATOM     30  H   UNL     1     -12.049  -6.284  19.303  0.00  0.00    +0.000 HD
ATOM     31  H   UNL     1      -9.545  -7.485  19.052  0.00  0.00    +0.000 HD
ATOM     32  H   UNL     1     -11.074   1.710  22.399  0.00  0.00    +0.000 HD
ATOM     33  H   UNL     1      -7.198  -5.947  21.445  0.00  0.00    +0.000 HD
ENDROOT
BRANCH  15  34
ATOM     34  C   UNL     1      -9.350  -6.518  16.253  0.00  0.00    +0.000 C 
ATOM     35  H   UNL     1      -9.858  -7.482  16.313  0.00  0.00    +0.000 HD
ATOM     36  H   UNL     1      -8.327  -6.623  15.890  0.00  0.00    +0.000 HD
ATOM     37  H   UNL     1      -9.910  -5.853  15.581  0.00  0.00    +0.000 HD
ENDBRANCH  15  34
BRANCH  18  38
ATOM     38  C   UNL     1     -11.808   0.265  19.923  0.00  0.00    +0.000 C 
ATOM     39  H   UNL     1     -12.297   0.833  20.723  0.00  0.00    +0.000 HD
ATOM     40  H   UNL     1     -12.559  -0.444  19.568  0.00  0.00    +0.000 HD
BRANCH  38  41
ATOM     41  C   UNL     1     -11.343   1.162  18.769  0.00  0.00    +0.000 C 
ATOM     42  H   UNL     1     -12.183   1.340  18.085  0.00  0.00    +0.000 HD
ATOM     43  H   UNL     1     -10.560   0.676  18.175  0.00  0.00    +0.000 HD
BRANCH  41  44
ATOM     44  C   UNL     1     -10.819   2.495  19.287  0.00  0.00    +0.000 C 
ATOM     45  H   UNL     1     -11.225   2.719  20.280  0.00  0.00    +0.000 HD
ATOM     46  H   UNL     1     -11.103   3.313  18.617  0.00  0.00    +0.000 HD
BRANCH  44  47
ATOM     47  O   UNL     1      -9.402   2.467  19.374  0.00  0.00    +0.000 OA
ATOM     48  H   UNL     1      -9.103   3.364  19.607  0.00  0.00    +0.000 HD
ENDBRANCH  44  47
ENDBRANCH  41  44
ENDBRANCH  38  41
ENDBRANCH  18  38
BRANCH   1  49
ATOM     49  O   UNL     1      -9.805   2.158  24.563  0.00  0.00    +0.000 OA
BRANCH  49  50
ATOM     50  C   UNL     1      -8.906   2.321  25.660  0.00  0.00    +0.000 C 
ATOM     51  H   UNL     1      -8.727   3.391  25.794  0.00  0.00    +0.000 HD
ATOM     52  H   UNL     1      -7.939   1.844  25.461  0.00  0.00    +0.000 HD
ATOM     53  H   UNL     1      -9.345   1.943  26.590  0.00  0.00    +0.000 HD
ENDBRANCH  49  50
ENDBRANCH   1  49
TORSDOF 7
ENDMDL
MODEL 9
REMARK VINA RESULT:    -6.763      2.204      6.670
REMARK INTER + INTRA:          -9.635
REMARK INTER:                  -8.968
REMARK INTRA:                  -0.667
REMARK UNBOUND:                -0.697
REMARK  Name = 
REMARK  7 active torsions:
REMARK  status: ('A' for Active; 'I' for Inactive)
REMARK    1  A    between atoms: C_1  and  O_2
REMARK    2  A    between atoms: O_2  and  C_3
REMARK    3  A    between atoms: N_17  and  C_18
REMARK    4  A    between atoms: N_21  and  C_22
REMARK    5  A    between atoms: C_22  and  C_23
REMARK    6  A    between atoms: C_23  and  C_24
REMARK    7  A    between atoms: C_24  and  O_25
REMARK                            x       y       z     vdW  Elec       q    Type
REMARK                         _______ _______ _______ _____ _____    ______ ____
ROOT
ATOM      1  C   UNL     1     -10.984   1.252  19.022  0.00  0.00    +0.000 A 
ATOM      2  C   UNL     1     -11.619   0.742  17.897  0.00  0.00    +0.000 A 
ATOM      3  C   UNL     1     -11.493  -0.609  17.569  0.00  0.00    +0.000 A 
ATOM      4  C   UNL     1     -10.726  -1.468  18.386  0.00  0.00    +0.000 A 
ATOM      5  C   UNL     1     -10.458  -2.815  18.485  0.00  0.00    +0.000 A 
ATOM      6  C   UNL     1     -10.888  -3.733  17.500  0.00  0.00    +0.000 A 
ATOM      7  C   UNL     1     -10.738  -5.090  17.829  0.00  0.00    +0.000 A 
ATOM      8  C   UNL     1      -9.799  -5.536  18.761  0.00  0.00    +0.000 A 
ATOM      9  C   UNL     1      -9.159  -4.565  19.581  0.00  0.00    +0.000 A 
ATOM     10  C   UNL     1      -7.950  -4.874  20.218  0.00  0.00    +0.000 A 
ATOM     11  C   UNL     1      -7.130  -5.852  19.631  0.00  0.00    +0.000 A 
ATOM     12  C   UNL     1      -7.683  -6.539  18.549  0.00  0.00    +0.000 A 
ATOM     13  C   UNL     1      -7.361  -6.624  17.139  0.00  0.00    +0.000 A 
ATOM     14  C   UNL     1      -8.416  -7.279  16.524  0.00  0.00    +0.000 A 
ATOM     15  N   UNL     1      -9.145  -7.775  17.597  0.00  0.00    +0.000 N 
ATOM     16  C   UNL     1      -9.078  -6.733  18.536  0.00  0.00    +0.000 A 
ATOM     17  C   UNL     1      -9.621  -3.213  19.502  0.00  0.00    +0.000 A 
ATOM     18  N   UNL     1      -9.304  -1.979  20.076  0.00  0.00    +0.000 N 
ATOM     19  C   UNL     1     -10.032  -0.932  19.478  0.00  0.00    +0.000 A 
ATOM     20  C   UNL     1     -10.143   0.437  19.796  0.00  0.00    +0.000 A 
ATOM     21  C   UNL     1     -11.374  -5.854  16.798  0.00  0.00    +0.000 C 
ATOM     22  O   UNL     1     -11.767  -7.010  16.724  0.00  0.00    +0.000 OA
ATOM     23  N   UNL     1     -11.499  -4.944  15.787  0.00  0.00    +0.000 N 
ATOM     24  C   UNL     1     -11.278  -3.636  16.125  0.00  0.00    +0.000 C 
ATOM     25  O   UNL     1     -11.306  -2.726  15.308  0.00  0.00    +0.000 OA
ATOM     26  H   UNL     1     -12.225   1.366  17.248  0.00  0.00    +0.000 HD
ATOM     27  H   UNL     1     -12.027  -0.974  16.697  0.00  0.00    +0.000 HD
ATOM     28  H   UNL     1      -7.481  -4.229  20.945  0.00  0.00    +0.000 HD
ATOM     29  H   UNL     1      -6.066  -5.862  19.832  0.00  0.00    +0.000 HD
ATOM     30  H   UNL     1      -6.549  -6.126  16.632  0.00  0.00    +0.000 HD
ATOM     31  H   UNL     1      -8.668  -7.546  15.506  0.00  0.00    +0.000 HD
ATOM     32  H   UNL     1      -9.621   0.867  20.644  0.00  0.00    +0.000 HD
ATOM     33  H   UNL     1     -11.470  -5.246  14.831  0.00  0.00    +0.000 HD
ENDROOT
BRANCH  15  34
ATOM     34  C   UNL     1      -8.903  -9.174  17.976  0.00  0.00    +0.000 C 
ATOM     35  H   UNL     1      -9.732  -9.780  17.607  0.00  0.00    +0.000 HD
ATOM     36  H   UNL     1      -8.798  -9.250  19.060  0.00  0.00    +0.000 HD
ATOM     37  H   UNL     1      -7.971  -9.500  17.495  0.00  0.00    +0.000 HD
ENDBRANCH  15  34
BRANCH  18  38
ATOM     38  C   UNL     1      -8.399  -1.769  21.206  0.00  0.00    +0.000 C 
ATOM     39  H   UNL     1      -8.097  -0.716  21.194  0.00  0.00    +0.000 HD
ATOM     40  H   UNL     1      -7.486  -2.336  21.009  0.00  0.00    +0.000 HD
BRANCH  38  41
ATOM     41  C   UNL     1      -9.001  -2.190  22.553  0.00  0.00    +0.000 C 
ATOM     42  H   UNL     1      -8.588  -3.163  22.848  0.00  0.00    +0.000 HD
ATOM     43  H   UNL     1     -10.086  -2.324  22.482  0.00  0.00    +0.000 HD
BRANCH  41  44
ATOM     44  C   UNL     1      -8.696  -1.161  23.634  0.00  0.00    +0.000 C 
ATOM     45  H   UNL     1      -7.808  -1.444  24.209  0.00  0.00    +0.000 HD
ATOM     46  H   UNL     1      -9.533  -1.070  24.334  0.00  0.00    +0.000 HD
BRANCH  44  47
ATOM     47  O   UNL     1      -8.469   0.114  23.051  0.00  0.00    +0.000 OA
ATOM     48  H   UNL     1      -9.264   0.654  23.202  0.00  0.00    +0.000 HD
ENDBRANCH  44  47
ENDBRANCH  41  44
ENDBRANCH  38  41
ENDBRANCH  18  38
BRANCH   1  49
ATOM     49  O   UNL     1     -11.102   2.555  19.439  0.00  0.00    +0.000 OA
BRANCH  49  50
ATOM     50  C   UNL     1     -10.455   2.848  20.678  0.00  0.00    +0.000 C 
ATOM     51  H   UNL     1     -10.201   1.899  21.159  0.00  0.00    +0.000 HD
ATOM     52  H   UNL     1     -11.118   3.399  21.357  0.00  0.00    +0.000 HD
ATOM     53  H   UNL     1      -9.520   3.395  20.516  0.00  0.00    +0.000 HD
ENDBRANCH  49  50
ENDBRANCH   1  49
TORSDOF 7
ENDMDL
