REMARK  Name = 
REMARK  1 active torsions:
REMARK  status: ('A' for Active; 'I' for Inactive)
REMARK    1  A    between atoms: C_21  and  O_22
REMARK                            x       y       z     vdW  Elec       q    Type
REMARK                         _______ _______ _______ _____ _____    ______ ____
ROOT
ATOM      1  O   UNL     1      -1.964   2.484   2.650  0.00  0.00    +0.000 OA
ATOM      2  C   UNL     1      -1.211   1.542   2.402  0.00  0.00    +0.000 C 
ATOM      3  N   UNL     1      -0.459   0.918   3.367  0.00  0.00    +0.000 N 
ATOM      4  C   UNL     1       0.300  -0.137   2.948  0.00  0.00    +0.000 C 
ATOM      5  O   UNL     1       0.876  -0.886   3.727  0.00  0.00    +0.000 OA
ATOM      6  C   UNL     1       0.125  -0.103   1.531  0.00  0.00    +0.000 A 
ATOM      7  C   UNL     1      -0.867   0.853   1.193  0.00  0.00    +0.000 A 
ATOM      8  C   UNL     1      -1.415   1.009  -0.090  0.00  0.00    +0.000 A 
ATOM      9  C   UNL     1      -0.849   0.237  -1.140  0.00  0.00    +0.000 A 
ATOM     10  C   UNL     1      -1.377   0.233  -2.437  0.00  0.00    +0.000 A 
ATOM     11  C   UNL     1      -2.588   0.878  -2.683  0.00  0.00    +0.000 A 
ATOM     12  C   UNL     1      -3.160   1.679  -1.680  0.00  0.00    +0.000 A 
ATOM     13  C   UNL     1      -4.360   2.431  -1.605  0.00  0.00    +0.000 A 
ATOM     14  C   UNL     1      -4.198   3.312  -0.564  0.00  0.00    +0.000 A 
ATOM     15  N   UNL     1      -3.148   2.863   0.193  0.00  0.00    +0.000 N 
ATOM     16  C   UNL     1      -2.504   1.822  -0.450  0.00  0.00    +0.000 A 
ATOM     17  C   UNL     1       0.292  -0.526  -0.824  0.00  0.00    +0.000 A 
ATOM     18  N   UNL     1       1.221  -1.198  -1.600  0.00  0.00    +0.000 N 
ATOM     19  C   UNL     1       2.237  -1.720  -0.814  0.00  0.00    +0.000 A 
ATOM     20  C   UNL     1       3.428  -2.350  -1.205  0.00  0.00    +0.000 A 
ATOM     21  C   UNL     1       4.283  -2.776  -0.189  0.00  0.00    +0.000 A 
ATOM     22  C   UNL     1       3.972  -2.609   1.149  0.00  0.00    +0.000 A 
ATOM     23  C   UNL     1       2.786  -1.972   1.526  0.00  0.00    +0.000 A 
ATOM     24  C   UNL     1       1.911  -1.495   0.533  0.00  0.00    +0.000 A 
ATOM     25  C   UNL     1       0.745  -0.744   0.444  0.00  0.00    +0.000 A 
ATOM     26  H   UNL     1      -0.513   1.161   4.340  0.00  0.00    +0.000 HD
ATOM     27  H   UNL     1      -0.907  -0.316  -3.245  0.00  0.00    +0.000 HD
ATOM     28  H   UNL     1      -3.057   0.811  -3.660  0.00  0.00    +0.000 HD
ATOM     29  H   UNL     1      -5.177   2.424  -2.316  0.00  0.00    +0.000 HD
ATOM     30  H   UNL     1      -4.757   4.195  -0.284  0.00  0.00    +0.000 HD
ATOM     31  H   UNL     1      -2.837   3.272   1.069  0.00  0.00    +0.000 HD
ATOM     32  H   UNL     1       1.231  -1.195  -2.611  0.00  0.00    +0.000 HD
ATOM     33  H   UNL     1       3.675  -2.467  -2.252  0.00  0.00    +0.000 HD
ATOM     34  H   UNL     1       4.657  -2.954   1.919  0.00  0.00    +0.000 HD
ATOM     35  H   UNL     1       2.582  -1.847   2.583  0.00  0.00    +0.000 HD
ENDROOT
BRANCH  21  36
ATOM     36  O   UNL     1       5.475  -3.374  -0.481  0.00  0.00    +0.000 OA
ATOM     37  H   UNL     1       5.550  -3.456  -1.444  0.00  0.00    +0.000 HD
ENDBRANCH  21  36
TORSDOF 1
