
 OpenBabel01112422173D

 68 75  0  0  1  0  0  0  0  0999 V2000
    1.8293    2.6504   -1.6986 C   0  0  0  0  0  0  0  0  0  0  0  0
    1.1246    3.3137   -0.6759 O   0  0  0  0  0  0  0  0  0  0  0  0
    1.8156    3.8535    0.4671 C   0  0  1  0  0  0  0  0  0  0  0  0
    2.0391    5.3884    0.2985 C   0  0  1  0  0  0  0  0  0  0  0  0
    3.1448    5.9294   -0.5339 N   0  0  0  0  0  0  0  0  0  0  0  0
    3.3190    5.3649   -1.8574 C   0  0  0  0  0  0  0  0  0  0  0  0
    4.3867    6.0021    0.2646 C   0  0  0  0  0  0  0  0  0  0  0  0
    5.6356    6.5308   -0.4525 C   0  0  0  0  0  0  0  0  0  0  0  0
    6.7137    6.7697    0.5178 C   0  0  0  0  0  0  0  0  0  0  0  0
    7.5342    6.9432    1.3049 N   0  0  0  0  0  0  0  0  0  0  0  0
    0.6815    6.0114   -0.0626 C   0  0  0  0  0  0  0  0  0  0  0  0
   -0.3196    5.7534    1.0908 C   0  0  2  0  0  0  0  0  0  0  0  0
    0.2248    4.9529    2.1388 O   0  0  0  0  0  0  0  0  0  0  0  0
    0.8578    3.7012    1.7386 C   0  0  2  0  0  0  0  0  0  0  0  0
    1.6841    3.4015    3.0062 C   0  0  0  0  0  0  0  0  0  0  0  0
   -0.1914    2.7041    1.5314 N   0  0  0  0  0  0  0  0  0  0  0  0
   -0.1727    1.2972    1.6519 C   0  0  0  0  0  0  0  0  0  0  0  0
    0.8558    0.4085    1.9940 C   0  0  0  0  0  0  0  0  0  0  0  0
    0.5248   -0.9194    2.2762 C   0  0  0  0  0  0  0  0  0  0  0  0
   -0.7942   -1.3545    2.2433 C   0  0  0  0  0  0  0  0  0  0  0  0
   -1.7798   -0.5527    1.6707 C   0  0  0  0  0  0  0  0  0  0  0  0
   -1.4407    0.7397    1.2321 C   0  0  0  0  0  0  0  0  0  0  0  0
   -2.0269    1.6990    0.3907 C   0  0  0  0  0  0  0  0  0  0  0  0
   -2.7171    1.4538   -0.8167 C   0  0  0  0  0  0  0  0  0  0  0  0
   -2.9193    2.6032   -1.6173 C   0  0  0  0  0  0  0  0  0  0  0  0
   -2.4746    3.8085   -1.0328 C   0  0  0  0  0  0  0  0  0  0  0  0
   -3.3424    4.9249   -0.7822 C   0  0  0  0  0  0  0  0  0  0  0  0
   -4.5918    5.3391   -1.2829 C   0  0  0  0  0  0  0  0  0  0  0  0
   -5.3272    6.3171   -0.6009 C   0  0  0  0  0  0  0  0  0  0  0  0
   -4.8406    6.9040    0.5641 C   0  0  0  0  0  0  0  0  0  0  0  0
   -3.5587    6.6168    1.0358 C   0  0  0  0  0  0  0  0  0  0  0  0
   -2.7969    5.6581    0.3532 C   0  0  0  0  0  0  0  0  0  0  0  0
   -1.5516    5.1392    0.6860 N   0  0  0  0  0  0  0  0  0  0  0  0
   -1.6279    3.9633    0.0505 C   0  0  0  0  0  0  0  0  0  0  0  0
   -1.2832    2.8208    0.7320 C   0  0  0  0  0  0  0  0  0  0  0  0
   -3.1279    2.2226   -2.9803 C   0  0  0  0  0  0  0  0  0  0  0  0
   -3.1833    2.8353   -4.0266 O   0  0  0  0  0  0  0  0  0  0  0  0
   -3.1824    0.8248   -2.9013 N   0  0  0  0  0  0  0  0  0  0  0  0
   -2.8565    0.2295   -1.6063 C   0  0  0  0  0  0  0  0  0  0  0  0
    1.7629    3.2616   -2.6023 H   0  0  0  0  0  0  0  0  0  0  0  0
    2.8687    2.4330   -1.4489 H   0  0  0  0  0  0  0  0  0  0  0  0
    1.3173    1.7126   -1.9360 H   0  0  0  0  0  0  0  0  0  0  0  0
    2.7484    3.3024    0.6371 H   0  0  0  0  0  0  0  0  0  0  0  0
    2.2641    5.7782    1.2983 H   0  0  0  0  0  0  0  0  0  0  0  0
    2.3751    5.3168   -2.3998 H   0  0  0  0  0  0  0  0  0  0  0  0
    3.9638    6.0071   -2.4701 H   0  0  0  0  0  0  0  0  0  0  0  0
    3.7947    4.3828   -1.8238 H   0  0  0  0  0  0  0  0  0  0  0  0
    4.2024    6.6684    1.0981 H   0  0  0  0  0  0  0  0  0  0  0  0
    4.6198    5.0145    0.6901 H   0  0  0  0  0  0  0  0  0  0  0  0
    5.9821    5.8003   -1.2102 H   0  0  0  0  0  0  0  0  0  0  0  0
    5.4065    7.4547   -0.9835 H   0  0  0  0  0  0  0  0  0  0  0  0
    0.3074    5.6251   -1.0219 H   0  0  0  0  0  0  0  0  0  0  0  0
    0.7754    7.0923   -0.2181 H   0  0  0  0  0  0  0  0  0  0  0  0
   -0.5839    6.7189    1.5364 H   0  0  0  0  0  0  0  0  0  0  0  0
    2.3902    2.5805    2.8781 H   0  0  0  0  0  0  0  0  0  0  0  0
    1.0258    3.1592    3.8515 H   0  0  0  0  0  0  0  0  0  0  0  0
    2.2607    4.2821    3.3140 H   0  0  0  0  0  0  0  0  0  0  0  0
    1.8915    0.7220    2.0307 H   0  0  0  0  0  0  0  0  0  0  0  0
    1.3121   -1.6130    2.5593 H   0  0  0  0  0  0  0  0  0  0  0  0
   -1.0500   -2.3441    2.6106 H   0  0  0  0  0  0  0  0  0  0  0  0
   -2.8038   -0.9084    1.5926 H   0  0  0  0  0  0  0  0  0  0  0  0
   -5.0145    4.8564   -2.1609 H   0  0  0  0  0  0  0  0  0  0  0  0
   -6.3161    6.5880   -0.9624 H   0  0  0  0  0  0  0  0  0  0  0  0
   -5.4727    7.5859    1.1287 H   0  0  0  0  0  0  0  0  0  0  0  0
   -3.2085    7.0436    1.9719 H   0  0  0  0  0  0  0  0  0  0  0  0
   -3.4074    0.2958   -3.7296 H   0  0  0  0  0  0  0  0  0  0  0  0
   -3.6688   -0.4190   -1.2862 H   0  0  0  0  0  0  0  0  0  0  0  0
   -1.9027   -0.3033   -1.6875 H   0  0  0  0  0  0  0  0  0  0  0  0
  1  2  1  0  0  0  0
  1 40  1  0  0  0  0
  1 41  1  0  0  0  0
  1 42  1  0  0  0  0
  2  3  1  0  0  0  0
  3  4  1  0  0  0  0
  3 14  1  0  0  0  0
  3 43  1  1  0  0  0
  4  5  1  0  0  0  0
  4 11  1  0  0  0  0
  4 44  1  1  0  0  0
  5  6  1  0  0  0  0
  5  7  1  0  0  0  0
  6 45  1  0  0  0  0
  6 46  1  0  0  0  0
  6 47  1  0  0  0  0
  7  8  1  0  0  0  0
  7 48  1  0  0  0  0
  7 49  1  0  0  0  0
  8  9  1  0  0  0  0
  8 50  1  0  0  0  0
  8 51  1  0  0  0  0
  9 10  3  0  0  0  0
 11 12  1  0  0  0  0
 11 52  1  0  0  0  0
 11 53  1  0  0  0  0
 12 13  1  0  0  0  0
 12 33  1  0  0  0  0
 12 54  1  1  0  0  0
 13 14  1  0  0  0  0
 14 15  1  1  0  0  0
 14 16  1  0  0  0  0
 15 55  1  0  0  0  0
 15 56  1  0  0  0  0
 15 57  1  0  0  0  0
 16 17  1  0  0  0  0
 16 35  1  0  0  0  0
 17 18  1  0  0  0  0
 17 22  2  0  0  0  0
 18 19  2  0  0  0  0
 18 58  1  0  0  0  0
 19 20  1  0  0  0  0
 19 59  1  0  0  0  0
 20 21  2  0  0  0  0
 20 60  1  0  0  0  0
 21 22  1  0  0  0  0
 21 61  1  0  0  0  0
 22 23  1  0  0  0  0
 23 24  1  0  0  0  0
 23 35  2  0  0  0  0
 24 25  2  0  0  0  0
 24 39  1  0  0  0  0
 25 26  1  0  0  0  0
 25 36  1  0  0  0  0
 26 27  1  0  0  0  0
 26 34  2  0  0  0  0
 27 28  1  0  0  0  0
 27 32  2  0  0  0  0
 28 29  2  0  0  0  0
 28 62  1  0  0  0  0
 29 30  1  0  0  0  0
 29 63  1  0  0  0  0
 30 31  2  0  0  0  0
 30 64  1  0  0  0  0
 31 32  1  0  0  0  0
 31 65  1  0  0  0  0
 32 33  1  0  0  0  0
 33 34  1  0  0  0  0
 34 35  1  0  0  0  0
 36 37  2  0  0  0  0
 36 38  1  0  0  0  0
 38 39  1  0  0  0  0
 38 66  1  0  0  0  0
 39 67  1  0  0  0  0
 39 68  1  0  0  0  0
M  END
$$$$
