REMARK  Name = 
REMARK  10 active torsions:
REMARK  status: ('A' for Active; 'I' for Inactive)
REMARK    1  A    between atoms: N_1  and  C_2
REMARK    2  A    between atoms: C_2  and  C_3
REMARK    3  A    between atoms: C_3  and  C_4
REMARK    4  A    between atoms: C_4  and  C_5
REMARK    5  A    between atoms: C_5  and  C_6
REMARK    6  A    between atoms: C_6  and  C_7
REMARK    7  A    between atoms: C_7  and  C_8
REMARK    8  A    between atoms: C_8  and  N_9
REMARK    9  A    between atoms: N_9  and  C_10
REMARK   10  A    between atoms: C_11  and  C_12
REMARK                            x       y       z     vdW  Elec       q    Type
REMARK                         _______ _______ _______ _____ _____    ______ ____
ROOT
ATOM      1  N   UNL     1       0.658   0.168   2.428  0.00  0.00    +0.000 N 
ATOM      2  H   UNL     1       0.260  -0.517   3.080  0.00  0.00    +0.000 HD
ENDROOT
BRANCH   1   3
ATOM      3  C   UNL     1       2.034   0.221   2.614  0.00  0.00    +0.000 C 
ATOM      4  C   UNL     1       2.983   1.041   2.139  0.00  0.00    +0.000 C 
ATOM      5  C   UNL     1       4.297   0.545   2.602  0.00  0.00    +0.000 C 
ATOM      6  O   UNL     1       5.392   0.983   2.301  0.00  0.00    +0.000 OA
ATOM      7  N   UNL     1       4.055  -0.503   3.420  0.00  0.00    +0.000 N 
ATOM      8  C   UNL     1       2.738  -0.770   3.476  0.00  0.00    +0.000 C 
ATOM      9  O   UNL     1       2.182  -1.663   4.095  0.00  0.00    +0.000 OA
ATOM     10  H   UNL     1       4.770  -1.034   3.886  0.00  0.00    +0.000 HD
BRANCH   4  11
ATOM     11  C   UNL     1       2.764   2.186   1.350  0.00  0.00    +0.000 A 
ATOM     12  C   UNL     1       3.474   2.800   0.340  0.00  0.00    +0.000 A 
ATOM     13  C   UNL     1       2.748   3.951  -0.069  0.00  0.00    +0.000 A 
ATOM     14  C   UNL     1       2.954   4.930  -1.058  0.00  0.00    +0.000 A 
ATOM     15  C   UNL     1       2.016   5.956  -1.208  0.00  0.00    +0.000 A 
ATOM     16  C   UNL     1       0.900   6.027  -0.375  0.00  0.00    +0.000 A 
ATOM     17  C   UNL     1       0.682   5.073   0.624  0.00  0.00    +0.000 A 
ATOM     18  C   UNL     1       1.618   4.040   0.741  0.00  0.00    +0.000 A 
ATOM     19  N   UNL     1       1.653   2.961   1.594  0.00  0.00    +0.000 N 
ATOM     20  H   UNL     1       4.411   2.451  -0.074  0.00  0.00    +0.000 HD
ATOM     21  H   UNL     1       3.827   4.884  -1.702  0.00  0.00    +0.000 HD
ATOM     22  H   UNL     1       2.163   6.706  -1.981  0.00  0.00    +0.000 HD
ATOM     23  H   UNL     1       0.186   6.837  -0.506  0.00  0.00    +0.000 HD
ATOM     24  H   UNL     1      -0.184   5.136   1.276  0.00  0.00    +0.000 HD
ATOM     25  H   UNL     1       0.947   2.752   2.289  0.00  0.00    +0.000 HD
ENDBRANCH   4  11
ENDBRANCH   1   3
BRANCH   1  26
ATOM     26  C   UNL     1       0.114  -0.004   1.074  0.00  0.00    +0.000 C 
ATOM     27  H   UNL     1      -0.486   0.876   0.817  0.00  0.00    +0.000 HD
ATOM     28  H   UNL     1       0.921  -0.077   0.333  0.00  0.00    +0.000 HD
BRANCH  26  29
ATOM     29  C   UNL     1      -0.748  -1.264   0.992  0.00  0.00    +0.000 C 
ATOM     30  H   UNL     1      -0.153  -2.143   1.273  0.00  0.00    +0.000 HD
ATOM     31  H   UNL     1      -1.574  -1.198   1.710  0.00  0.00    +0.000 HD
BRANCH  29  32
ATOM     32  C   UNL     1      -1.298  -1.439  -0.422  0.00  0.00    +0.000 C 
ATOM     33  H   UNL     1      -1.883  -0.553  -0.698  0.00  0.00    +0.000 HD
ATOM     34  H   UNL     1      -0.465  -1.509  -1.133  0.00  0.00    +0.000 HD
BRANCH  32  35
ATOM     35  C   UNL     1      -2.172  -2.684  -0.538  0.00  0.00    +0.000 C 
ATOM     36  H   UNL     1      -1.588  -3.572  -0.268  0.00  0.00    +0.000 HD
ATOM     37  H   UNL     1      -3.007  -2.616   0.169  0.00  0.00    +0.000 HD
BRANCH  35  38
ATOM     38  C   UNL     1      -2.714  -2.837  -1.960  0.00  0.00    +0.000 C 
ATOM     39  H   UNL     1      -3.296  -1.948  -2.231  0.00  0.00    +0.000 HD
ATOM     40  H   UNL     1      -1.880  -2.906  -2.667  0.00  0.00    +0.000 HD
BRANCH  38  41
ATOM     41  C   UNL     1      -3.592  -4.083  -2.077  0.00  0.00    +0.000 C 
ATOM     42  H   UNL     1      -3.006  -4.969  -1.804  0.00  0.00    +0.000 HD
ATOM     43  H   UNL     1      -4.422  -4.011  -1.363  0.00  0.00    +0.000 HD
BRANCH  41  44
ATOM     44  C   UNL     1      -4.138  -4.241  -3.494  0.00  0.00    +0.000 C 
ATOM     45  H   UNL     1      -4.731  -3.363  -3.773  0.00  0.00    +0.000 HD
ATOM     46  H   UNL     1      -3.313  -4.328  -4.209  0.00  0.00    +0.000 HD
BRANCH  44  47
ATOM     47  N   UNL     1      -4.970  -5.435  -3.575  0.00  0.00    +0.000 NA
ATOM     48  H   UNL     1      -5.372  -5.505  -4.508  0.00  0.00    +0.000 HD
ATOM     49  H   UNL     1      -5.755  -5.350  -2.930  0.00  0.00    +0.000 HD
ENDBRANCH  44  47
ENDBRANCH  41  44
ENDBRANCH  38  41
ENDBRANCH  35  38
ENDBRANCH  32  35
ENDBRANCH  29  32
ENDBRANCH  26  29
ENDBRANCH   1  26
TORSDOF 10
