REMARK  Name = 
REMARK  3 active torsions:
REMARK  status: ('A' for Active; 'I' for Inactive)
REMARK    1  A    between atoms: C_1  and  C_2
REMARK    2  A    between atoms: N_7  and  S_8
REMARK    3  A    between atoms: S_8  and  C_11
REMARK                            x       y       z     vdW  Elec       q    Type
REMARK                         _______ _______ _______ _____ _____    ______ ____
ROOT
ATOM      1  S   UNL     1      -1.208  -0.690  -0.146  0.00  0.00    +0.000 S 
ATOM      2  O   UNL     1      -2.632  -0.479   0.002  0.00  0.00    +0.000 OA
ATOM      3  O   UNL     1      -0.695  -1.925  -0.700  0.00  0.00    +0.000 OA
ENDROOT
BRANCH   1   4
ATOM      4  C   UNL     1      -0.485  -0.380   1.467  0.00  0.00    +0.000 A 
ATOM      5  C   UNL     1      -0.812   0.872   2.026  0.00  0.00    +0.000 A 
ATOM      6  C   UNL     1      -0.347   1.227   3.285  0.00  0.00    +0.000 A 
ATOM      7  C   UNL     1       0.447   0.338   3.999  0.00  0.00    +0.000 A 
ATOM      8  C   UNL     1       0.769  -0.924   3.473  0.00  0.00    +0.000 A 
ATOM      9  C   UNL     1       1.545  -1.815   4.221  0.00  0.00    +0.000 A 
ATOM     10  N   UNL     1       1.889  -3.058   3.832  0.00  0.00    +0.000 NA
ATOM     11  C   UNL     1       1.430  -3.445   2.631  0.00  0.00    +0.000 A 
ATOM     12  C   UNL     1       0.659  -2.641   1.800  0.00  0.00    +0.000 A 
ATOM     13  C   UNL     1       0.303  -1.327   2.194  0.00  0.00    +0.000 A 
ATOM     14  H   UNL     1      -1.453   1.565   1.481  0.00  0.00    +0.000 HD
ATOM     15  H   UNL     1      -0.615   2.187   3.719  0.00  0.00    +0.000 HD
ATOM     16  H   UNL     1       0.802   0.630   4.988  0.00  0.00    +0.000 HD
ATOM     17  H   UNL     1       1.920  -1.543   5.208  0.00  0.00    +0.000 HD
ATOM     18  H   UNL     1       1.697  -4.456   2.335  0.00  0.00    +0.000 HD
ATOM     19  H   UNL     1       0.344  -3.080   0.863  0.00  0.00    +0.000 HD
ENDBRANCH   1   4
BRANCH   1  25
ATOM     20  C   UNL     1      -1.403   0.879  -2.369  0.00  0.00    +0.000 C 
ATOM     21  C   UNL     1      -0.808   2.111  -3.101  0.00  0.00    +0.000 C 
ATOM     22  N   UNL     1       0.615   1.954  -3.446  0.00  0.00    +0.000 NA
ATOM     23  C   UNL     1       1.378   1.703  -2.214  0.00  0.00    +0.000 C 
ATOM     24  C   UNL     1       0.877   0.479  -1.420  0.00  0.00    +0.000 C 
ATOM     25  N   UNL     1      -0.590   0.580  -1.121  0.00  0.00    +0.000 NA
ATOM     26  H   UNL     1      -2.413   1.163  -2.048  0.00  0.00    +0.000 HD
ATOM     27  H   UNL     1      -0.930   3.004  -2.475  0.00  0.00    +0.000 HD
ATOM     28  H   UNL     1      -1.371   2.298  -4.024  0.00  0.00    +0.000 HD
ATOM     29  H   UNL     1       0.952   2.810  -3.886  0.00  0.00    +0.000 HD
ATOM     30  H   UNL     1       1.340   2.596  -1.578  0.00  0.00    +0.000 HD
ATOM     31  H   UNL     1       2.428   1.545  -2.482  0.00  0.00    +0.000 HD
ATOM     32  H   UNL     1       1.436   0.433  -0.480  0.00  0.00    +0.000 HD
ATOM     33  H   UNL     1       1.085  -0.435  -1.987  0.00  0.00    +0.000 HD
BRANCH  20  34
ATOM     34  C   UNL     1      -1.510  -0.314  -3.322  0.00  0.00    +0.000 C 
ATOM     35  H   UNL     1      -2.052  -0.028  -4.231  0.00  0.00    +0.000 HD
ATOM     36  H   UNL     1      -2.064  -1.141  -2.870  0.00  0.00    +0.000 HD
ATOM     37  H   UNL     1      -0.530  -0.694  -3.627  0.00  0.00    +0.000 HD
ENDBRANCH  20  34
ENDBRANCH   1  25
TORSDOF 3
