REMARK  Name = 
REMARK  6 active torsions:
REMARK  status: ('A' for Active; 'I' for Inactive)
REMARK    1  A    between atoms: C_1  and  N_2
REMARK    2  A    between atoms: N_2  and  C_3
REMARK    3  A    between atoms: C_7  and  C_8
REMARK    4  A    between atoms: C_9  and  O_10
REMARK    5  A    between atoms: O_10  and  C_11
REMARK    6  A    between atoms: C_32  and  O_33
REMARK                            x       y       z     vdW  Elec       q    Type
REMARK                         _______ _______ _______ _____ _____    ______ ____
ROOT
ATOM      1  C   UNL     1       2.926   0.537  -1.461  0.00  0.00    +0.000 C 
ATOM      2  C   UNL     1       1.744  -0.188  -2.243  0.00  0.00    +0.000 C 
ATOM      3  C   UNL     1       0.275   0.493  -1.965  0.00  0.00    +0.000 C 
ATOM      4  O   UNL     1       0.173   1.077  -0.606  0.00  0.00    +0.000 OA
ATOM      5  C   UNL     1       1.099   0.382   0.295  0.00  0.00    +0.000 C 
ATOM      6  C   UNL     1       2.241   1.301  -0.353  0.00  0.00    +0.000 C 
ATOM      7  N   UNL     1       0.711  -1.081   0.092  0.00  0.00    +0.000 N 
ATOM      8  C   UNL     1       0.913  -2.316   0.784  0.00  0.00    +0.000 A 
ATOM      9  C   UNL     1       1.662  -3.425   0.332  0.00  0.00    +0.000 A 
ATOM     10  C   UNL     1       1.375  -4.699   0.845  0.00  0.00    +0.000 A 
ATOM     11  C   UNL     1       0.475  -4.880   1.897  0.00  0.00    +0.000 A 
ATOM     12  C   UNL     1      -0.290  -3.818   2.390  0.00  0.00    +0.000 A 
ATOM     13  C   UNL     1      -0.231  -2.605   1.675  0.00  0.00    +0.000 A 
ATOM     14  C   UNL     1      -1.239  -1.712   1.286  0.00  0.00    +0.000 A 
ATOM     15  C   UNL     1      -2.408  -1.223   1.909  0.00  0.00    +0.000 A 
ATOM     16  C   UNL     1      -2.914  -0.098   1.221  0.00  0.00    +0.000 A 
ATOM     17  C   UNL     1      -2.474   0.010  -0.107  0.00  0.00    +0.000 A 
ATOM     18  C   UNL     1      -2.620   1.112  -0.946  0.00  0.00    +0.000 A 
ATOM     19  C   UNL     1      -2.987   2.446  -0.859  0.00  0.00    +0.000 A 
ATOM     20  C   UNL     1      -3.584   2.954  -1.991  0.00  0.00    +0.000 A 
ATOM     21  C   UNL     1      -3.772   2.137  -3.116  0.00  0.00    +0.000 A 
ATOM     22  C   UNL     1      -3.025   0.958  -3.301  0.00  0.00    +0.000 A 
ATOM     23  C   UNL     1      -2.208   0.609  -2.232  0.00  0.00    +0.000 A 
ATOM     24  N   UNL     1      -1.029  -0.217  -2.029  0.00  0.00    +0.000 N 
ATOM     25  C   UNL     1      -1.480  -0.689  -0.809  0.00  0.00    +0.000 A 
ATOM     26  C   UNL     1      -0.645  -1.282   0.101  0.00  0.00    +0.000 A 
ATOM     27  C   UNL     1      -3.871   0.666   1.993  0.00  0.00    +0.000 C 
ATOM     28  N   UNL     1      -4.030  -0.250   3.094  0.00  0.00    +0.000 N 
ATOM     29  C   UNL     1      -3.175  -1.356   3.102  0.00  0.00    +0.000 C 
ATOM     30  O   UNL     1      -3.194  -2.210   3.994  0.00  0.00    +0.000 OA
ATOM     31  H   UNL     1       3.415   1.269  -2.121  0.00  0.00    +0.000 HD
ATOM     32  H   UNL     1       1.971  -0.201  -3.314  0.00  0.00    +0.000 HD
ATOM     33  H   UNL     1       1.758  -1.249  -1.971  0.00  0.00    +0.000 HD
ATOM     34  H   UNL     1       0.196   1.325  -2.677  0.00  0.00    +0.000 HD
ATOM     35  H   UNL     1       1.736   2.086  -0.942  0.00  0.00    +0.000 HD
ATOM     36  H   UNL     1       2.293  -3.338  -0.551  0.00  0.00    +0.000 HD
ATOM     37  H   UNL     1       1.815  -5.577   0.372  0.00  0.00    +0.000 HD
ATOM     38  H   UNL     1       0.270  -5.887   2.257  0.00  0.00    +0.000 HD
ATOM     39  H   UNL     1      -1.118  -4.026   3.066  0.00  0.00    +0.000 HD
ATOM     40  H   UNL     1      -2.872   2.998   0.063  0.00  0.00    +0.000 HD
ATOM     41  H   UNL     1      -3.981   3.962  -1.959  0.00  0.00    +0.000 HD
ATOM     42  H   UNL     1      -4.486   2.455  -3.872  0.00  0.00    +0.000 HD
ATOM     43  H   UNL     1      -3.114   0.354  -4.193  0.00  0.00    +0.000 HD
ATOM     44  H   UNL     1      -4.811   0.884   1.485  0.00  0.00    +0.000 HD
ATOM     45  H   UNL     1      -4.798  -0.212   3.744  0.00  0.00    +0.000 HD
ENDROOT
BRANCH   5  46
ATOM     46  C   UNL     1       0.890   0.813   1.754  0.00  0.00    +0.000 C 
ATOM     47  H   UNL     1       0.432   1.803   1.823  0.00  0.00    +0.000 HD
ATOM     48  H   UNL     1       0.263   0.138   2.337  0.00  0.00    +0.000 HD
ATOM     49  H   UNL     1       1.853   0.815   2.277  0.00  0.00    +0.000 HD
ENDBRANCH   5  46
BRANCH   1  50
ATOM     50  N   UNL     1       3.904  -0.358  -0.812  0.00  0.00    +0.000 NA
ATOM     51  H   UNL     1       3.928  -0.178   0.200  0.00  0.00    +0.000 HD
BRANCH  50  52
ATOM     52  C   UNL     1       5.272  -0.252  -1.305  0.00  0.00    +0.000 C 
ATOM     53  H   UNL     1       5.446  -1.098  -1.971  0.00  0.00    +0.000 HD
ATOM     54  H   UNL     1       5.981  -0.348  -0.471  0.00  0.00    +0.000 HD
ATOM     55  H   UNL     1       5.527   0.679  -1.825  0.00  0.00    +0.000 HD
ENDBRANCH  50  52
ENDBRANCH   1  50
BRANCH  27  56
ATOM     56  O   UNL     1      -3.297   1.830   2.536  0.00  0.00    +0.000 OA
ATOM     57  H   UNL     1      -3.373   1.713   3.497  0.00  0.00    +0.000 HD
ENDBRANCH  27  56
BRANCH   6  58
ATOM     58  O   UNL     1       3.019   2.158   0.501  0.00  0.00    +0.000 OA
BRANCH  58  59
ATOM     59  C   UNL     1       3.301   3.440  -0.112  0.00  0.00    +0.000 C 
ATOM     60  H   UNL     1       4.295   3.392  -0.558  0.00  0.00    +0.000 HD
ATOM     61  H   UNL     1       2.588   3.752  -0.892  0.00  0.00    +0.000 HD
ATOM     62  H   UNL     1       3.280   4.230   0.646  0.00  0.00    +0.000 HD
ENDBRANCH  58  59
ENDBRANCH   6  58
TORSDOF 6
