MODEL 1
REMARK VINA RESULT:   -13.281      0.000      0.000
REMARK INTER + INTRA:         -13.669
REMARK INTER:                 -13.669
REMARK INTRA:                   0.000
REMARK UNBOUND:                 0.000
REMARK  Name = 
REMARK  1 active torsions:
REMARK  status: ('A' for Active; 'I' for Inactive)
REMARK    1  A    between atoms: C_21  and  O_22
REMARK                            x       y       z     vdW  Elec       q    Type
REMARK                         _______ _______ _______ _____ _____    ______ ____
ROOT
ATOM      1  O   UNL     1      -8.481 -10.325  20.619  0.00  0.00    +0.000 OA
ATOM      2  C   UNL     1      -8.632  -9.251  20.037  0.00  0.00    +0.000 C 
ATOM      3  N   UNL     1      -8.481  -8.038  20.663  0.00  0.00    +0.000 N 
ATOM      4  C   UNL     1      -8.643  -6.933  19.878  0.00  0.00    +0.000 C 
ATOM      5  O   UNL     1      -8.365  -5.804  20.263  0.00  0.00    +0.000 OA
ATOM      6  C   UNL     1      -9.083  -7.492  18.640  0.00  0.00    +0.000 A 
ATOM      7  C   UNL     1      -8.990  -8.906  18.692  0.00  0.00    +0.000 A 
ATOM      8  C   UNL     1      -9.165  -9.755  17.588  0.00  0.00    +0.000 A 
ATOM      9  C   UNL     1      -9.582  -9.159  16.366  0.00  0.00    +0.000 A 
ATOM     10  C   UNL     1      -9.692  -9.888  15.176  0.00  0.00    +0.000 A 
ATOM     11  C   UNL     1      -9.231 -11.203  15.135  0.00  0.00    +0.000 A 
ATOM     12  C   UNL     1      -8.844 -11.836  16.328  0.00  0.00    +0.000 A 
ATOM     13  C   UNL     1      -8.324 -13.123  16.620  0.00  0.00    +0.000 A 
ATOM     14  C   UNL     1      -8.514 -13.319  17.966  0.00  0.00    +0.000 A 
ATOM     15  N   UNL     1      -8.760 -12.094  18.527  0.00  0.00    +0.000 N 
ATOM     16  C   UNL     1      -8.931 -11.140  17.541  0.00  0.00    +0.000 A 
ATOM     17  C   UNL     1      -9.899  -7.788  16.404  0.00  0.00    +0.000 A 
ATOM     18  N   UNL     1     -10.533  -6.942  15.510  0.00  0.00    +0.000 N 
ATOM     19  C   UNL     1     -10.704  -5.680  16.058  0.00  0.00    +0.000 A 
ATOM     20  C   UNL     1     -11.406  -4.578  15.548  0.00  0.00    +0.000 A 
ATOM     21  C   UNL     1     -11.419  -3.420  16.325  0.00  0.00    +0.000 A 
ATOM     22  C   UNL     1     -10.754  -3.343  17.537  0.00  0.00    +0.000 A 
ATOM     23  C   UNL     1     -10.065  -4.451  18.038  0.00  0.00    +0.000 A 
ATOM     24  C   UNL     1     -10.056  -5.650  17.303  0.00  0.00    +0.000 A 
ATOM     25  C   UNL     1      -9.625  -6.963  17.455  0.00  0.00    +0.000 A 
ATOM     26  H   UNL     1      -8.192  -7.954  21.621  0.00  0.00    +0.000 HD
ATOM     27  H   UNL     1     -10.062  -9.439  14.261  0.00  0.00    +0.000 HD
ATOM     28  H   UNL     1      -9.226 -11.754  14.199  0.00  0.00    +0.000 HD
ATOM     29  H   UNL     1      -7.988 -13.865  15.906  0.00  0.00    +0.000 HD
ATOM     30  H   UNL     1      -8.463 -14.216  18.570  0.00  0.00    +0.000 HD
ATOM     31  H   UNL     1      -8.871 -11.914  19.521  0.00  0.00    +0.000 HD
ATOM     32  H   UNL     1     -10.937  -7.238  14.631  0.00  0.00    +0.000 HD
ATOM     33  H   UNL     1     -11.936  -4.645  14.607  0.00  0.00    +0.000 HD
ATOM     34  H   UNL     1     -10.779  -2.425  18.119  0.00  0.00    +0.000 HD
ATOM     35  H   UNL     1      -9.567  -4.358  18.996  0.00  0.00    +0.000 HD
ENDROOT
BRANCH  21  36
ATOM     36  O   UNL     1     -12.100  -2.310  15.917  0.00  0.00    +0.000 OA
ATOM     37  H   UNL     1     -12.060  -1.647  16.624  0.00  0.00    +0.000 HD
ENDBRANCH  21  36
TORSDOF 1
ENDMDL
MODEL 2
REMARK VINA RESULT:   -12.419      2.485      7.224
REMARK INTER + INTRA:         -12.782
REMARK INTER:                 -12.782
REMARK INTRA:                   0.000
REMARK UNBOUND:                 0.000
REMARK  Name = 
REMARK  1 active torsions:
REMARK  status: ('A' for Active; 'I' for Inactive)
REMARK    1  A    between atoms: C_21  and  O_22
REMARK                            x       y       z     vdW  Elec       q    Type
REMARK                         _______ _______ _______ _____ _____    ______ ____
ROOT
ATOM      1  O   UNL     1      -9.687  -6.127  15.322  0.00  0.00    +0.000 OA
ATOM      2  C   UNL     1      -9.358  -7.309  15.427  0.00  0.00    +0.000 C 
ATOM      3  N   UNL     1      -9.222  -8.142  14.344  0.00  0.00    +0.000 N 
ATOM      4  C   UNL     1      -8.813  -9.416  14.614  0.00  0.00    +0.000 C 
ATOM      5  O   UNL     1      -8.484 -10.204  13.735  0.00  0.00    +0.000 OA
ATOM      6  C   UNL     1      -8.819  -9.450  16.041  0.00  0.00    +0.000 A 
ATOM      7  C   UNL     1      -9.056  -8.147  16.550  0.00  0.00    +0.000 A 
ATOM      8  C   UNL     1      -8.942  -7.790  17.903  0.00  0.00    +0.000 A 
ATOM      9  C   UNL     1      -8.690  -8.833  18.835  0.00  0.00    +0.000 A 
ATOM     10  C   UNL     1      -8.457  -8.586  20.193  0.00  0.00    +0.000 A 
ATOM     11  C   UNL     1      -8.309  -7.271  20.632  0.00  0.00    +0.000 A 
ATOM     12  C   UNL     1      -8.584  -6.213  19.749  0.00  0.00    +0.000 A 
ATOM     13  C   UNL     1      -8.512  -4.802  19.873  0.00  0.00    +0.000 A 
ATOM     14  C   UNL     1      -9.269  -4.287  18.849  0.00  0.00    +0.000 A 
ATOM     15  N   UNL     1      -9.458  -5.289  17.935  0.00  0.00    +0.000 N 
ATOM     16  C   UNL     1      -9.007  -6.494  18.443  0.00  0.00    +0.000 A 
ATOM     17  C   UNL     1      -8.698 -10.149  18.332  0.00  0.00    +0.000 A 
ATOM     18  N   UNL     1      -8.719 -11.391  18.944  0.00  0.00    +0.000 N 
ATOM     19  C   UNL     1      -8.827 -12.404  18.003  0.00  0.00    +0.000 A 
ATOM     20  C   UNL     1      -9.012 -13.781  18.197  0.00  0.00    +0.000 A 
ATOM     21  C   UNL     1      -9.094 -14.577  17.055  0.00  0.00    +0.000 A 
ATOM     22  C   UNL     1      -8.979 -14.047  15.782  0.00  0.00    +0.000 A 
ATOM     23  C   UNL     1      -8.805 -12.671  15.601  0.00  0.00    +0.000 A 
ATOM     24  C   UNL     1      -8.751 -11.827  16.725  0.00  0.00    +0.000 A 
ATOM     25  C   UNL     1      -8.707 -10.466  17.006  0.00  0.00    +0.000 A 
ATOM     26  H   UNL     1      -9.336  -7.826  13.397  0.00  0.00    +0.000 HD
ATOM     27  H   UNL     1      -8.320  -9.391  20.906  0.00  0.00    +0.000 HD
ATOM     28  H   UNL     1      -8.041  -7.064  21.664  0.00  0.00    +0.000 HD
ATOM     29  H   UNL     1      -8.080  -4.243  20.693  0.00  0.00    +0.000 HD
ATOM     30  H   UNL     1      -9.659  -3.291  18.682  0.00  0.00    +0.000 HD
ATOM     31  H   UNL     1      -9.922  -5.187  17.037  0.00  0.00    +0.000 HD
ATOM     32  H   UNL     1      -8.783 -11.536  19.942  0.00  0.00    +0.000 HD
ATOM     33  H   UNL     1      -9.114 -14.191  19.193  0.00  0.00    +0.000 HD
ATOM     34  H   UNL     1      -9.045 -14.692  14.911  0.00  0.00    +0.000 HD
ATOM     35  H   UNL     1      -8.732 -12.290  14.589  0.00  0.00    +0.000 HD
ENDROOT
BRANCH  21  36
ATOM     36  O   UNL     1      -9.299 -15.923  17.153  0.00  0.00    +0.000 OA
ATOM     37  H   UNL     1     -10.246 -16.098  17.039  0.00  0.00    +0.000 HD
ENDBRANCH  21  36
TORSDOF 1
ENDMDL
MODEL 3
REMARK VINA RESULT:   -12.309      1.768      6.296
REMARK INTER + INTRA:         -12.668
REMARK INTER:                 -12.668
REMARK INTRA:                   0.000
REMARK UNBOUND:                 0.000
REMARK  Name = 
REMARK  1 active torsions:
REMARK  status: ('A' for Active; 'I' for Inactive)
REMARK    1  A    between atoms: C_21  and  O_22
REMARK                            x       y       z     vdW  Elec       q    Type
REMARK                         _______ _______ _______ _____ _____    ______ ____
ROOT
ATOM      1  O   UNL     1      -8.218  -5.395  20.384  0.00  0.00    +0.000 OA
ATOM      2  C   UNL     1      -8.476  -6.497  19.897  0.00  0.00    +0.000 C 
ATOM      3  N   UNL     1      -8.176  -7.678  20.531  0.00  0.00    +0.000 N 
ATOM      4  C   UNL     1      -8.557  -8.819  19.886  0.00  0.00    +0.000 C 
ATOM      5  O   UNL     1      -8.511  -9.923  20.414  0.00  0.00    +0.000 OA
ATOM      6  C   UNL     1      -9.032  -8.325  18.633  0.00  0.00    +0.000 A 
ATOM      7  C   UNL     1      -9.077  -6.907  18.663  0.00  0.00    +0.000 A 
ATOM      8  C   UNL     1      -9.668  -6.110  17.669  0.00  0.00    +0.000 A 
ATOM      9  C   UNL     1     -10.142  -6.768  16.502  0.00  0.00    +0.000 A 
ATOM     10  C   UNL     1     -10.838  -6.093  15.491  0.00  0.00    +0.000 A 
ATOM     11  C   UNL     1     -11.222  -4.768  15.695  0.00  0.00    +0.000 A 
ATOM     12  C   UNL     1     -10.743  -4.075  16.819  0.00  0.00    +0.000 A 
ATOM     13  C   UNL     1     -10.956  -2.763  17.314  0.00  0.00    +0.000 A 
ATOM     14  C   UNL     1      -9.938  -2.517  18.202  0.00  0.00    +0.000 A 
ATOM     15  N   UNL     1      -9.378  -3.724  18.529  0.00  0.00    +0.000 N 
ATOM     16  C   UNL     1      -9.884  -4.722  17.717  0.00  0.00    +0.000 A 
ATOM     17  C   UNL     1      -9.869  -8.145  16.392  0.00  0.00    +0.000 A 
ATOM     18  N   UNL     1      -9.964  -9.044  15.344  0.00  0.00    +0.000 N 
ATOM     19  C   UNL     1      -9.470 -10.286  15.712  0.00  0.00    +0.000 A 
ATOM     20  C   UNL     1      -9.262 -11.428  14.923  0.00  0.00    +0.000 A 
ATOM     21  C   UNL     1      -8.740 -12.553  15.562  0.00  0.00    +0.000 A 
ATOM     22  C   UNL     1      -8.456 -12.561  16.916  0.00  0.00    +0.000 A 
ATOM     23  C   UNL     1      -8.660 -11.414  17.689  0.00  0.00    +0.000 A 
ATOM     24  C   UNL     1      -9.152 -10.246  17.078  0.00  0.00    +0.000 A 
ATOM     25  C   UNL     1      -9.388  -8.917  17.409  0.00  0.00    +0.000 A 
ATOM     26  H   UNL     1      -7.772  -7.714  21.450  0.00  0.00    +0.000 HD
ATOM     27  H   UNL     1     -11.149  -6.590  14.580  0.00  0.00    +0.000 HD
ATOM     28  H   UNL     1     -11.838  -4.256  14.961  0.00  0.00    +0.000 HD
ATOM     29  H   UNL     1     -11.680  -2.042  16.955  0.00  0.00    +0.000 HD
ATOM     30  H   UNL     1      -9.589  -1.595  18.648  0.00  0.00    +0.000 HD
ATOM     31  H   UNL     1      -8.646  -3.865  19.219  0.00  0.00    +0.000 HD
ATOM     32  H   UNL     1     -10.231  -8.797  14.401  0.00  0.00    +0.000 HD
ATOM     33  H   UNL     1      -9.472 -11.415  13.862  0.00  0.00    +0.000 HD
ATOM     34  H   UNL     1      -8.053 -13.454  17.387  0.00  0.00    +0.000 HD
ATOM     35  H   UNL     1      -8.413 -11.454  18.744  0.00  0.00    +0.000 HD
ENDROOT
BRANCH  21  36
ATOM     36  O   UNL     1      -8.481 -13.698  14.865  0.00  0.00    +0.000 OA
ATOM     37  H   UNL     1      -7.620 -14.042  15.148  0.00  0.00    +0.000 HD
ENDBRANCH  21  36
TORSDOF 1
ENDMDL
MODEL 4
REMARK VINA RESULT:   -11.853      2.381      4.293
REMARK INTER + INTRA:         -12.199
REMARK INTER:                 -12.199
REMARK INTRA:                   0.000
REMARK UNBOUND:                 0.000
REMARK  Name = 
REMARK  1 active torsions:
REMARK  status: ('A' for Active; 'I' for Inactive)
REMARK    1  A    between atoms: C_21  and  O_22
REMARK                            x       y       z     vdW  Elec       q    Type
REMARK                         _______ _______ _______ _____ _____    ______ ____
ROOT
ATOM      1  O   UNL     1      -8.730 -10.805  13.544  0.00  0.00    +0.000 OA
ATOM      2  C   UNL     1      -8.930  -9.991  14.445  0.00  0.00    +0.000 C 
ATOM      3  N   UNL     1      -9.223  -8.671  14.202  0.00  0.00    +0.000 N 
ATOM      4  C   UNL     1      -9.459  -7.897  15.302  0.00  0.00    +0.000 C 
ATOM      5  O   UNL     1      -9.900  -6.757  15.224  0.00  0.00    +0.000 OA
ATOM      6  C   UNL     1      -9.147  -8.781  16.379  0.00  0.00    +0.000 A 
ATOM      7  C   UNL     1      -8.917 -10.087  15.875  0.00  0.00    +0.000 A 
ATOM      8  C   UNL     1      -8.770 -11.232  16.674  0.00  0.00    +0.000 A 
ATOM      9  C   UNL     1      -8.732 -11.045  18.082  0.00  0.00    +0.000 A 
ATOM     10  C   UNL     1      -8.691 -12.118  18.981  0.00  0.00    +0.000 A 
ATOM     11  C   UNL     1      -8.851 -13.417  18.501  0.00  0.00    +0.000 A 
ATOM     12  C   UNL     1      -8.858 -13.645  17.114  0.00  0.00    +0.000 A 
ATOM     13  C   UNL     1      -9.018 -14.811  16.323  0.00  0.00    +0.000 A 
ATOM     14  C   UNL     1      -8.541 -14.497  15.074  0.00  0.00    +0.000 A 
ATOM     15  N   UNL     1      -8.468 -13.131  14.994  0.00  0.00    +0.000 N 
ATOM     16  C   UNL     1      -8.699 -12.566  16.234  0.00  0.00    +0.000 A 
ATOM     17  C   UNL     1      -8.722  -9.715  18.547  0.00  0.00    +0.000 A 
ATOM     18  N   UNL     1      -8.468  -9.152  19.785  0.00  0.00    +0.000 N 
ATOM     19  C   UNL     1      -8.479  -7.767  19.710  0.00  0.00    +0.000 A 
ATOM     20  C   UNL     1      -8.144  -6.822  20.691  0.00  0.00    +0.000 A 
ATOM     21  C   UNL     1      -8.240  -5.477  20.335  0.00  0.00    +0.000 A 
ATOM     22  C   UNL     1      -8.665  -5.080  19.079  0.00  0.00    +0.000 A 
ATOM     23  C   UNL     1      -8.988  -6.032  18.107  0.00  0.00    +0.000 A 
ATOM     24  C   UNL     1      -8.871  -7.400  18.413  0.00  0.00    +0.000 A 
ATOM     25  C   UNL     1      -8.967  -8.625  17.764  0.00  0.00    +0.000 A 
ATOM     26  H   UNL     1      -9.338  -8.301  13.276  0.00  0.00    +0.000 HD
ATOM     27  H   UNL     1      -8.607 -11.966  20.051  0.00  0.00    +0.000 HD
ATOM     28  H   UNL     1      -8.911 -14.254  19.190  0.00  0.00    +0.000 HD
ATOM     29  H   UNL     1      -9.312 -15.795  16.667  0.00  0.00    +0.000 HD
ATOM     30  H   UNL     1      -8.279 -15.125  14.232  0.00  0.00    +0.000 HD
ATOM     31  H   UNL     1      -8.215 -12.603  14.164  0.00  0.00    +0.000 HD
ATOM     32  H   UNL     1      -8.182  -9.673  20.603  0.00  0.00    +0.000 HD
ATOM     33  H   UNL     1      -7.799  -7.135  21.668  0.00  0.00    +0.000 HD
ATOM     34  H   UNL     1      -8.733  -4.024  18.831  0.00  0.00    +0.000 HD
ATOM     35  H   UNL     1      -9.304  -5.684  17.131  0.00  0.00    +0.000 HD
ENDROOT
BRANCH  21  36
ATOM     36  O   UNL     1      -7.908  -4.492  21.220  0.00  0.00    +0.000 OA
ATOM     37  H   UNL     1      -7.072  -4.733  21.648  0.00  0.00    +0.000 HD
ENDBRANCH  21  36
TORSDOF 1
ENDMDL
MODEL 5
REMARK VINA RESULT:   -11.344      2.185      3.940
REMARK INTER + INTRA:         -11.675
REMARK INTER:                 -11.675
REMARK INTRA:                   0.000
REMARK UNBOUND:                 0.000
REMARK  Name = 
REMARK  1 active torsions:
REMARK  status: ('A' for Active; 'I' for Inactive)
REMARK    1  A    between atoms: C_21  and  O_22
REMARK                            x       y       z     vdW  Elec       q    Type
REMARK                         _______ _______ _______ _____ _____    ______ ____
ROOT
ATOM      1  O   UNL     1     -10.352  -9.186  15.300  0.00  0.00    +0.000 OA
ATOM      2  C   UNL     1     -10.409  -8.205  16.042  0.00  0.00    +0.000 C 
ATOM      3  N   UNL     1     -11.112  -7.070  15.721  0.00  0.00    +0.000 N 
ATOM      4  C   UNL     1     -11.115  -6.079  16.661  0.00  0.00    +0.000 C 
ATOM      5  O   UNL     1     -11.839  -5.095  16.580  0.00  0.00    +0.000 OA
ATOM      6  C   UNL     1     -10.199  -6.575  17.638  0.00  0.00    +0.000 A 
ATOM      7  C   UNL     1      -9.835  -7.909  17.322  0.00  0.00    +0.000 A 
ATOM      8  C   UNL     1      -9.101  -8.753  18.169  0.00  0.00    +0.000 A 
ATOM      9  C   UNL     1      -8.589  -8.190  19.369  0.00  0.00    +0.000 A 
ATOM     10  C   UNL     1      -7.930  -8.958  20.337  0.00  0.00    +0.000 A 
ATOM     11  C   UNL     1      -7.906 -10.346  20.207  0.00  0.00    +0.000 A 
ATOM     12  C   UNL     1      -8.371 -10.937  19.020  0.00  0.00    +0.000 A 
ATOM     13  C   UNL     1      -8.500 -12.282  18.591  0.00  0.00    +0.000 A 
ATOM     14  C   UNL     1      -8.628 -12.240  17.225  0.00  0.00    +0.000 A 
ATOM     15  N   UNL     1      -8.957 -10.955  16.883  0.00  0.00    +0.000 N 
ATOM     16  C   UNL     1      -8.848 -10.124  17.983  0.00  0.00    +0.000 A 
ATOM     17  C   UNL     1      -8.760  -6.803  19.543  0.00  0.00    +0.000 A 
ATOM     18  N   UNL     1      -8.221  -5.891  20.435  0.00  0.00    +0.000 N 
ATOM     19  C   UNL     1      -8.627  -4.601  20.130  0.00  0.00    +0.000 A 
ATOM     20  C   UNL     1      -8.214  -3.384  20.691  0.00  0.00    +0.000 A 
ATOM     21  C   UNL     1      -8.791  -2.222  20.180  0.00  0.00    +0.000 A 
ATOM     22  C   UNL     1      -9.745  -2.256  19.178  0.00  0.00    +0.000 A 
ATOM     23  C   UNL     1     -10.142  -3.475  18.621  0.00  0.00    +0.000 A 
ATOM     24  C   UNL     1      -9.559  -4.670  19.082  0.00  0.00    +0.000 A 
ATOM     25  C   UNL     1      -9.562  -6.022  18.763  0.00  0.00    +0.000 A 
ATOM     26  H   UNL     1     -11.660  -6.989  14.883  0.00  0.00    +0.000 HD
ATOM     27  H   UNL     1      -7.495  -8.511  21.224  0.00  0.00    +0.000 HD
ATOM     28  H   UNL     1      -7.478 -10.963  20.991  0.00  0.00    +0.000 HD
ATOM     29  H   UNL     1      -8.369 -13.172  19.195  0.00  0.00    +0.000 HD
ATOM     30  H   UNL     1      -8.544 -13.018  16.477  0.00  0.00    +0.000 HD
ATOM     31  H   UNL     1      -9.183 -10.635  15.946  0.00  0.00    +0.000 HD
ATOM     32  H   UNL     1      -7.521  -6.116  21.130  0.00  0.00    +0.000 HD
ATOM     33  H   UNL     1      -7.458  -3.359  21.465  0.00  0.00    +0.000 HD
ATOM     34  H   UNL     1     -10.179  -1.334  18.802  0.00  0.00    +0.000 HD
ATOM     35  H   UNL     1     -10.882  -3.463  17.829  0.00  0.00    +0.000 HD
ENDROOT
BRANCH  21  36
ATOM     36  O   UNL     1      -8.426  -0.993  20.650  0.00  0.00    +0.000 OA
ATOM     37  H   UNL     1      -8.887  -0.836  21.489  0.00  0.00    +0.000 HD
ENDBRANCH  21  36
TORSDOF 1
ENDMDL
MODEL 6
REMARK VINA RESULT:   -10.454      2.229      7.189
REMARK INTER + INTRA:         -10.760
REMARK INTER:                 -10.760
REMARK INTRA:                   0.000
REMARK UNBOUND:                 0.000
REMARK  Name = 
REMARK  1 active torsions:
REMARK  status: ('A' for Active; 'I' for Inactive)
REMARK    1  A    between atoms: C_21  and  O_22
REMARK                            x       y       z     vdW  Elec       q    Type
REMARK                         _______ _______ _______ _____ _____    ______ ____
ROOT
ATOM      1  O   UNL     1     -11.833  -5.199  16.751  0.00  0.00    +0.000 OA
ATOM      2  C   UNL     1     -11.220  -6.267  16.757  0.00  0.00    +0.000 C 
ATOM      3  N   UNL     1     -11.462  -7.267  15.847  0.00  0.00    +0.000 N 
ATOM      4  C   UNL     1     -10.677  -8.379  15.955  0.00  0.00    +0.000 C 
ATOM      5  O   UNL     1     -10.666  -9.264  15.107  0.00  0.00    +0.000 OA
ATOM      6  C   UNL     1      -9.940  -8.126  17.152  0.00  0.00    +0.000 A 
ATOM      7  C   UNL     1     -10.191  -6.803  17.598  0.00  0.00    +0.000 A 
ATOM      8  C   UNL     1      -9.489  -6.169  18.636  0.00  0.00    +0.000 A 
ATOM      9  C   UNL     1      -8.549  -6.950  19.361  0.00  0.00    +0.000 A 
ATOM     10  C   UNL     1      -7.720  -6.401  20.347  0.00  0.00    +0.000 A 
ATOM     11  C   UNL     1      -7.693  -5.019  20.524  0.00  0.00    +0.000 A 
ATOM     12  C   UNL     1      -8.630  -4.218  19.851  0.00  0.00    +0.000 A 
ATOM     13  C   UNL     1      -8.851  -2.818  19.799  0.00  0.00    +0.000 A 
ATOM     14  C   UNL     1     -10.125  -2.647  19.315  0.00  0.00    +0.000 A 
ATOM     15  N   UNL     1     -10.506  -3.829  18.737  0.00  0.00    +0.000 N 
ATOM     16  C   UNL     1      -9.581  -4.818  19.015  0.00  0.00    +0.000 A 
ATOM     17  C   UNL     1      -8.493  -8.324  19.054  0.00  0.00    +0.000 A 
ATOM     18  N   UNL     1      -7.895  -9.405  19.678  0.00  0.00    +0.000 N 
ATOM     19  C   UNL     1      -8.220 -10.589  19.036  0.00  0.00    +0.000 A 
ATOM     20  C   UNL     1      -7.937 -11.911  19.412  0.00  0.00    +0.000 A 
ATOM     21  C   UNL     1      -8.398 -12.922  18.569  0.00  0.00    +0.000 A 
ATOM     22  C   UNL     1      -9.087 -12.647  17.401  0.00  0.00    +0.000 A 
ATOM     23  C   UNL     1      -9.370 -11.326  17.042  0.00  0.00    +0.000 A 
ATOM     24  C   UNL     1      -8.955 -10.276  17.881  0.00  0.00    +0.000 A 
ATOM     25  C   UNL     1      -9.105  -8.898  17.979  0.00  0.00    +0.000 A 
ATOM     26  H   UNL     1     -12.119  -7.170  15.094  0.00  0.00    +0.000 HD
ATOM     27  H   UNL     1      -7.045  -7.014  20.933  0.00  0.00    +0.000 HD
ATOM     28  H   UNL     1      -6.992  -4.569  21.222  0.00  0.00    +0.000 HD
ATOM     29  H   UNL     1      -8.210  -2.043  20.201  0.00  0.00    +0.000 HD
ATOM     30  H   UNL     1     -10.774  -1.781  19.306  0.00  0.00    +0.000 HD
ATOM     31  H   UNL     1     -11.374  -3.985  18.233  0.00  0.00    +0.000 HD
ATOM     32  H   UNL     1      -7.399  -9.355  20.558  0.00  0.00    +0.000 HD
ATOM     33  H   UNL     1      -7.410 -12.124  20.332  0.00  0.00    +0.000 HD
ATOM     34  H   UNL     1      -9.431 -13.456  16.763  0.00  0.00    +0.000 HD
ATOM     35  H   UNL     1      -9.924 -11.148  16.127  0.00  0.00    +0.000 HD
ENDROOT
BRANCH  21  36
ATOM     36  O   UNL     1      -8.189 -14.237  18.873  0.00  0.00    +0.000 OA
ATOM     37  H   UNL     1      -7.252 -14.357  19.090  0.00  0.00    +0.000 HD
ENDBRANCH  21  36
TORSDOF 1
ENDMDL
