REMARK  Name = 
REMARK  7 active torsions:
REMARK  status: ('A' for Active; 'I' for Inactive)
REMARK    1  A    between atoms: N_1  and  C_2
REMARK    2  A    between atoms: C_2  and  C_3
REMARK    3  A    between atoms: C_2  and  C_20
REMARK    4  A    between atoms: C_3  and  O_4
REMARK    5  A    between atoms: O_4  and  C_5
REMARK    6  A    between atoms: C_9  and  C_10
REMARK    7  A    between atoms: C_20  and  C_21
REMARK                            x       y       z     vdW  Elec       q    Type
REMARK                         _______ _______ _______ _____ _____    ______ ____
ROOT
ATOM      1  C   UNL     1       0.482   0.173   0.759  0.00  0.00    +0.000 C 
ATOM      2  H   UNL     1       0.084   0.001   1.767  0.00  0.00    +0.000 HD
ATOM      3  H   UNL     1       0.123   1.140   0.386  0.00  0.00    +0.000 HD
ENDROOT
BRANCH   1   4
ATOM      4  C   UNL     1       2.023   0.211   0.816  0.00  0.00    +0.000 C 
ATOM      5  H   UNL     1       2.314   1.043   1.469  0.00  0.00    +0.000 HD
BRANCH   4   6
ATOM      6  N   UNL     1       2.521  -1.028   1.448  0.00  0.00    +0.000 NA
ATOM      7  H   UNL     1       3.541  -0.979   1.498  0.00  0.00    +0.000 HD
ATOM      8  H   UNL     1       2.321  -1.807   0.818  0.00  0.00    +0.000 HD
ENDBRANCH   4   6
BRANCH   4   9
ATOM      9  C   UNL     1       2.606   0.453  -0.597  0.00  0.00    +0.000 C 
ATOM     10  H   UNL     1       2.209   1.400  -0.986  0.00  0.00    +0.000 HD
ATOM     11  H   UNL     1       2.269  -0.324  -1.295  0.00  0.00    +0.000 HD
BRANCH   9  12
ATOM     12  C   UNL     1       4.104   0.516  -0.625  0.00  0.00    +0.000 A 
ATOM     13  C   UNL     1       4.883   1.642  -0.444  0.00  0.00    +0.000 A 
ATOM     14  N   UNL     1       6.198   1.274  -0.539  0.00  0.00    +0.000 N 
ATOM     15  C   UNL     1       6.298  -0.078  -0.774  0.00  0.00    +0.000 A 
ATOM     16  C   UNL     1       7.432  -0.886  -0.930  0.00  0.00    +0.000 A 
ATOM     17  C   UNL     1       7.230  -2.251  -1.152  0.00  0.00    +0.000 A 
ATOM     18  C   UNL     1       5.946  -2.786  -1.217  0.00  0.00    +0.000 A 
ATOM     19  C   UNL     1       4.825  -1.963  -1.066  0.00  0.00    +0.000 A 
ATOM     20  C   UNL     1       5.000  -0.582  -0.837  0.00  0.00    +0.000 A 
ATOM     21  H   UNL     1       4.613   2.672  -0.259  0.00  0.00    +0.000 HD
ATOM     22  H   UNL     1       6.987   1.899  -0.445  0.00  0.00    +0.000 HD
ATOM     23  H   UNL     1       8.433  -0.474  -0.879  0.00  0.00    +0.000 HD
ATOM     24  H   UNL     1       8.090  -2.905  -1.275  0.00  0.00    +0.000 HD
ATOM     25  H   UNL     1       5.811  -3.851  -1.386  0.00  0.00    +0.000 HD
ATOM     26  H   UNL     1       3.829  -2.393  -1.120  0.00  0.00    +0.000 HD
ENDBRANCH   9  12
ENDBRANCH   4   9
ENDBRANCH   1   4
BRANCH   1  27
ATOM     27  O   UNL     1       0.055  -0.879  -0.117  0.00  0.00    +0.000 OA
BRANCH  27  28
ATOM     28  C   UNL     1      -1.291  -1.014  -0.291  0.00  0.00    +0.000 A 
ATOM     29  C   UNL     1      -1.707  -2.052  -1.115  0.00  0.00    +0.000 A 
ATOM     30  N   UNL     1      -2.998  -2.319  -1.416  0.00  0.00    +0.000 NA
ATOM     31  C   UNL     1      -3.919  -1.490  -0.874  0.00  0.00    +0.000 A 
ATOM     32  C   UNL     1      -3.633  -0.413  -0.028  0.00  0.00    +0.000 A 
ATOM     33  C   UNL     1      -2.276  -0.199   0.263  0.00  0.00    +0.000 A 
ATOM     34  H   UNL     1      -0.984  -2.715  -1.580  0.00  0.00    +0.000 HD
ATOM     35  H   UNL     1      -4.938  -1.711  -1.182  0.00  0.00    +0.000 HD
ATOM     36  H   UNL     1      -2.021   0.633   0.913  0.00  0.00    +0.000 HD
BRANCH  32  37
ATOM     37  C   UNL     1      -4.677   0.491   0.462  0.00  0.00    +0.000 A 
ATOM     38  C   UNL     1      -5.977   0.051   0.717  0.00  0.00    +0.000 A 
ATOM     39  C   UNL     1      -6.936   1.035   0.967  0.00  0.00    +0.000 A 
ATOM     40  C   UNL     1      -8.326   1.067   1.203  0.00  0.00    +0.000 A 
ATOM     41  N   UNL     1      -8.797   2.311   1.329  0.00  0.00    +0.000 NA
ATOM     42  N   UNL     1      -7.699   3.077   1.184  0.00  0.00    +0.000 N 
ATOM     43  C   UNL     1      -6.545   2.364   0.995  0.00  0.00    +0.000 A 
ATOM     44  C   UNL     1      -5.230   2.752   0.837  0.00  0.00    +0.000 A 
ATOM     45  N   UNL     1      -4.308   1.799   0.565  0.00  0.00    +0.000 NA
ATOM     46  H   UNL     1      -6.252  -0.997   0.675  0.00  0.00    +0.000 HD
ATOM     47  H   UNL     1      -9.014   0.233   1.272  0.00  0.00    +0.000 HD
ATOM     48  H   UNL     1      -7.813   4.084   1.201  0.00  0.00    +0.000 HD
ATOM     49  H   UNL     1      -4.885   3.777   0.887  0.00  0.00    +0.000 HD
ENDBRANCH  32  37
ENDBRANCH  27  28
ENDBRANCH   1  27
TORSDOF 7
