REMARK  Name = 
REMARK  6 active torsions:
REMARK  status: ('A' for Active; 'I' for Inactive)
REMARK    1  A    between atoms: C_5  and  O_6
REMARK    2  A    between atoms: C_7  and  O_8
REMARK    3  A    between atoms: C_13  and  O_14
REMARK    4  A    between atoms: C_15  and  O_16
REMARK    5  A    between atoms: N_19  and  C_20
REMARK    6  A    between atoms: C_20  and  C_21
REMARK                            x       y       z     vdW  Elec       q    Type
REMARK                         _______ _______ _______ _____ _____    ______ ____
ROOT
ATOM      1  O   UNL     1      -2.725   0.843  -0.602  0.00  0.00    +0.000 OA
ATOM      2  C   UNL     1      -1.501   0.750  -0.677  0.00  0.00    +0.000 A 
ATOM      3  C   UNL     1      -0.710   2.004  -0.696  0.00  0.00    +0.000 A 
ATOM      4  C   UNL     1      -1.414   3.226  -0.688  0.00  0.00    +0.000 A 
ATOM      5  C   UNL     1      -0.715   4.417  -0.743  0.00  0.00    +0.000 A 
ATOM      6  C   UNL     1       0.670   4.397  -0.797  0.00  0.00    +0.000 A 
ATOM      7  C   UNL     1       1.370   3.194  -0.798  0.00  0.00    +0.000 A 
ATOM      8  C   UNL     1       0.694   1.958  -0.744  0.00  0.00    +0.000 A 
ATOM      9  C   UNL     1       1.378   0.648  -0.759  0.00  0.00    +0.000 A 
ATOM     10  C   UNL     1       2.791   0.543  -0.755  0.00  0.00    +0.000 A 
ATOM     11  C   UNL     1       3.417  -0.696  -0.789  0.00  0.00    +0.000 A 
ATOM     12  C   UNL     1       2.658  -1.849  -0.830  0.00  0.00    +0.000 A 
ATOM     13  C   UNL     1       1.273  -1.784  -0.836  0.00  0.00    +0.000 A 
ATOM     14  C   UNL     1       0.609  -0.546  -0.785  0.00  0.00    +0.000 A 
ATOM     15  N   UNL     1      -0.825  -0.471  -0.757  0.00  0.00    +0.000 N 
ATOM     16  H   UNL     1      -2.501   3.223  -0.649  0.00  0.00    +0.000 HD
ATOM     17  H   UNL     1       2.452   3.262  -0.852  0.00  0.00    +0.000 HD
ATOM     18  H   UNL     1       3.415   1.430  -0.726  0.00  0.00    +0.000 HD
ATOM     19  H   UNL     1       0.751  -2.729  -0.881  0.00  0.00    +0.000 HD
ENDROOT
BRANCH  15  20
ATOM     20  C   UNL     1      -1.657  -1.683  -0.765  0.00  0.00    +0.000 C 
ATOM     21  H   UNL     1      -1.252  -2.409  -1.479  0.00  0.00    +0.000 HD
ATOM     22  H   UNL     1      -2.653  -1.446  -1.163  0.00  0.00    +0.000 HD
BRANCH  20  23
ATOM     23  C   UNL     1      -1.840  -2.288   0.614  0.00  0.00    +0.000 A 
ATOM     24  C   UNL     1      -2.585  -1.616   1.593  0.00  0.00    +0.000 A 
ATOM     25  C   UNL     1      -2.673  -2.115   2.894  0.00  0.00    +0.000 A 
ATOM     26  C   UNL     1      -2.026  -3.304   3.235  0.00  0.00    +0.000 A 
ATOM     27 CL   UNL     1      -2.117  -3.827   4.879  0.00  0.00    +0.000 Cl
ATOM     28  C   UNL     1      -1.328  -4.016   2.257  0.00  0.00    +0.000 A 
ATOM     29 CL   UNL     1      -0.524  -5.509   2.593  0.00  0.00    +0.000 Cl
ATOM     30  C   UNL     1      -1.248  -3.516   0.951  0.00  0.00    +0.000 A 
ATOM     31  H   UNL     1      -3.095  -0.684   1.353  0.00  0.00    +0.000 HD
ATOM     32  H   UNL     1      -3.237  -1.560   3.640  0.00  0.00    +0.000 HD
ATOM     33  H   UNL     1      -0.703  -4.085   0.202  0.00  0.00    +0.000 HD
ENDBRANCH  20  23
ENDBRANCH  15  20
BRANCH   5  34
ATOM     34  O   UNL     1      -1.340   5.631  -0.754  0.00  0.00    +0.000 OA
ATOM     35  H   UNL     1      -2.302   5.480  -0.733  0.00  0.00    +0.000 HD
ENDBRANCH   5  34
BRANCH   6  36
ATOM     36  O   UNL     1       1.368   5.570  -0.858  0.00  0.00    +0.000 OA
ATOM     37  H   UNL     1       0.682   6.268  -0.850  0.00  0.00    +0.000 HD
ENDBRANCH   6  36
BRANCH  11  38
ATOM     38  O   UNL     1       4.777  -0.827  -0.789  0.00  0.00    +0.000 OA
ATOM     39  H   UNL     1       5.177   0.059  -0.755  0.00  0.00    +0.000 HD
ENDBRANCH  11  38
BRANCH  12  40
ATOM     40  O   UNL     1       3.266  -3.071  -0.865  0.00  0.00    +0.000 OA
ATOM     41  H   UNL     1       4.224  -2.875  -0.834  0.00  0.00    +0.000 HD
ENDBRANCH  12  40
TORSDOF 6
