MODEL 1
REMARK VINA RESULT:    -9.565      0.000      0.000
REMARK INTER + INTRA:         -12.549
REMARK INTER:                 -11.802
REMARK INTRA:                  -0.747
REMARK UNBOUND:                -0.747
REMARK  Name = 
REMARK  5 active torsions:
REMARK  status: ('A' for Active; 'I' for Inactive)
REMARK    1  A    between atoms: C_1  and  C_2
REMARK    2  A    between atoms: C_2  and  N_3
REMARK    3  A    between atoms: N_8  and  C_9
REMARK    4  A    between atoms: N_18  and  C_19
REMARK    5  A    between atoms: C_24  and  N_25
REMARK                            x       y       z     vdW  Elec       q    Type
REMARK                         _______ _______ _______ _____ _____    ______ ____
ROOT
ATOM      1  N   UNL     1      -9.347 -10.037  16.669  0.00  0.00    +0.000 N 
ATOM      2  C   UNL     1      -9.020 -10.566  17.885  0.00  0.00    +0.000 A 
ATOM      3  N   UNL     1      -8.629  -9.638  18.733  0.00  0.00    +0.000 NA
ATOM      4  C   UNL     1      -8.708  -8.456  18.016  0.00  0.00    +0.000 A 
ATOM      5  C   UNL     1      -8.388  -7.127  18.346  0.00  0.00    +0.000 A 
ATOM      6  N   UNL     1      -7.872  -6.845  19.623  0.00  0.00    +0.000 N 
ATOM      7  N   UNL     1      -8.597  -6.177  17.383  0.00  0.00    +0.000 NA
ATOM      8  C   UNL     1      -9.047  -6.530  16.162  0.00  0.00    +0.000 A 
ATOM      9  N   UNL     1      -9.123  -5.603  15.142  0.00  0.00    +0.000 N 
ATOM     10  N   UNL     1      -9.353  -7.778  15.770  0.00  0.00    +0.000 NA
ATOM     11  C   UNL     1      -9.164  -8.685  16.733  0.00  0.00    +0.000 A 
ATOM     12  H   UNL     1      -9.082 -11.625  18.097  0.00  0.00    +0.000 HD
ATOM     13  H   UNL     1      -7.816  -7.686  20.192  0.00  0.00    +0.000 HD
ATOM     14  H   UNL     1      -9.552  -6.063  14.349  0.00  0.00    +0.000 HD
ENDROOT
BRANCH   9  15
ATOM     15  C   UNL     1      -9.545  -4.222  15.385  0.00  0.00    +0.000 C 
ATOM     16  C   UNL     1     -10.977  -4.145  15.934  0.00  0.00    +0.000 C 
ATOM     17  C   UNL     1     -12.033  -4.654  14.952  0.00  0.00    +0.000 C 
ATOM     18  C   UNL     1     -11.929  -4.020  13.568  0.00  0.00    +0.000 C 
ATOM     19  C   UNL     1     -10.506  -3.954  13.017  0.00  0.00    +0.000 C 
ATOM     20  C   UNL     1      -9.482  -3.433  14.040  0.00  0.00    +0.000 C 
ATOM     21  H   UNL     1      -8.866  -3.733  16.095  0.00  0.00    +0.000 HD
ATOM     22  H   UNL     1     -11.204  -3.097  16.169  0.00  0.00    +0.000 HD
ATOM     23  H   UNL     1     -11.060  -4.701  16.875  0.00  0.00    +0.000 HD
ATOM     24  H   UNL     1     -13.032  -4.448  15.359  0.00  0.00    +0.000 HD
ATOM     25  H   UNL     1     -11.960  -5.743  14.863  0.00  0.00    +0.000 HD
ATOM     26  H   UNL     1     -12.346  -3.007  13.603  0.00  0.00    +0.000 HD
ATOM     27  H   UNL     1     -12.557  -4.586  12.868  0.00  0.00    +0.000 HD
ATOM     28  H   UNL     1     -10.504  -3.304  12.131  0.00  0.00    +0.000 HD
ATOM     29  H   UNL     1     -10.217  -4.951  12.660  0.00  0.00    +0.000 HD
ATOM     30  H   UNL     1      -9.703  -2.377  14.241  0.00  0.00    +0.000 HD
BRANCH  20  31
ATOM     31  N   UNL     1      -8.140  -3.510  13.436  0.00  0.00    +0.000 NA
ATOM     32  H   UNL     1      -7.895  -4.505  13.400  0.00  0.00    +0.000 HD
ATOM     33  H   UNL     1      -7.465  -3.126  14.099  0.00  0.00    +0.000 HD
ENDBRANCH  20  31
ENDBRANCH   9  15
BRANCH   6  34
ATOM     34  C   UNL     1      -7.168  -5.740  20.122  0.00  0.00    +0.000 A 
ATOM     35  C   UNL     1      -5.777  -5.678  19.930  0.00  0.00    +0.000 A 
ATOM     36  C   UNL     1      -5.012  -4.641  20.475  0.00  0.00    +0.000 A 
ATOM     37  C   UNL     1      -5.631  -3.649  21.230  0.00  0.00    +0.000 A 
ATOM     38  C   UNL     1      -7.008  -3.695  21.424  0.00  0.00    +0.000 A 
ATOM     39 CL   UNL     1      -7.783  -2.469  22.351  0.00  0.00    +0.000 Cl
ATOM     40  C   UNL     1      -7.769  -4.730  20.880  0.00  0.00    +0.000 A 
ATOM     41  H   UNL     1      -5.269  -6.450  19.355  0.00  0.00    +0.000 HD
ATOM     42  H   UNL     1      -3.937  -4.615  20.318  0.00  0.00    +0.000 HD
ATOM     43  H   UNL     1      -5.039  -2.849  21.665  0.00  0.00    +0.000 HD
ATOM     44  H   UNL     1      -8.841  -4.729  21.041  0.00  0.00    +0.000 HD
ENDBRANCH   6  34
BRANCH   1  45
ATOM     45  C   UNL     1      -9.772 -10.780  15.501  0.00  0.00    +0.000 C 
ATOM     46  H   UNL     1     -10.719 -11.276  15.737  0.00  0.00    +0.000 HD
ATOM     47  H   UNL     1      -9.970 -10.059  14.699  0.00  0.00    +0.000 HD
BRANCH  45  48
ATOM     48  C   UNL     1      -8.734 -11.794  15.056  0.00  0.00    +0.000 C 
ATOM     49  H   UNL     1      -9.221 -12.714  14.715  0.00  0.00    +0.000 HD
ATOM     50  H   UNL     1      -8.055 -12.053  15.876  0.00  0.00    +0.000 HD
ATOM     51  H   UNL     1      -8.128 -11.405  14.233  0.00  0.00    +0.000 HD
ENDBRANCH  45  48
ENDBRANCH   1  45
TORSDOF 5
ENDMDL
MODEL 2
REMARK VINA RESULT:    -8.886      2.732      7.211
REMARK INTER + INTRA:         -11.710
REMARK INTER:                 -10.997
REMARK INTRA:                  -0.713
REMARK UNBOUND:                -0.747
REMARK  Name = 
REMARK  5 active torsions:
REMARK  status: ('A' for Active; 'I' for Inactive)
REMARK    1  A    between atoms: C_1  and  C_2
REMARK    2  A    between atoms: C_2  and  N_3
REMARK    3  A    between atoms: N_8  and  C_9
REMARK    4  A    between atoms: N_18  and  C_19
REMARK    5  A    between atoms: C_24  and  N_25
REMARK                            x       y       z     vdW  Elec       q    Type
REMARK                         _______ _______ _______ _____ _____    ______ ____
ROOT
ATOM      1  N   UNL     1     -11.352  -2.244  16.792  0.00  0.00    +0.000 N 
ATOM      2  C   UNL     1     -12.240  -2.917  16.002  0.00  0.00    +0.000 A 
ATOM      3  N   UNL     1     -12.117  -4.222  16.128  0.00  0.00    +0.000 NA
ATOM      4  C   UNL     1     -11.093  -4.386  17.046  0.00  0.00    +0.000 A 
ATOM      5  C   UNL     1     -10.466  -5.532  17.567  0.00  0.00    +0.000 A 
ATOM      6  N   UNL     1     -10.881  -6.800  17.123  0.00  0.00    +0.000 N 
ATOM      7  N   UNL     1      -9.468  -5.336  18.483  0.00  0.00    +0.000 NA
ATOM      8  C   UNL     1      -9.088  -4.087  18.822  0.00  0.00    +0.000 A 
ATOM      9  N   UNL     1      -7.991  -3.878  19.633  0.00  0.00    +0.000 N 
ATOM     10  N   UNL     1      -9.626  -2.949  18.352  0.00  0.00    +0.000 NA
ATOM     11  C   UNL     1     -10.614  -3.165  17.477  0.00  0.00    +0.000 A 
ATOM     12  H   UNL     1     -12.946  -2.412  15.356  0.00  0.00    +0.000 HD
ATOM     13  H   UNL     1     -11.648  -6.725  16.460  0.00  0.00    +0.000 HD
ATOM     14  H   UNL     1      -7.936  -2.884  19.815  0.00  0.00    +0.000 HD
ENDROOT
BRANCH   9  15
ATOM     15  C   UNL     1      -7.693  -4.754  20.768  0.00  0.00    +0.000 C 
ATOM     16  C   UNL     1      -7.578  -3.971  22.084  0.00  0.00    +0.000 C 
ATOM     17  C   UNL     1      -6.413  -2.981  22.105  0.00  0.00    +0.000 C 
ATOM     18  C   UNL     1      -5.079  -3.607  21.707  0.00  0.00    +0.000 C 
ATOM     19  C   UNL     1      -5.152  -4.501  20.471  0.00  0.00    +0.000 C 
ATOM     20  C   UNL     1      -6.338  -5.481  20.499  0.00  0.00    +0.000 C 
ATOM     21  H   UNL     1      -8.471  -5.519  20.877  0.00  0.00    +0.000 HD
ATOM     22  H   UNL     1      -7.434  -4.687  22.904  0.00  0.00    +0.000 HD
ATOM     23  H   UNL     1      -8.512  -3.437  22.298  0.00  0.00    +0.000 HD
ATOM     24  H   UNL     1      -6.317  -2.558  23.114  0.00  0.00    +0.000 HD
ATOM     25  H   UNL     1      -6.634  -2.137  21.442  0.00  0.00    +0.000 HD
ATOM     26  H   UNL     1      -4.690  -4.192  22.549  0.00  0.00    +0.000 HD
ATOM     27  H   UNL     1      -4.349  -2.807  21.527  0.00  0.00    +0.000 HD
ATOM     28  H   UNL     1      -4.212  -5.063  20.391  0.00  0.00    +0.000 HD
ATOM     29  H   UNL     1      -5.202  -3.866  19.577  0.00  0.00    +0.000 HD
ATOM     30  H   UNL     1      -6.164  -6.208  21.302  0.00  0.00    +0.000 HD
BRANCH  20  31
ATOM     31  N   UNL     1      -6.367  -6.213  19.221  0.00  0.00    +0.000 NA
ATOM     32  H   UNL     1      -6.017  -5.564  18.508  0.00  0.00    +0.000 HD
ATOM     33  H   UNL     1      -7.342  -6.354  18.951  0.00  0.00    +0.000 HD
ENDBRANCH  20  31
ENDBRANCH   9  15
BRANCH   6  34
ATOM     34  C   UNL     1     -10.264  -8.057  17.181  0.00  0.00    +0.000 A 
ATOM     35  C   UNL     1     -10.472  -8.965  16.129  0.00  0.00    +0.000 A 
ATOM     36  C   UNL     1      -9.948 -10.262  16.171  0.00  0.00    +0.000 A 
ATOM     37  C   UNL     1      -9.209 -10.673  17.277  0.00  0.00    +0.000 A 
ATOM     38  C   UNL     1      -8.991  -9.783  18.324  0.00  0.00    +0.000 A 
ATOM     39 CL   UNL     1      -8.073 -10.280  19.693  0.00  0.00    +0.000 Cl
ATOM     40  C   UNL     1      -9.515  -8.491  18.280  0.00  0.00    +0.000 A 
ATOM     41  H   UNL     1     -11.058  -8.671  15.260  0.00  0.00    +0.000 HD
ATOM     42  H   UNL     1     -10.124 -10.950  15.348  0.00  0.00    +0.000 HD
ATOM     43  H   UNL     1      -8.811 -11.683  17.319  0.00  0.00    +0.000 HD
ATOM     44  H   UNL     1      -9.316  -7.819  19.107  0.00  0.00    +0.000 HD
ENDBRANCH   6  34
BRANCH   1  45
ATOM     45  C   UNL     1     -11.190  -0.806  16.860  0.00  0.00    +0.000 C 
ATOM     46  H   UNL     1     -12.162  -0.343  16.666  0.00  0.00    +0.000 HD
ATOM     47  H   UNL     1     -10.905  -0.550  17.888  0.00  0.00    +0.000 HD
BRANCH  45  48
ATOM     48  C   UNL     1     -10.149  -0.299  15.880  0.00  0.00    +0.000 C 
ATOM     49  H   UNL     1      -9.198  -0.119  16.394  0.00  0.00    +0.000 HD
ATOM     50  H   UNL     1     -10.467   0.640  15.414  0.00  0.00    +0.000 HD
ATOM     51  H   UNL     1      -9.971  -1.024  15.081  0.00  0.00    +0.000 HD
ENDBRANCH  45  48
ENDBRANCH   1  45
TORSDOF 5
ENDMDL
MODEL 3
REMARK VINA RESULT:    -8.789      2.910      7.139
REMARK INTER + INTRA:         -11.591
REMARK INTER:                 -11.008
REMARK INTRA:                  -0.583
REMARK UNBOUND:                -0.747
REMARK  Name = 
REMARK  5 active torsions:
REMARK  status: ('A' for Active; 'I' for Inactive)
REMARK    1  A    between atoms: C_1  and  C_2
REMARK    2  A    between atoms: C_2  and  N_3
REMARK    3  A    between atoms: N_8  and  C_9
REMARK    4  A    between atoms: N_18  and  C_19
REMARK    5  A    between atoms: C_24  and  N_25
REMARK                            x       y       z     vdW  Elec       q    Type
REMARK                         _______ _______ _______ _____ _____    ______ ____
ROOT
ATOM      1  N   UNL     1     -11.127  -3.036  15.905  0.00  0.00    +0.000 N 
ATOM      2  C   UNL     1     -11.884  -3.842  15.102  0.00  0.00    +0.000 A 
ATOM      3  N   UNL     1     -11.747  -5.113  15.415  0.00  0.00    +0.000 NA
ATOM      4  C   UNL     1     -10.851  -5.116  16.471  0.00  0.00    +0.000 A 
ATOM      5  C   UNL     1     -10.271  -6.159  17.215  0.00  0.00    +0.000 A 
ATOM      6  N   UNL     1     -10.592  -7.489  16.892  0.00  0.00    +0.000 N 
ATOM      7  N   UNL     1      -9.410  -5.806  18.219  0.00  0.00    +0.000 NA
ATOM      8  C   UNL     1      -9.110  -4.509  18.436  0.00  0.00    +0.000 A 
ATOM      9  N   UNL     1      -8.136  -4.152  19.347  0.00  0.00    +0.000 N 
ATOM     10  N   UNL     1      -9.608  -3.464  17.754  0.00  0.00    +0.000 NA
ATOM     11  C   UNL     1     -10.464  -3.831  16.796  0.00  0.00    +0.000 A 
ATOM     12  H   UNL     1     -12.510  -3.453  14.309  0.00  0.00    +0.000 HD
ATOM     13  H   UNL     1     -11.265  -7.532  16.132  0.00  0.00    +0.000 HD
ATOM     14  H   UNL     1      -8.131  -3.142  19.402  0.00  0.00    +0.000 HD
ENDROOT
BRANCH   9  15
ATOM     15  C   UNL     1      -7.971  -4.862  20.617  0.00  0.00    +0.000 C 
ATOM     16  C   UNL     1      -7.946  -3.902  21.815  0.00  0.00    +0.000 C 
ATOM     17  C   UNL     1      -6.752  -2.946  21.804  0.00  0.00    +0.000 C 
ATOM     18  C   UNL     1      -5.411  -3.653  21.624  0.00  0.00    +0.000 C 
ATOM     19  C   UNL     1      -5.407  -4.713  20.524  0.00  0.00    +0.000 C 
ATOM     20  C   UNL     1      -6.625  -5.651  20.580  0.00  0.00    +0.000 C 
ATOM     21  H   UNL     1      -8.783  -5.587  20.760  0.00  0.00    +0.000 HD
ATOM     22  H   UNL     1      -7.900  -4.496  22.737  0.00  0.00    +0.000 HD
ATOM     23  H   UNL     1      -8.874  -3.322  21.864  0.00  0.00    +0.000 HD
ATOM     24  H   UNL     1      -6.731  -2.385  22.748  0.00  0.00    +0.000 HD
ATOM     25  H   UNL     1      -6.884  -2.201  21.011  0.00  0.00    +0.000 HD
ATOM     26  H   UNL     1      -5.120  -4.120  22.571  0.00  0.00    +0.000 HD
ATOM     27  H   UNL     1      -4.640  -2.904  21.401  0.00  0.00    +0.000 HD
ATOM     28  H   UNL     1      -4.484  -5.302  20.611  0.00  0.00    +0.000 HD
ATOM     29  H   UNL     1      -5.355  -4.211  19.549  0.00  0.00    +0.000 HD
ATOM     30  H   UNL     1      -6.548  -6.259  21.490  0.00  0.00    +0.000 HD
BRANCH  20  31
ATOM     31  N   UNL     1      -6.566  -6.559  19.420  0.00  0.00    +0.000 NA
ATOM     32  H   UNL     1      -5.831  -6.194  18.805  0.00  0.00    +0.000 HD
ATOM     33  H   UNL     1      -7.417  -6.433  18.869  0.00  0.00    +0.000 HD
ENDBRANCH  20  31
ENDBRANCH   9  15
BRANCH   6  34
ATOM     34  C   UNL     1      -9.957  -8.702  17.196  0.00  0.00    +0.000 A 
ATOM     35  C   UNL     1      -9.374  -8.865  18.464  0.00  0.00    +0.000 A 
ATOM     36  C   UNL     1      -8.658 -10.021  18.793  0.00  0.00    +0.000 A 
ATOM     37  C   UNL     1      -8.509 -11.033  17.851  0.00  0.00    +0.000 A 
ATOM     38  C   UNL     1      -9.085 -10.888  16.593  0.00  0.00    +0.000 A 
ATOM     39 CL   UNL     1      -8.911 -12.138  15.422  0.00  0.00    +0.000 Cl
ATOM     40  C   UNL     1      -9.798  -9.734  16.266  0.00  0.00    +0.000 A 
ATOM     41  H   UNL     1      -9.466  -8.080  19.213  0.00  0.00    +0.000 HD
ATOM     42  H   UNL     1      -8.211 -10.124  19.779  0.00  0.00    +0.000 HD
ATOM     43  H   UNL     1      -7.943 -11.927  18.098  0.00  0.00    +0.000 HD
ATOM     44  H   UNL     1     -10.245  -9.659  15.280  0.00  0.00    +0.000 HD
ENDBRANCH   6  34
BRANCH   1  45
ATOM     45  C   UNL     1     -11.010  -1.596  15.803  0.00  0.00    +0.000 C 
ATOM     46  H   UNL     1     -11.021  -1.180  16.816  0.00  0.00    +0.000 HD
ATOM     47  H   UNL     1     -10.030  -1.369  15.367  0.00  0.00    +0.000 HD
BRANCH  45  48
ATOM     48  C   UNL     1     -12.118  -0.988  14.963  0.00  0.00    +0.000 C 
ATOM     49  H   UNL     1     -12.474  -0.058  15.419  0.00  0.00    +0.000 HD
ATOM     50  H   UNL     1     -12.969  -1.671  14.873  0.00  0.00    +0.000 HD
ATOM     51  H   UNL     1     -11.767  -0.758  13.952  0.00  0.00    +0.000 HD
ENDBRANCH  45  48
ENDBRANCH   1  45
TORSDOF 5
ENDMDL
MODEL 4
REMARK VINA RESULT:    -8.786      2.511      6.215
REMARK INTER + INTRA:         -11.587
REMARK INTER:                 -10.733
REMARK INTRA:                  -0.854
REMARK UNBOUND:                -0.747
REMARK  Name = 
REMARK  5 active torsions:
REMARK  status: ('A' for Active; 'I' for Inactive)
REMARK    1  A    between atoms: C_1  and  C_2
REMARK    2  A    between atoms: C_2  and  N_3
REMARK    3  A    between atoms: N_8  and  C_9
REMARK    4  A    between atoms: N_18  and  C_19
REMARK    5  A    between atoms: C_24  and  N_25
REMARK                            x       y       z     vdW  Elec       q    Type
REMARK                         _______ _______ _______ _____ _____    ______ ____
ROOT
ATOM      1  N   UNL     1      -8.924  -9.242  18.342  0.00  0.00    +0.000 N 
ATOM      2  C   UNL     1      -9.510  -9.480  17.131  0.00  0.00    +0.000 A 
ATOM      3  N   UNL     1      -9.855  -8.363  16.526  0.00  0.00    +0.000 NA
ATOM      4  C   UNL     1      -9.472  -7.362  17.401  0.00  0.00    +0.000 A 
ATOM      5  C   UNL     1      -9.603  -5.962  17.351  0.00  0.00    +0.000 A 
ATOM      6  N   UNL     1     -10.244  -5.375  16.246  0.00  0.00    +0.000 N 
ATOM      7  N   UNL     1      -9.097  -5.249  18.405  0.00  0.00    +0.000 NA
ATOM      8  C   UNL     1      -8.542  -5.887  19.456  0.00  0.00    +0.000 A 
ATOM      9  N   UNL     1      -8.161  -5.189  20.584  0.00  0.00    +0.000 N 
ATOM     10  N   UNL     1      -8.401  -7.217  19.581  0.00  0.00    +0.000 NA
ATOM     11  C   UNL     1      -8.880  -7.890  18.531  0.00  0.00    +0.000 A 
ATOM     12  H   UNL     1      -9.662 -10.479  16.743  0.00  0.00    +0.000 HD
ATOM     13  H   UNL     1     -10.525  -6.077  15.567  0.00  0.00    +0.000 HD
ATOM     14  H   UNL     1      -7.706  -5.845  21.205  0.00  0.00    +0.000 HD
ENDROOT
BRANCH   9  15
ATOM     15  C   UNL     1      -7.549  -3.861  20.499  0.00  0.00    +0.000 C 
ATOM     16  C   UNL     1      -6.292  -3.749  21.373  0.00  0.00    +0.000 C 
ATOM     17  C   UNL     1      -6.575  -3.896  22.869  0.00  0.00    +0.000 C 
ATOM     18  C   UNL     1      -7.688  -2.979  23.368  0.00  0.00    +0.000 C 
ATOM     19  C   UNL     1      -8.924  -2.951  22.470  0.00  0.00    +0.000 C 
ATOM     20  C   UNL     1      -8.587  -2.798  20.978  0.00  0.00    +0.000 C 
ATOM     21  H   UNL     1      -7.281  -3.627  19.461  0.00  0.00    +0.000 HD
ATOM     22  H   UNL     1      -5.837  -2.763  21.206  0.00  0.00    +0.000 HD
ATOM     23  H   UNL     1      -5.544  -4.492  21.071  0.00  0.00    +0.000 HD
ATOM     24  H   UNL     1      -5.658  -3.677  23.432  0.00  0.00    +0.000 HD
ATOM     25  H   UNL     1      -6.829  -4.937  23.095  0.00  0.00    +0.000 HD
ATOM     26  H   UNL     1      -7.297  -1.960  23.469  0.00  0.00    +0.000 HD
ATOM     27  H   UNL     1      -7.986  -3.294  24.376  0.00  0.00    +0.000 HD
ATOM     28  H   UNL     1      -9.568  -2.120  22.790  0.00  0.00    +0.000 HD
ATOM     29  H   UNL     1      -9.505  -3.867  22.640  0.00  0.00    +0.000 HD
ATOM     30  H   UNL     1      -8.164  -1.798  20.821  0.00  0.00    +0.000 HD
BRANCH  20  31
ATOM     31  N   UNL     1      -9.840  -2.886  20.207  0.00  0.00    +0.000 NA
ATOM     32  H   UNL     1      -9.913  -3.858  19.885  0.00  0.00    +0.000 HD
ATOM     33  H   UNL     1      -9.722  -2.361  19.338  0.00  0.00    +0.000 HD
ENDBRANCH  20  31
ENDBRANCH   9  15
BRANCH   6  34
ATOM     34  C   UNL     1     -10.813  -4.107  16.063  0.00  0.00    +0.000 A 
ATOM     35  C   UNL     1     -11.869  -3.709  16.901  0.00  0.00    +0.000 A 
ATOM     36  C   UNL     1     -12.528  -2.489  16.713  0.00  0.00    +0.000 A 
ATOM     37  C   UNL     1     -12.142  -1.648  15.674  0.00  0.00    +0.000 A 
ATOM     38  C   UNL     1     -11.095  -2.026  14.840  0.00  0.00    +0.000 A 
ATOM     39 CL   UNL     1     -10.607  -0.990  13.554  0.00  0.00    +0.000 Cl
ATOM     40  C   UNL     1     -10.440  -3.243  15.028  0.00  0.00    +0.000 A 
ATOM     41  H   UNL     1     -12.197  -4.356  17.713  0.00  0.00    +0.000 HD
ATOM     42  H   UNL     1     -13.345  -2.202  17.371  0.00  0.00    +0.000 HD
ATOM     43  H   UNL     1     -12.660  -0.706  15.517  0.00  0.00    +0.000 HD
ATOM     44  H   UNL     1      -9.620  -3.502  14.367  0.00  0.00    +0.000 HD
ENDBRANCH   6  34
BRANCH   1  45
ATOM     45  C   UNL     1      -8.468 -10.245  19.282  0.00  0.00    +0.000 C 
ATOM     46  H   UNL     1      -7.494  -9.930  19.671  0.00  0.00    +0.000 HD
ATOM     47  H   UNL     1      -9.169 -10.256  20.125  0.00  0.00    +0.000 HD
BRANCH  45  48
ATOM     48  C   UNL     1      -8.374 -11.622  18.653  0.00  0.00    +0.000 C 
ATOM     49  H   UNL     1      -7.327 -11.939  18.587  0.00  0.00    +0.000 HD
ATOM     50  H   UNL     1      -8.795 -11.626  17.642  0.00  0.00    +0.000 HD
ATOM     51  H   UNL     1      -8.917 -12.365  19.244  0.00  0.00    +0.000 HD
ENDBRANCH  45  48
ENDBRANCH   1  45
TORSDOF 5
ENDMDL
MODEL 5
REMARK VINA RESULT:    -8.494      1.623      1.736
REMARK INTER + INTRA:         -11.227
REMARK INTER:                 -10.421
REMARK INTRA:                  -0.806
REMARK UNBOUND:                -0.747
REMARK  Name = 
REMARK  5 active torsions:
REMARK  status: ('A' for Active; 'I' for Inactive)
REMARK    1  A    between atoms: C_1  and  C_2
REMARK    2  A    between atoms: C_2  and  N_3
REMARK    3  A    between atoms: N_8  and  C_9
REMARK    4  A    between atoms: N_18  and  C_19
REMARK    5  A    between atoms: C_24  and  N_25
REMARK                            x       y       z     vdW  Elec       q    Type
REMARK                         _______ _______ _______ _____ _____    ______ ____
ROOT
ATOM      1  N   UNL     1     -10.008  -8.822  16.776  0.00  0.00    +0.000 N 
ATOM      2  C   UNL     1      -9.353  -9.616  17.675  0.00  0.00    +0.000 A 
ATOM      3  N   UNL     1      -8.676  -8.907  18.552  0.00  0.00    +0.000 NA
ATOM      4  C   UNL     1      -8.909  -7.591  18.189  0.00  0.00    +0.000 A 
ATOM      5  C   UNL     1      -8.437  -6.371  18.704  0.00  0.00    +0.000 A 
ATOM      6  N   UNL     1      -7.543  -6.387  19.789  0.00  0.00    +0.000 N 
ATOM      7  N   UNL     1      -8.879  -5.224  18.101  0.00  0.00    +0.000 NA
ATOM      8  C   UNL     1      -9.697  -5.289  17.030  0.00  0.00    +0.000 A 
ATOM      9  N   UNL     1     -10.033  -4.149  16.327  0.00  0.00    +0.000 N 
ATOM     10  N   UNL     1     -10.171  -6.416  16.472  0.00  0.00    +0.000 NA
ATOM     11  C   UNL     1      -9.745  -7.520  17.093  0.00  0.00    +0.000 A 
ATOM     12  H   UNL     1      -9.402 -10.697  17.642  0.00  0.00    +0.000 HD
ATOM     13  H   UNL     1      -7.359  -7.337  20.101  0.00  0.00    +0.000 HD
ATOM     14  H   UNL     1     -10.705  -4.418  15.621  0.00  0.00    +0.000 HD
ENDROOT
BRANCH   9  15
ATOM     15  C   UNL     1     -10.289  -2.875  17.003  0.00  0.00    +0.000 C 
ATOM     16  C   UNL     1     -11.628  -2.881  17.754  0.00  0.00    +0.000 C 
ATOM     17  C   UNL     1     -12.842  -3.027  16.835  0.00  0.00    +0.000 C 
ATOM     18  C   UNL     1     -12.851  -2.029  15.681  0.00  0.00    +0.000 C 
ATOM     19  C   UNL     1     -11.508  -1.886  14.968  0.00  0.00    +0.000 C 
ATOM     20  C   UNL     1     -10.320  -1.738  15.934  0.00  0.00    +0.000 C 
ATOM     21  H   UNL     1      -9.484  -2.649  17.713  0.00  0.00    +0.000 HD
ATOM     22  H   UNL     1     -11.725  -1.934  18.301  0.00  0.00    +0.000 HD
ATOM     23  H   UNL     1     -11.644  -3.678  18.506  0.00  0.00    +0.000 HD
ATOM     24  H   UNL     1     -13.758  -2.893  17.425  0.00  0.00    +0.000 HD
ATOM     25  H   UNL     1     -12.882  -4.048  16.439  0.00  0.00    +0.000 HD
ATOM     26  H   UNL     1     -13.163  -1.048  16.055  0.00  0.00    +0.000 HD
ATOM     27  H   UNL     1     -13.612  -2.335  14.951  0.00  0.00    +0.000 HD
ATOM     28  H   UNL     1     -11.556  -1.010  14.306  0.00  0.00    +0.000 HD
ATOM     29  H   UNL     1     -11.361  -2.753  14.311  0.00  0.00    +0.000 HD
ATOM     30  H   UNL     1     -10.414  -0.774  16.449  0.00  0.00    +0.000 HD
BRANCH  20  31
ATOM     31  N   UNL     1      -9.077  -1.711  15.143  0.00  0.00    +0.000 NA
ATOM     32  H   UNL     1      -9.290  -1.185  14.288  0.00  0.00    +0.000 HD
ATOM     33  H   UNL     1      -8.894  -2.655  14.797  0.00  0.00    +0.000 HD
ENDBRANCH  20  31
ENDBRANCH   9  15
BRANCH   6  34
ATOM     34  C   UNL     1      -6.665  -5.415  20.290  0.00  0.00    +0.000 A 
ATOM     35  C   UNL     1      -5.289  -5.548  20.036  0.00  0.00    +0.000 A 
ATOM     36  C   UNL     1      -4.359  -4.653  20.578  0.00  0.00    +0.000 A 
ATOM     37  C   UNL     1      -4.794  -3.612  21.391  0.00  0.00    +0.000 A 
ATOM     38  C   UNL     1      -6.154  -3.465  21.646  0.00  0.00    +0.000 A 
ATOM     39 CL   UNL     1      -6.703  -2.176  22.647  0.00  0.00    +0.000 Cl
ATOM     40  C   UNL     1      -7.079  -4.358  21.106  0.00  0.00    +0.000 A 
ATOM     41  H   UNL     1      -4.923  -6.363  19.414  0.00  0.00    +0.000 HD
ATOM     42  H   UNL     1      -3.298  -4.777  20.372  0.00  0.00    +0.000 HD
ATOM     43  H   UNL     1      -4.074  -2.923  21.824  0.00  0.00    +0.000 HD
ATOM     44  H   UNL     1      -8.133  -4.208  21.316  0.00  0.00    +0.000 HD
ENDBRANCH   6  34
BRANCH   1  45
ATOM     45  C   UNL     1     -10.805  -9.278  15.655  0.00  0.00    +0.000 C 
ATOM     46  H   UNL     1     -11.613  -9.906  16.044  0.00  0.00    +0.000 HD
ATOM     47  H   UNL     1     -11.268  -8.398  15.194  0.00  0.00    +0.000 HD
BRANCH  45  48
ATOM     48  C   UNL     1      -9.979 -10.039  14.635  0.00  0.00    +0.000 C 
ATOM     49  H   UNL     1     -10.081  -9.581  13.645  0.00  0.00    +0.000 HD
ATOM     50  H   UNL     1     -10.302 -11.083  14.562  0.00  0.00    +0.000 HD
ATOM     51  H   UNL     1      -8.918 -10.036  14.903  0.00  0.00    +0.000 HD
ENDBRANCH  45  48
ENDBRANCH   1  45
TORSDOF 5
ENDMDL
MODEL 6
REMARK VINA RESULT:    -8.162      3.384      6.591
REMARK INTER + INTRA:         -10.817
REMARK INTER:                 -10.102
REMARK INTRA:                  -0.715
REMARK UNBOUND:                -0.747
REMARK  Name = 
REMARK  5 active torsions:
REMARK  status: ('A' for Active; 'I' for Inactive)
REMARK    1  A    between atoms: C_1  and  C_2
REMARK    2  A    between atoms: C_2  and  N_3
REMARK    3  A    between atoms: N_8  and  C_9
REMARK    4  A    between atoms: N_18  and  C_19
REMARK    5  A    between atoms: C_24  and  N_25
REMARK                            x       y       z     vdW  Elec       q    Type
REMARK                         _______ _______ _______ _____ _____    ______ ____
ROOT
ATOM      1  N   UNL     1      -8.120  -1.935  22.397  0.00  0.00    +0.000 N 
ATOM      2  C   UNL     1      -7.380  -2.874  23.057  0.00  0.00    +0.000 A 
ATOM      3  N   UNL     1      -7.297  -3.999  22.378  0.00  0.00    +0.000 NA
ATOM      4  C   UNL     1      -8.026  -3.762  21.225  0.00  0.00    +0.000 A 
ATOM      5  C   UNL     1      -8.348  -4.579  20.126  0.00  0.00    +0.000 A 
ATOM      6  N   UNL     1      -7.897  -5.910  20.109  0.00  0.00    +0.000 N 
ATOM      7  N   UNL     1      -9.100  -4.017  19.129  0.00  0.00    +0.000 NA
ATOM      8  C   UNL     1      -9.541  -2.747  19.241  0.00  0.00    +0.000 A 
ATOM      9  N   UNL     1     -10.417  -2.220  18.313  0.00  0.00    +0.000 N 
ATOM     10  N   UNL     1      -9.291  -1.917  20.267  0.00  0.00    +0.000 NA
ATOM     11  C   UNL     1      -8.536  -2.479  21.216  0.00  0.00    +0.000 A 
ATOM     12  H   UNL     1      -6.931  -2.689  24.024  0.00  0.00    +0.000 HD
ATOM     13  H   UNL     1      -7.338  -6.121  20.931  0.00  0.00    +0.000 HD
ATOM     14  H   UNL     1     -10.552  -1.245  18.547  0.00  0.00    +0.000 HD
ENDROOT
BRANCH   9  15
ATOM     15  C   UNL     1     -10.303  -2.525  16.885  0.00  0.00    +0.000 C 
ATOM     16  C   UNL     1     -10.106  -1.259  16.039  0.00  0.00    +0.000 C 
ATOM     17  C   UNL     1     -11.299  -0.302  16.088  0.00  0.00    +0.000 C 
ATOM     18  C   UNL     1     -12.631  -0.979  15.780  0.00  0.00    +0.000 C 
ATOM     19  C   UNL     1     -12.835  -2.312  16.498  0.00  0.00    +0.000 C 
ATOM     20  C   UNL     1     -11.611  -3.239  16.419  0.00  0.00    +0.000 C 
ATOM     21  H   UNL     1      -9.463  -3.207  16.704  0.00  0.00    +0.000 HD
ATOM     22  H   UNL     1      -9.949  -1.558  14.995  0.00  0.00    +0.000 HD
ATOM     23  H   UNL     1      -9.200  -0.725  16.350  0.00  0.00    +0.000 HD
ATOM     24  H   UNL     1     -11.139   0.508  15.364  0.00  0.00    +0.000 HD
ATOM     25  H   UNL     1     -11.348   0.175  17.072  0.00  0.00    +0.000 HD
ATOM     26  H   UNL     1     -12.712  -1.140  14.699  0.00  0.00    +0.000 HD
ATOM     27  H   UNL     1     -13.448  -0.298  16.051  0.00  0.00    +0.000 HD
ATOM     28  H   UNL     1     -13.708  -2.815  16.059  0.00  0.00    +0.000 HD
ATOM     29  H   UNL     1     -13.096  -2.112  17.546  0.00  0.00    +0.000 HD
ATOM     30  H   UNL     1     -11.486  -3.554  15.375  0.00  0.00    +0.000 HD
BRANCH  20  31
ATOM     31  N   UNL     1     -11.884  -4.441  17.227  0.00  0.00    +0.000 NA
ATOM     32  H   UNL     1     -11.652  -5.246  16.635  0.00  0.00    +0.000 HD
ATOM     33  H   UNL     1     -12.894  -4.524  17.350  0.00  0.00    +0.000 HD
ENDBRANCH  20  31
ENDBRANCH   9  15
BRANCH   6  34
ATOM     34  C   UNL     1      -8.311  -7.026  19.368  0.00  0.00    +0.000 A 
ATOM     35  C   UNL     1      -8.490  -8.253  20.030  0.00  0.00    +0.000 A 
ATOM     36  C   UNL     1      -8.824  -9.417  19.329  0.00  0.00    +0.000 A 
ATOM     37  C   UNL     1      -8.977  -9.372  17.947  0.00  0.00    +0.000 A 
ATOM     38  C   UNL     1      -8.809  -8.163  17.279  0.00  0.00    +0.000 A 
ATOM     39 CL   UNL     1      -9.002  -8.096  15.570  0.00  0.00    +0.000 Cl
ATOM     40  C   UNL     1      -8.475  -7.003  17.979  0.00  0.00    +0.000 A 
ATOM     41  H   UNL     1      -8.362  -8.316  21.109  0.00  0.00    +0.000 HD
ATOM     42  H   UNL     1      -8.953 -10.357  19.862  0.00  0.00    +0.000 HD
ATOM     43  H   UNL     1      -9.224 -10.276  17.398  0.00  0.00    +0.000 HD
ATOM     44  H   UNL     1      -8.363  -6.076  17.429  0.00  0.00    +0.000 HD
ENDBRANCH   6  34
BRANCH   1  45
ATOM     45  C   UNL     1      -8.446  -0.609  22.881  0.00  0.00    +0.000 C 
ATOM     46  H   UNL     1      -7.572   0.034  22.729  0.00  0.00    +0.000 HD
ATOM     47  H   UNL     1      -9.255  -0.214  22.256  0.00  0.00    +0.000 HD
BRANCH  45  48
ATOM     48  C   UNL     1      -8.858  -0.616  24.341  0.00  0.00    +0.000 C 
ATOM     49  H   UNL     1      -8.945   0.410  24.717  0.00  0.00    +0.000 HD
ATOM     50  H   UNL     1      -8.123  -1.143  24.959  0.00  0.00    +0.000 HD
ATOM     51  H   UNL     1      -9.825  -1.110  24.477  0.00  0.00    +0.000 HD
ENDBRANCH  45  48
ENDBRANCH   1  45
TORSDOF 5
ENDMDL
MODEL 7
REMARK VINA RESULT:    -8.143      3.117      7.172
REMARK INTER + INTRA:         -10.794
REMARK INTER:                 -10.371
REMARK INTRA:                  -0.423
REMARK UNBOUND:                -0.747
REMARK  Name = 
REMARK  5 active torsions:
REMARK  status: ('A' for Active; 'I' for Inactive)
REMARK    1  A    between atoms: C_1  and  C_2
REMARK    2  A    between atoms: C_2  and  N_3
REMARK    3  A    between atoms: N_8  and  C_9
REMARK    4  A    between atoms: N_18  and  C_19
REMARK    5  A    between atoms: C_24  and  N_25
REMARK                            x       y       z     vdW  Elec       q    Type
REMARK                         _______ _______ _______ _____ _____    ______ ____
ROOT
ATOM      1  N   UNL     1     -10.905  -2.565  16.111  0.00  0.00    +0.000 N 
ATOM      2  C   UNL     1     -11.516  -3.489  15.311  0.00  0.00    +0.000 A 
ATOM      3  N   UNL     1     -11.393  -4.709  15.790  0.00  0.00    +0.000 NA
ATOM      4  C   UNL     1     -10.663  -4.552  16.956  0.00  0.00    +0.000 A 
ATOM      5  C   UNL     1     -10.172  -5.477  17.895  0.00  0.00    +0.000 A 
ATOM      6  N   UNL     1     -10.408  -6.848  17.692  0.00  0.00    +0.000 N 
ATOM      7  N   UNL     1      -9.476  -4.975  18.962  0.00  0.00    +0.000 NA
ATOM      8  C   UNL     1      -9.244  -3.650  19.062  0.00  0.00    +0.000 A 
ATOM      9  N   UNL     1      -8.424  -3.150  20.053  0.00  0.00    +0.000 N 
ATOM     10  N   UNL     1      -9.663  -2.712  18.196  0.00  0.00    +0.000 NA
ATOM     11  C   UNL     1     -10.360  -3.224  17.176  0.00  0.00    +0.000 A 
ATOM     12  H   UNL     1     -12.028  -3.221  14.396  0.00  0.00    +0.000 HD
ATOM     13  H   UNL     1     -10.960  -7.007  16.853  0.00  0.00    +0.000 HD
ATOM     14  H   UNL     1      -8.453  -2.140  19.987  0.00  0.00    +0.000 HD
ENDROOT
BRANCH   9  15
ATOM     15  C   UNL     1      -8.429  -3.702  21.410  0.00  0.00    +0.000 C 
ATOM     16  C   UNL     1      -9.273  -2.855  22.373  0.00  0.00    +0.000 C 
ATOM     17  C   UNL     1      -8.723  -1.443  22.584  0.00  0.00    +0.000 C 
ATOM     18  C   UNL     1      -7.246  -1.418  22.964  0.00  0.00    +0.000 C 
ATOM     19  C   UNL     1      -6.368  -2.339  22.119  0.00  0.00    +0.000 C 
ATOM     20  C   UNL     1      -6.961  -3.747  21.939  0.00  0.00    +0.000 C 
ATOM     21  H   UNL     1      -8.818  -4.727  21.405  0.00  0.00    +0.000 HD
ATOM     22  H   UNL     1      -9.302  -3.360  23.348  0.00  0.00    +0.000 HD
ATOM     23  H   UNL     1     -10.310  -2.792  22.024  0.00  0.00    +0.000 HD
ATOM     24  H   UNL     1      -9.300  -0.947  23.376  0.00  0.00    +0.000 HD
ATOM     25  H   UNL     1      -8.880  -0.848  21.677  0.00  0.00    +0.000 HD
ATOM     26  H   UNL     1      -7.140  -1.694  24.019  0.00  0.00    +0.000 HD
ATOM     27  H   UNL     1      -6.872  -0.390  22.877  0.00  0.00    +0.000 HD
ATOM     28  H   UNL     1      -5.381  -2.414  22.594  0.00  0.00    +0.000 HD
ATOM     29  H   UNL     1      -6.199  -1.868  21.141  0.00  0.00    +0.000 HD
ATOM     30  H   UNL     1      -6.955  -4.250  22.914  0.00  0.00    +0.000 HD
BRANCH  20  31
ATOM     31  N   UNL     1      -6.086  -4.508  21.029  0.00  0.00    +0.000 NA
ATOM     32  H   UNL     1      -6.607  -5.352  20.767  0.00  0.00    +0.000 HD
ATOM     33  H   UNL     1      -5.301  -4.875  21.569  0.00  0.00    +0.000 HD
ENDBRANCH  20  31
ENDBRANCH   9  15
BRANCH   6  34
ATOM     34  C   UNL     1      -9.793  -7.990  18.225  0.00  0.00    +0.000 A 
ATOM     35  C   UNL     1      -9.311  -7.948  19.545  0.00  0.00    +0.000 A 
ATOM     36  C   UNL     1      -8.618  -9.028  20.102  0.00  0.00    +0.000 A 
ATOM     37  C   UNL     1      -8.391 -10.170  19.340  0.00  0.00    +0.000 A 
ATOM     38  C   UNL     1      -8.868 -10.228  18.034  0.00  0.00    +0.000 A 
ATOM     39 CL   UNL     1      -8.597 -11.639  17.086  0.00  0.00    +0.000 Cl
ATOM     40  C   UNL     1      -9.558  -9.150  17.481  0.00  0.00    +0.000 A 
ATOM     41  H   UNL     1      -9.465  -7.060  20.155  0.00  0.00    +0.000 HD
ATOM     42  H   UNL     1      -8.250  -8.973  21.124  0.00  0.00    +0.000 HD
ATOM     43  H   UNL     1      -7.843 -11.006  19.765  0.00  0.00    +0.000 HD
ATOM     44  H   UNL     1      -9.926  -9.233  16.464  0.00  0.00    +0.000 HD
ENDBRANCH   6  34
BRANCH   1  45
ATOM     45  C   UNL     1     -10.812  -1.143  15.855  0.00  0.00    +0.000 C 
ATOM     46  H   UNL     1      -9.890  -0.772  16.317  0.00  0.00    +0.000 HD
ATOM     47  H   UNL     1     -10.714  -1.003  14.772  0.00  0.00    +0.000 HD
BRANCH  45  48
ATOM     48  C   UNL     1     -12.016  -0.384  16.381  0.00  0.00    +0.000 C 
ATOM     49  H   UNL     1     -12.943  -0.863  16.048  0.00  0.00    +0.000 HD
ATOM     50  H   UNL     1     -12.020   0.651  16.024  0.00  0.00    +0.000 HD
ATOM     51  H   UNL     1     -12.021  -0.359  17.475  0.00  0.00    +0.000 HD
ENDBRANCH  45  48
ENDBRANCH   1  45
TORSDOF 5
ENDMDL
MODEL 8
REMARK VINA RESULT:    -7.988      2.848      7.004
REMARK INTER + INTRA:         -10.602
REMARK INTER:                 -10.217
REMARK INTRA:                  -0.385
REMARK UNBOUND:                -0.747
REMARK  Name = 
REMARK  5 active torsions:
REMARK  status: ('A' for Active; 'I' for Inactive)
REMARK    1  A    between atoms: C_1  and  C_2
REMARK    2  A    between atoms: C_2  and  N_3
REMARK    3  A    between atoms: N_8  and  C_9
REMARK    4  A    between atoms: N_18  and  C_19
REMARK    5  A    between atoms: C_24  and  N_25
REMARK                            x       y       z     vdW  Elec       q    Type
REMARK                         _______ _______ _______ _____ _____    ______ ____
ROOT
ATOM      1  N   UNL     1      -8.460  -4.479  19.721  0.00  0.00    +0.000 N 
ATOM      2  C   UNL     1      -8.896  -3.185  19.727  0.00  0.00    +0.000 A 
ATOM      3  N   UNL     1      -9.645  -2.916  18.678  0.00  0.00    +0.000 NA
ATOM      4  C   UNL     1      -9.683  -4.102  17.965  0.00  0.00    +0.000 A 
ATOM      5  C   UNL     1     -10.280  -4.450  16.740  0.00  0.00    +0.000 A 
ATOM      6  N   UNL     1     -10.987  -3.469  16.022  0.00  0.00    +0.000 N 
ATOM      7  N   UNL     1     -10.127  -5.742  16.315  0.00  0.00    +0.000 NA
ATOM      8  C   UNL     1      -9.390  -6.614  17.034  0.00  0.00    +0.000 A 
ATOM      9  N   UNL     1      -9.110  -7.873  16.544  0.00  0.00    +0.000 N 
ATOM     10  N   UNL     1      -8.776  -6.348  18.199  0.00  0.00    +0.000 NA
ATOM     11  C   UNL     1      -8.960  -5.088  18.606  0.00  0.00    +0.000 A 
ATOM     12  H   UNL     1      -8.639  -2.485  20.511  0.00  0.00    +0.000 HD
ATOM     13  H   UNL     1     -11.000  -2.584  16.521  0.00  0.00    +0.000 HD
ATOM     14  H   UNL     1      -8.616  -8.376  17.270  0.00  0.00    +0.000 HD
ENDROOT
BRANCH   9  15
ATOM     15  C   UNL     1     -10.101  -8.646  15.792  0.00  0.00    +0.000 C 
ATOM     16  C   UNL     1     -10.660  -9.818  16.611  0.00  0.00    +0.000 C 
ATOM     17  C   UNL     1      -9.607 -10.870  16.966  0.00  0.00    +0.000 C 
ATOM     18  C   UNL     1      -8.810 -11.360  15.761  0.00  0.00    +0.000 C 
ATOM     19  C   UNL     1      -8.329 -10.244  14.835  0.00  0.00    +0.000 C 
ATOM     20  C   UNL     1      -9.423  -9.214  14.505  0.00  0.00    +0.000 C 
ATOM     21  H   UNL     1     -10.932  -8.003  15.479  0.00  0.00    +0.000 HD
ATOM     22  H   UNL     1     -11.450 -10.308  16.026  0.00  0.00    +0.000 HD
ATOM     23  H   UNL     1     -11.133  -9.455  17.531  0.00  0.00    +0.000 HD
ATOM     24  H   UNL     1     -10.103 -11.731  17.435  0.00  0.00    +0.000 HD
ATOM     25  H   UNL     1      -8.923 -10.466  17.720  0.00  0.00    +0.000 HD
ATOM     26  H   UNL     1      -9.422 -12.063  15.185  0.00  0.00    +0.000 HD
ATOM     27  H   UNL     1      -7.941 -11.929  16.116  0.00  0.00    +0.000 HD
ATOM     28  H   UNL     1      -7.957 -10.697  13.906  0.00  0.00    +0.000 HD
ATOM     29  H   UNL     1      -7.464  -9.749  15.297  0.00  0.00    +0.000 HD
ATOM     30  H   UNL     1     -10.188  -9.710  13.895  0.00  0.00    +0.000 HD
BRANCH  20  31
ATOM     31  N   UNL     1      -8.822  -8.140  13.696  0.00  0.00    +0.000 NA
ATOM     32  H   UNL     1      -8.894  -7.282  14.255  0.00  0.00    +0.000 HD
ATOM     33  H   UNL     1      -9.435  -7.953  12.901  0.00  0.00    +0.000 HD
ENDBRANCH  20  31
ENDBRANCH   9  15
BRANCH   6  34
ATOM     34  C   UNL     1     -11.384  -3.402  14.679  0.00  0.00    +0.000 A 
ATOM     35  C   UNL     1     -10.806  -4.290  13.754  0.00  0.00    +0.000 A 
ATOM     36  C   UNL     1     -11.104  -4.215  12.389  0.00  0.00    +0.000 A 
ATOM     37  C   UNL     1     -11.983  -3.241  11.926  0.00  0.00    +0.000 A 
ATOM     38  C   UNL     1     -12.566  -2.359  12.830  0.00  0.00    +0.000 A 
ATOM     39 CL   UNL     1     -13.660  -1.155  12.267  0.00  0.00    +0.000 Cl
ATOM     40  C   UNL     1     -12.268  -2.435  14.191  0.00  0.00    +0.000 A 
ATOM     41  H   UNL     1     -10.105  -5.051  14.091  0.00  0.00    +0.000 HD
ATOM     42  H   UNL     1     -10.642  -4.909  11.691  0.00  0.00    +0.000 HD
ATOM     43  H   UNL     1     -12.207  -3.171  10.865  0.00  0.00    +0.000 HD
ATOM     44  H   UNL     1     -12.749  -1.739  14.870  0.00  0.00    +0.000 HD
ENDBRANCH   6  34
BRANCH   1  45
ATOM     45  C   UNL     1      -7.583  -5.089  20.699  0.00  0.00    +0.000 C 
ATOM     46  H   UNL     1      -7.600  -4.473  21.604  0.00  0.00    +0.000 HD
ATOM     47  H   UNL     1      -8.004  -6.067  20.962  0.00  0.00    +0.000 HD
BRANCH  45  48
ATOM     48  C   UNL     1      -6.165  -5.244  20.183  0.00  0.00    +0.000 C 
ATOM     49  H   UNL     1      -5.866  -4.354  19.619  0.00  0.00    +0.000 HD
ATOM     50  H   UNL     1      -6.076  -6.112  19.521  0.00  0.00    +0.000 HD
ATOM     51  H   UNL     1      -5.456  -5.378  21.006  0.00  0.00    +0.000 HD
ENDBRANCH  45  48
ENDBRANCH   1  45
TORSDOF 5
ENDMDL
MODEL 9
REMARK VINA RESULT:    -7.792      3.194      6.221
REMARK INTER + INTRA:         -10.360
REMARK INTER:                  -9.534
REMARK INTRA:                  -0.826
REMARK UNBOUND:                -0.747
REMARK  Name = 
REMARK  5 active torsions:
REMARK  status: ('A' for Active; 'I' for Inactive)
REMARK    1  A    between atoms: C_1  and  C_2
REMARK    2  A    between atoms: C_2  and  N_3
REMARK    3  A    between atoms: N_8  and  C_9
REMARK    4  A    between atoms: N_18  and  C_19
REMARK    5  A    between atoms: C_24  and  N_25
REMARK                            x       y       z     vdW  Elec       q    Type
REMARK                         _______ _______ _______ _____ _____    ______ ____
ROOT
ATOM      1  N   UNL     1     -10.532  -0.912  16.238  0.00  0.00    +0.000 N 
ATOM      2  C   UNL     1     -10.118   0.234  16.857  0.00  0.00    +0.000 A 
ATOM      3  N   UNL     1      -9.602  -0.009  18.043  0.00  0.00    +0.000 NA
ATOM      4  C   UNL     1      -9.697  -1.383  18.188  0.00  0.00    +0.000 A 
ATOM      5  C   UNL     1      -9.359  -2.247  19.245  0.00  0.00    +0.000 A 
ATOM      6  N   UNL     1      -8.826  -1.705  20.427  0.00  0.00    +0.000 N 
ATOM      7  N   UNL     1      -9.581  -3.585  19.054  0.00  0.00    +0.000 NA
ATOM      8  C   UNL     1     -10.145  -4.026  17.911  0.00  0.00    +0.000 A 
ATOM      9  N   UNL     1     -10.505  -5.351  17.767  0.00  0.00    +0.000 N 
ATOM     10  N   UNL     1     -10.511  -3.260  16.870  0.00  0.00    +0.000 NA
ATOM     11  C   UNL     1     -10.263  -1.961  17.070  0.00  0.00    +0.000 A 
ATOM     12  H   UNL     1     -10.218   1.211  16.403  0.00  0.00    +0.000 HD
ATOM     13  H   UNL     1      -8.721  -0.696  20.356  0.00  0.00    +0.000 HD
ATOM     14  H   UNL     1     -10.834  -5.472  16.817  0.00  0.00    +0.000 HD
ENDROOT
BRANCH   9  15
ATOM     15  C   UNL     1      -9.680  -6.436  18.301  0.00  0.00    +0.000 C 
ATOM     16  C   UNL     1      -8.310  -6.511  17.612  0.00  0.00    +0.000 C 
ATOM     17  C   UNL     1      -8.395  -6.850  16.123  0.00  0.00    +0.000 C 
ATOM     18  C   UNL     1      -9.237  -8.089  15.831  0.00  0.00    +0.000 C 
ATOM     19  C   UNL     1     -10.563  -8.135  16.586  0.00  0.00    +0.000 C 
ATOM     20  C   UNL     1     -10.426  -7.790  18.078  0.00  0.00    +0.000 C 
ATOM     21  H   UNL     1      -9.528  -6.308  19.379  0.00  0.00    +0.000 HD
ATOM     22  H   UNL     1      -7.712  -7.288  18.107  0.00  0.00    +0.000 HD
ATOM     23  H   UNL     1      -7.763  -5.569  17.738  0.00  0.00    +0.000 HD
ATOM     24  H   UNL     1      -7.381  -7.012  15.733  0.00  0.00    +0.000 HD
ATOM     25  H   UNL     1      -8.798  -5.994  15.572  0.00  0.00    +0.000 HD
ATOM     26  H   UNL     1      -8.656  -8.986  16.075  0.00  0.00    +0.000 HD
ATOM     27  H   UNL     1      -9.437  -8.139  14.752  0.00  0.00    +0.000 HD
ATOM     28  H   UNL     1     -10.992  -9.140  16.478  0.00  0.00    +0.000 HD
ATOM     29  H   UNL     1     -11.271  -7.451  16.099  0.00  0.00    +0.000 HD
ATOM     30  H   UNL     1      -9.854  -8.590  18.564  0.00  0.00    +0.000 HD
BRANCH  20  31
ATOM     31  N   UNL     1     -11.772  -7.765  18.676  0.00  0.00    +0.000 NA
ATOM     32  H   UNL     1     -12.127  -6.811  18.551  0.00  0.00    +0.000 HD
ATOM     33  H   UNL     1     -11.677  -7.849  19.690  0.00  0.00    +0.000 HD
ENDBRANCH  20  31
ENDBRANCH   9  15
BRANCH   6  34
ATOM     34  C   UNL     1      -8.712  -2.226  21.724  0.00  0.00    +0.000 A 
ATOM     35  C   UNL     1      -7.547  -2.929  22.075  0.00  0.00    +0.000 A 
ATOM     36  C   UNL     1      -7.413  -3.539  23.327  0.00  0.00    +0.000 A 
ATOM     37  C   UNL     1      -8.452  -3.459  24.249  0.00  0.00    +0.000 A 
ATOM     38  C   UNL     1      -9.609  -2.761  23.918  0.00  0.00    +0.000 A 
ATOM     39 CL   UNL     1     -10.897  -2.652  25.055  0.00  0.00    +0.000 Cl
ATOM     40  C   UNL     1      -9.741  -2.154  22.669  0.00  0.00    +0.000 A 
ATOM     41  H   UNL     1      -6.726  -3.016  21.365  0.00  0.00    +0.000 HD
ATOM     42  H   UNL     1      -6.504  -4.082  23.576  0.00  0.00    +0.000 HD
ATOM     43  H   UNL     1      -8.357  -3.942  25.218  0.00  0.00    +0.000 HD
ATOM     44  H   UNL     1     -10.652  -1.609  22.448  0.00  0.00    +0.000 HD
ENDBRANCH   6  34
BRANCH   1  45
ATOM     45  C   UNL     1     -11.183  -0.998  14.947  0.00  0.00    +0.000 C 
ATOM     46  H   UNL     1     -10.815  -0.177  14.324  0.00  0.00    +0.000 HD
ATOM     47  H   UNL     1     -10.866  -1.935  14.474  0.00  0.00    +0.000 HD
BRANCH  45  48
ATOM     48  C   UNL     1     -12.695  -0.948  15.062  0.00  0.00    +0.000 C 
ATOM     49  H   UNL     1     -13.152  -1.677  14.384  0.00  0.00    +0.000 HD
ATOM     50  H   UNL     1     -13.079   0.045  14.804  0.00  0.00    +0.000 HD
ATOM     51  H   UNL     1     -13.023  -1.179  16.080  0.00  0.00    +0.000 HD
ENDBRANCH  45  48
ENDBRANCH   1  45
TORSDOF 5
ENDMDL
