MODEL 1
REMARK VINA RESULT:   -11.670      0.000      0.000
REMARK INTER + INTRA:         -18.608
REMARK INTER:                 -16.787
REMARK INTRA:                  -1.821
REMARK UNBOUND:                -1.821
REMARK  Name = 
REMARK  8 active torsions:
REMARK  status: ('A' for Active; 'I' for Inactive)
REMARK    1  A    between atoms: N_1  and  C_2
REMARK    2  A    between atoms: C_2  and  C_3
REMARK    3  A    between atoms: C_2  and  C_24
REMARK    4  A    between atoms: C_3  and  O_4
REMARK    5  A    between atoms: O_4  and  C_5
REMARK    6  A    between atoms: C_9  and  C_10
REMARK    7  A    between atoms: C_16  and  C_17
REMARK    8  A    between atoms: C_24  and  C_25
REMARK                            x       y       z     vdW  Elec       q    Type
REMARK                         _______ _______ _______ _____ _____    ______ ____
ROOT
ATOM      1  O   UNL     1     -10.610  -3.198  18.890  0.00  0.00    +0.000 OA
ENDROOT
BRANCH   1   2
ATOM      2  C   UNL     1     -10.371  -4.255  18.060  0.00  0.00    +0.000 A 
ATOM      3  C   UNL     1     -10.546  -4.036  16.702  0.00  0.00    +0.000 A 
ATOM      4  N   UNL     1     -10.373  -4.983  15.752  0.00  0.00    +0.000 NA
ATOM      5  C   UNL     1     -10.015  -6.215  16.187  0.00  0.00    +0.000 A 
ATOM      6  C   UNL     1      -9.801  -6.565  17.523  0.00  0.00    +0.000 A 
ATOM      7  C   UNL     1      -9.975  -5.530  18.456  0.00  0.00    +0.000 A 
ATOM      8  H   UNL     1     -10.843  -3.059  16.329  0.00  0.00    +0.000 HD
ATOM      9  H   UNL     1      -9.916  -6.945  15.388  0.00  0.00    +0.000 HD
ATOM     10  H   UNL     1      -9.788  -5.739  19.505  0.00  0.00    +0.000 HD
BRANCH   6  11
ATOM     11  C   UNL     1      -9.425  -7.933  17.949  0.00  0.00    +0.000 A 
ATOM     12  C   UNL     1      -9.212  -8.250  19.303  0.00  0.00    +0.000 A 
ATOM     13  C   UNL     1      -8.854  -9.537  19.730  0.00  0.00    +0.000 A 
ATOM     14  C   UNL     1      -8.732 -10.523  18.750  0.00  0.00    +0.000 A 
ATOM     15  N   UNL     1      -8.415 -11.851  18.828  0.00  0.00    +0.000 N 
ATOM     16  N   UNL     1      -8.412 -12.489  17.647  0.00  0.00    +0.000 NA
ATOM     17  C   UNL     1      -8.736 -11.529  16.753  0.00  0.00    +0.000 A 
ATOM     18  C   UNL     1      -8.939 -10.275  17.402  0.00  0.00    +0.000 A 
ATOM     19  C   UNL     1      -9.275  -8.969  16.998  0.00  0.00    +0.000 A 
ATOM     20  H   UNL     1      -9.337  -7.486  20.070  0.00  0.00    +0.000 HD
ATOM     21  H   UNL     1      -8.693  -9.749  20.782  0.00  0.00    +0.000 HD
ATOM     22  H   UNL     1      -8.194 -12.383  19.663  0.00  0.00    +0.000 HD
ATOM     23  H   UNL     1      -9.411  -8.772  15.937  0.00  0.00    +0.000 HD
BRANCH  17  24
ATOM     24  C   UNL     1      -8.868 -11.787  15.280  0.00  0.00    +0.000 C 
ATOM     25  F   UNL     1      -9.814 -11.026  14.668  0.00  0.00    +0.000 F 
ATOM     26  F   UNL     1      -7.698 -11.554  14.622  0.00  0.00    +0.000 F 
ATOM     27  F   UNL     1      -9.190 -13.087  15.023  0.00  0.00    +0.000 F 
ENDBRANCH  17  24
ENDBRANCH   6  11
ENDBRANCH   1   2
BRANCH   1  28
ATOM     28  C   UNL     1      -9.456  -2.510  19.395  0.00  0.00    +0.000 C 
ATOM     29  H   UNL     1      -9.310  -1.573  18.841  0.00  0.00    +0.000 HD
ATOM     30  H   UNL     1      -8.565  -3.142  19.282  0.00  0.00    +0.000 HD
BRANCH  28  31
ATOM     31  C   UNL     1      -9.645  -2.190  20.889  0.00  0.00    +0.000 C 
ATOM     32  H   UNL     1      -9.155  -1.231  21.094  0.00  0.00    +0.000 HD
BRANCH  31  33
ATOM     33  N   UNL     1     -11.085  -2.005  21.165  0.00  0.00    +0.000 NA
ATOM     34  H   UNL     1     -11.570  -1.834  20.282  0.00  0.00    +0.000 HD
ATOM     35  H   UNL     1     -11.199  -1.147  21.706  0.00  0.00    +0.000 HD
ENDBRANCH  31  33
BRANCH  31  36
ATOM     36  C   UNL     1      -8.982  -3.287  21.757  0.00  0.00    +0.000 C 
ATOM     37  H   UNL     1      -9.395  -4.265  21.471  0.00  0.00    +0.000 HD
ATOM     38  H   UNL     1      -9.235  -3.149  22.815  0.00  0.00    +0.000 HD
BRANCH  36  39
ATOM     39  C   UNL     1      -7.493  -3.333  21.613  0.00  0.00    +0.000 A 
ATOM     40  C   UNL     1      -6.577  -2.476  22.190  0.00  0.00    +0.000 A 
ATOM     41  N   UNL     1      -5.321  -2.894  21.839  0.00  0.00    +0.000 N 
ATOM     42  C   UNL     1      -5.395  -4.012  21.042  0.00  0.00    +0.000 A 
ATOM     43  C   UNL     1      -4.378  -4.787  20.472  0.00  0.00    +0.000 A 
ATOM     44  C   UNL     1      -4.759  -5.891  19.702  0.00  0.00    +0.000 A 
ATOM     45  C   UNL     1      -6.102  -6.199  19.501  0.00  0.00    +0.000 A 
ATOM     46  C   UNL     1      -7.105  -5.410  20.072  0.00  0.00    +0.000 A 
ATOM     47  C   UNL     1      -6.746  -4.299  20.864  0.00  0.00    +0.000 A 
ATOM     48  H   UNL     1      -6.710  -1.613  22.830  0.00  0.00    +0.000 HD
ATOM     49  H   UNL     1      -4.457  -2.457  22.131  0.00  0.00    +0.000 HD
ATOM     50  H   UNL     1      -3.331  -4.551  20.625  0.00  0.00    +0.000 HD
ATOM     51  H   UNL     1      -3.993  -6.518  19.252  0.00  0.00    +0.000 HD
ATOM     52  H   UNL     1      -6.378  -7.063  18.901  0.00  0.00    +0.000 HD
ATOM     53  H   UNL     1      -8.148  -5.661  19.911  0.00  0.00    +0.000 HD
ENDBRANCH  36  39
ENDBRANCH  31  36
ENDBRANCH  28  31
ENDBRANCH   1  28
TORSDOF 8
ENDMDL
MODEL 2
REMARK VINA RESULT:   -11.457      2.665      4.355
REMARK INTER + INTRA:         -18.302
REMARK INTER:                 -17.536
REMARK INTRA:                  -0.765
REMARK UNBOUND:                -1.821
REMARK  Name = 
REMARK  8 active torsions:
REMARK  status: ('A' for Active; 'I' for Inactive)
REMARK    1  A    between atoms: N_1  and  C_2
REMARK    2  A    between atoms: C_2  and  C_3
REMARK    3  A    between atoms: C_2  and  C_24
REMARK    4  A    between atoms: C_3  and  O_4
REMARK    5  A    between atoms: O_4  and  C_5
REMARK    6  A    between atoms: C_9  and  C_10
REMARK    7  A    between atoms: C_16  and  C_17
REMARK    8  A    between atoms: C_24  and  C_25
REMARK                            x       y       z     vdW  Elec       q    Type
REMARK                         _______ _______ _______ _____ _____    ______ ____
ROOT
ATOM      1  O   UNL     1      -8.082  -5.683  20.283  0.00  0.00    +0.000 OA
ENDROOT
BRANCH   1   2
ATOM      2  C   UNL     1      -8.681  -6.038  19.110  0.00  0.00    +0.000 A 
ATOM      3  C   UNL     1      -9.526  -5.103  18.531  0.00  0.00    +0.000 A 
ATOM      4  N   UNL     1     -10.212  -5.308  17.383  0.00  0.00    +0.000 NA
ATOM      5  C   UNL     1     -10.049  -6.515  16.790  0.00  0.00    +0.000 A 
ATOM      6  C   UNL     1      -9.224  -7.539  17.265  0.00  0.00    +0.000 A 
ATOM      7  C   UNL     1      -8.523  -7.254  18.448  0.00  0.00    +0.000 A 
ATOM      8  H   UNL     1      -9.682  -4.132  18.992  0.00  0.00    +0.000 HD
ATOM      9  H   UNL     1     -10.642  -6.639  15.888  0.00  0.00    +0.000 HD
ATOM     10  H   UNL     1      -7.842  -8.001  18.842  0.00  0.00    +0.000 HD
BRANCH   6  11
ATOM     11  C   UNL     1      -9.092  -8.849  16.586  0.00  0.00    +0.000 A 
ATOM     12  C   UNL     1      -9.112  -8.957  15.184  0.00  0.00    +0.000 A 
ATOM     13  C   UNL     1      -8.990 -10.185  14.519  0.00  0.00    +0.000 A 
ATOM     14  C   UNL     1      -8.823 -11.324  15.308  0.00  0.00    +0.000 A 
ATOM     15  N   UNL     1      -8.668 -12.643  14.984  0.00  0.00    +0.000 N 
ATOM     16  N   UNL     1      -8.519 -13.458  16.040  0.00  0.00    +0.000 NA
ATOM     17  C   UNL     1      -8.587 -12.632  17.106  0.00  0.00    +0.000 A 
ATOM     18  C   UNL     1      -8.785 -11.281  16.693  0.00  0.00    +0.000 A 
ATOM     19  C   UNL     1      -8.933 -10.037  17.337  0.00  0.00    +0.000 A 
ATOM     20  H   UNL     1      -9.212  -8.064  14.568  0.00  0.00    +0.000 HD
ATOM     21  H   UNL     1      -9.014 -10.236  13.435  0.00  0.00    +0.000 HD
ATOM     22  H   UNL     1      -8.651 -13.051  14.055  0.00  0.00    +0.000 HD
ATOM     23  H   UNL     1      -8.928 -10.010  18.424  0.00  0.00    +0.000 HD
BRANCH  17  24
ATOM     24  C   UNL     1      -8.454 -13.106  18.525  0.00  0.00    +0.000 C 
ATOM     25  F   UNL     1      -9.368 -14.048  18.882  0.00  0.00    +0.000 F 
ATOM     26  F   UNL     1      -7.227 -13.650  18.761  0.00  0.00    +0.000 F 
ATOM     27  F   UNL     1      -8.587 -12.081  19.413  0.00  0.00    +0.000 F 
ENDBRANCH  17  24
ENDBRANCH   6  11
ENDBRANCH   1   2
BRANCH   1  28
ATOM     28  C   UNL     1      -6.945  -4.814  20.182  0.00  0.00    +0.000 C 
ATOM     29  H   UNL     1      -7.081  -4.120  19.341  0.00  0.00    +0.000 HD
ATOM     30  H   UNL     1      -6.035  -5.407  20.021  0.00  0.00    +0.000 HD
BRANCH  28  31
ATOM     31  C   UNL     1      -6.782  -4.007  21.483  0.00  0.00    +0.000 C 
ATOM     32  H   UNL     1      -6.744  -4.716  22.319  0.00  0.00    +0.000 HD
BRANCH  31  33
ATOM     33  N   UNL     1      -5.481  -3.305  21.456  0.00  0.00    +0.000 NA
ATOM     34  H   UNL     1      -5.427  -2.684  22.266  0.00  0.00    +0.000 HD
ATOM     35  H   UNL     1      -5.466  -2.689  20.642  0.00  0.00    +0.000 HD
ENDBRANCH  31  33
BRANCH  31  36
ATOM     36  C   UNL     1      -7.993  -3.064  21.681  0.00  0.00    +0.000 C 
ATOM     37  H   UNL     1      -8.870  -3.501  21.184  0.00  0.00    +0.000 HD
ATOM     38  H   UNL     1      -7.817  -2.099  21.190  0.00  0.00    +0.000 HD
BRANCH  36  39
ATOM     39  C   UNL     1      -8.326  -2.825  23.121  0.00  0.00    +0.000 A 
ATOM     40  C   UNL     1      -8.492  -3.781  24.103  0.00  0.00    +0.000 A 
ATOM     41  N   UNL     1      -8.745  -3.139  25.286  0.00  0.00    +0.000 N 
ATOM     42  C   UNL     1      -8.747  -1.776  25.098  0.00  0.00    +0.000 A 
ATOM     43  C   UNL     1      -8.937  -0.736  26.016  0.00  0.00    +0.000 A 
ATOM     44  C   UNL     1      -8.876   0.575  25.531  0.00  0.00    +0.000 A 
ATOM     45  C   UNL     1      -8.646   0.833  24.182  0.00  0.00    +0.000 A 
ATOM     46  C   UNL     1      -8.465  -0.219  23.278  0.00  0.00    +0.000 A 
ATOM     47  C   UNL     1      -8.509  -1.549  23.745  0.00  0.00    +0.000 A 
ATOM     48  H   UNL     1      -8.439  -4.861  24.065  0.00  0.00    +0.000 HD
ATOM     49  H   UNL     1      -8.896  -3.593  26.177  0.00  0.00    +0.000 HD
ATOM     50  H   UNL     1      -9.117  -0.932  27.067  0.00  0.00    +0.000 HD
ATOM     51  H   UNL     1      -9.011   1.405  26.219  0.00  0.00    +0.000 HD
ATOM     52  H   UNL     1      -8.600   1.859  23.825  0.00  0.00    +0.000 HD
ATOM     53  H   UNL     1      -8.283  -0.006  22.230  0.00  0.00    +0.000 HD
ENDBRANCH  36  39
ENDBRANCH  31  36
ENDBRANCH  28  31
ENDBRANCH   1  28
TORSDOF 8
ENDMDL
MODEL 3
REMARK VINA RESULT:   -11.348      2.340      3.701
REMARK INTER + INTRA:         -18.144
REMARK INTER:                 -17.200
REMARK INTRA:                  -0.944
REMARK UNBOUND:                -1.821
REMARK  Name = 
REMARK  8 active torsions:
REMARK  status: ('A' for Active; 'I' for Inactive)
REMARK    1  A    between atoms: N_1  and  C_2
REMARK    2  A    between atoms: C_2  and  C_3
REMARK    3  A    between atoms: C_2  and  C_24
REMARK    4  A    between atoms: C_3  and  O_4
REMARK    5  A    between atoms: O_4  and  C_5
REMARK    6  A    between atoms: C_9  and  C_10
REMARK    7  A    between atoms: C_16  and  C_17
REMARK    8  A    between atoms: C_24  and  C_25
REMARK                            x       y       z     vdW  Elec       q    Type
REMARK                         _______ _______ _______ _____ _____    ______ ____
ROOT
ATOM      1  O   UNL     1      -9.225  -2.902  19.289  0.00  0.00    +0.000 OA
ENDROOT
BRANCH   1   2
ATOM      2  C   UNL     1      -9.601  -3.990  18.555  0.00  0.00    +0.000 A 
ATOM      3  C   UNL     1     -10.435  -3.755  17.472  0.00  0.00    +0.000 A 
ATOM      4  N   UNL     1     -10.915  -4.725  16.660  0.00  0.00    +0.000 NA
ATOM      5  C   UNL     1     -10.547  -5.995  16.955  0.00  0.00    +0.000 A 
ATOM      6  C   UNL     1      -9.709  -6.365  18.011  0.00  0.00    +0.000 A 
ATOM      7  C   UNL     1      -9.228  -5.309  18.801  0.00  0.00    +0.000 A 
ATOM      8  H   UNL     1     -10.752  -2.747  17.222  0.00  0.00    +0.000 HD
ATOM      9  H   UNL     1     -10.982  -6.737  16.291  0.00  0.00    +0.000 HD
ATOM     10  H   UNL     1      -8.545  -5.537  19.613  0.00  0.00    +0.000 HD
BRANCH   6  11
ATOM     11  C   UNL     1      -9.349  -7.772  18.300  0.00  0.00    +0.000 A 
ATOM     12  C   UNL     1      -9.080  -8.208  19.610  0.00  0.00    +0.000 A 
ATOM     13  C   UNL     1      -8.736  -9.535  19.909  0.00  0.00    +0.000 A 
ATOM     14  C   UNL     1      -8.686 -10.436  18.845  0.00  0.00    +0.000 A 
ATOM     15  N   UNL     1      -8.400 -11.771  18.794  0.00  0.00    +0.000 N 
ATOM     16  N   UNL     1      -8.469 -12.306  17.564  0.00  0.00    +0.000 NA
ATOM     17  C   UNL     1      -8.810 -11.267  16.772  0.00  0.00    +0.000 A 
ATOM     18  C   UNL     1      -8.950 -10.069  17.534  0.00  0.00    +0.000 A 
ATOM     19  C   UNL     1      -9.271  -8.725  17.258  0.00  0.00    +0.000 A 
ATOM     20  H   UNL     1      -9.150  -7.511  20.444  0.00  0.00    +0.000 HD
ATOM     21  H   UNL     1      -8.531  -9.839  20.930  0.00  0.00    +0.000 HD
ATOM     22  H   UNL     1      -8.153 -12.378  19.569  0.00  0.00    +0.000 HD
ATOM     23  H   UNL     1      -9.452  -8.435  16.226  0.00  0.00    +0.000 HD
BRANCH  17  24
ATOM     24  C   UNL     1      -9.018 -11.395  15.290  0.00  0.00    +0.000 C 
ATOM     25  F   UNL     1     -10.044 -10.643  14.809  0.00  0.00    +0.000 F 
ATOM     26  F   UNL     1      -7.908 -11.026  14.593  0.00  0.00    +0.000 F 
ATOM     27  F   UNL     1      -9.278 -12.682  14.928  0.00  0.00    +0.000 F 
ENDBRANCH  17  24
ENDBRANCH   6  11
ENDBRANCH   1   2
BRANCH   1  28
ATOM     28  C   UNL     1      -9.793  -1.643  18.901  0.00  0.00    +0.000 C 
ATOM     29  H   UNL     1     -10.886  -1.681  19.003  0.00  0.00    +0.000 HD
ATOM     30  H   UNL     1      -9.532  -1.421  17.858  0.00  0.00    +0.000 HD
BRANCH  28  31
ATOM     31  C   UNL     1      -9.241  -0.518  19.795  0.00  0.00    +0.000 C 
ATOM     32  H   UNL     1      -8.459  -0.947  20.435  0.00  0.00    +0.000 HD
BRANCH  31  33
ATOM     33  N   UNL     1      -8.589   0.500  18.945  0.00  0.00    +0.000 NA
ATOM     34  H   UNL     1      -8.849   1.427  19.285  0.00  0.00    +0.000 HD
ATOM     35  H   UNL     1      -8.986   0.435  18.007  0.00  0.00    +0.000 HD
ENDBRANCH  31  33
BRANCH  31  36
ATOM     36  C   UNL     1     -10.365   0.051  20.694  0.00  0.00    +0.000 C 
ATOM     37  H   UNL     1     -11.214   0.342  20.060  0.00  0.00    +0.000 HD
ATOM     38  H   UNL     1     -10.034   0.968  21.195  0.00  0.00    +0.000 HD
BRANCH  36  39
ATOM     39  C   UNL     1     -10.847  -0.922  21.724  0.00  0.00    +0.000 A 
ATOM     40  C   UNL     1     -11.882  -1.826  21.593  0.00  0.00    +0.000 A 
ATOM     41  N   UNL     1     -11.965  -2.553  22.750  0.00  0.00    +0.000 N 
ATOM     42  C   UNL     1     -11.000  -2.144  23.640  0.00  0.00    +0.000 A 
ATOM     43  C   UNL     1     -10.697  -2.611  24.925  0.00  0.00    +0.000 A 
ATOM     44  C   UNL     1      -9.638  -1.999  25.604  0.00  0.00    +0.000 A 
ATOM     45  C   UNL     1      -8.920  -0.955  25.025  0.00  0.00    +0.000 A 
ATOM     46  C   UNL     1      -9.242  -0.496  23.744  0.00  0.00    +0.000 A 
ATOM     47  C   UNL     1     -10.296  -1.106  23.034  0.00  0.00    +0.000 A 
ATOM     48  H   UNL     1     -12.559  -2.022  20.771  0.00  0.00    +0.000 HD
ATOM     49  H   UNL     1     -12.628  -3.295  22.928  0.00  0.00    +0.000 HD
ATOM     50  H   UNL     1     -11.253  -3.423  25.380  0.00  0.00    +0.000 HD
ATOM     51  H   UNL     1      -9.372  -2.343  26.600  0.00  0.00    +0.000 HD
ATOM     52  H   UNL     1      -8.099  -0.494  25.569  0.00  0.00    +0.000 HD
ATOM     53  H   UNL     1      -8.674   0.316  23.302  0.00  0.00    +0.000 HD
ENDBRANCH  36  39
ENDBRANCH  31  36
ENDBRANCH  28  31
ENDBRANCH   1  28
TORSDOF 8
ENDMDL
MODEL 4
REMARK VINA RESULT:   -11.233      1.738      2.855
REMARK INTER + INTRA:         -17.980
REMARK INTER:                 -16.881
REMARK INTRA:                  -1.099
REMARK UNBOUND:                -1.821
REMARK  Name = 
REMARK  8 active torsions:
REMARK  status: ('A' for Active; 'I' for Inactive)
REMARK    1  A    between atoms: N_1  and  C_2
REMARK    2  A    between atoms: C_2  and  C_3
REMARK    3  A    between atoms: C_2  and  C_24
REMARK    4  A    between atoms: C_3  and  O_4
REMARK    5  A    between atoms: O_4  and  C_5
REMARK    6  A    between atoms: C_9  and  C_10
REMARK    7  A    between atoms: C_16  and  C_17
REMARK    8  A    between atoms: C_24  and  C_25
REMARK                            x       y       z     vdW  Elec       q    Type
REMARK                         _______ _______ _______ _____ _____    ______ ____
ROOT
ATOM      1  O   UNL     1     -11.570  -3.638  18.777  0.00  0.00    +0.000 OA
ENDROOT
BRANCH   1   2
ATOM      2  C   UNL     1     -10.947  -4.563  17.990  0.00  0.00    +0.000 A 
ATOM      3  C   UNL     1     -10.753  -4.223  16.659  0.00  0.00    +0.000 A 
ATOM      4  N   UNL     1     -10.174  -5.035  15.745  0.00  0.00    +0.000 NA
ATOM      5  C   UNL     1      -9.779  -6.254  16.186  0.00  0.00    +0.000 A 
ATOM      6  C   UNL     1      -9.910  -6.715  17.498  0.00  0.00    +0.000 A 
ATOM      7  C   UNL     1     -10.498  -5.816  18.402  0.00  0.00    +0.000 A 
ATOM      8  H   UNL     1     -11.071  -3.256  16.280  0.00  0.00    +0.000 HD
ATOM      9  H   UNL     1      -9.346  -6.877  15.407  0.00  0.00    +0.000 HD
ATOM     10  H   UNL     1     -10.593  -6.110  19.442  0.00  0.00    +0.000 HD
BRANCH   6  11
ATOM     11  C   UNL     1      -9.474  -8.065  17.927  0.00  0.00    +0.000 A 
ATOM     12  C   UNL     1      -9.210  -8.359  19.277  0.00  0.00    +0.000 A 
ATOM     13  C   UNL     1      -8.795  -9.628  19.706  0.00  0.00    +0.000 A 
ATOM     14  C   UNL     1      -8.668 -10.620  18.734  0.00  0.00    +0.000 A 
ATOM     15  N   UNL     1      -8.303 -11.935  18.816  0.00  0.00    +0.000 N 
ATOM     16  N   UNL     1      -8.312 -12.586  17.641  0.00  0.00    +0.000 NA
ATOM     17  C   UNL     1      -8.695 -11.648  16.748  0.00  0.00    +0.000 A 
ATOM     18  C   UNL     1      -8.922 -10.395  17.390  0.00  0.00    +0.000 A 
ATOM     19  C   UNL     1      -9.316  -9.105  16.982  0.00  0.00    +0.000 A 
ATOM     20  H   UNL     1      -9.339  -7.591  20.039  0.00  0.00    +0.000 HD
ATOM     21  H   UNL     1      -8.596  -9.822  20.756  0.00  0.00    +0.000 HD
ATOM     22  H   UNL     1      -8.038 -12.450  19.649  0.00  0.00    +0.000 HD
ATOM     23  H   UNL     1      -9.490  -8.925  15.924  0.00  0.00    +0.000 HD
BRANCH  17  24
ATOM     24  C   UNL     1      -8.861 -11.927  15.282  0.00  0.00    +0.000 C 
ATOM     25  F   UNL     1      -9.222 -13.207  14.999  0.00  0.00    +0.000 F 
ATOM     26  F   UNL     1      -9.810 -11.126  14.722  0.00  0.00    +0.000 F 
ATOM     27  F   UNL     1      -7.712 -11.687  14.590  0.00  0.00    +0.000 F 
ENDBRANCH  17  24
ENDBRANCH   6  11
ENDBRANCH   1   2
BRANCH   1  28
ATOM     28  C   UNL     1     -11.106  -2.285  18.660  0.00  0.00    +0.000 C 
ATOM     29  H   UNL     1     -11.698  -1.753  17.903  0.00  0.00    +0.000 HD
ATOM     30  H   UNL     1     -10.048  -2.277  18.366  0.00  0.00    +0.000 HD
BRANCH  28  31
ATOM     31  C   UNL     1     -11.246  -1.562  20.012  0.00  0.00    +0.000 C 
ATOM     32  H   UNL     1     -11.851  -0.662  19.853  0.00  0.00    +0.000 HD
BRANCH  31  33
ATOM     33  N   UNL     1     -11.996  -2.425  20.947  0.00  0.00    +0.000 NA
ATOM     34  H   UNL     1     -12.336  -1.852  21.722  0.00  0.00    +0.000 HD
ATOM     35  H   UNL     1     -11.343  -3.088  21.366  0.00  0.00    +0.000 HD
ENDBRANCH  31  33
BRANCH  31  36
ATOM     36  C   UNL     1      -9.852  -1.141  20.537  0.00  0.00    +0.000 C 
ATOM     37  H   UNL     1      -9.959  -0.227  21.137  0.00  0.00    +0.000 HD
ATOM     38  H   UNL     1      -9.186  -0.880  19.705  0.00  0.00    +0.000 HD
BRANCH  36  39
ATOM     39  C   UNL     1      -9.195  -2.192  21.377  0.00  0.00    +0.000 A 
ATOM     40  C   UNL     1      -8.460  -3.272  20.929  0.00  0.00    +0.000 A 
ATOM     41  N   UNL     1      -8.003  -3.960  22.021  0.00  0.00    +0.000 N 
ATOM     42  C   UNL     1      -8.425  -3.352  23.179  0.00  0.00    +0.000 A 
ATOM     43  C   UNL     1      -8.184  -3.686  24.517  0.00  0.00    +0.000 A 
ATOM     44  C   UNL     1      -8.745  -2.865  25.502  0.00  0.00    +0.000 A 
ATOM     45  C   UNL     1      -9.524  -1.762  25.160  0.00  0.00    +0.000 A 
ATOM     46  C   UNL     1      -9.760  -1.447  23.818  0.00  0.00    +0.000 A 
ATOM     47  C   UNL     1      -9.195  -2.252  22.808  0.00  0.00    +0.000 A 
ATOM     48  H   UNL     1      -8.211  -3.601  19.928  0.00  0.00    +0.000 HD
ATOM     49  H   UNL     1      -7.426  -4.790  21.989  0.00  0.00    +0.000 HD
ATOM     50  H   UNL     1      -7.579  -4.544  24.788  0.00  0.00    +0.000 HD
ATOM     51  H   UNL     1      -8.571  -3.093  26.550  0.00  0.00    +0.000 HD
ATOM     52  H   UNL     1      -9.949  -1.135  25.940  0.00  0.00    +0.000 HD
ATOM     53  H   UNL     1     -10.366  -0.584  23.564  0.00  0.00    +0.000 HD
ENDBRANCH  36  39
ENDBRANCH  31  36
ENDBRANCH  28  31
ENDBRANCH   1  28
TORSDOF 8
ENDMDL
MODEL 5
REMARK VINA RESULT:   -11.203      4.834      9.664
REMARK INTER + INTRA:         -17.936
REMARK INTER:                 -17.117
REMARK INTRA:                  -0.820
REMARK UNBOUND:                -1.821
REMARK  Name = 
REMARK  8 active torsions:
REMARK  status: ('A' for Active; 'I' for Inactive)
REMARK    1  A    between atoms: N_1  and  C_2
REMARK    2  A    between atoms: C_2  and  C_3
REMARK    3  A    between atoms: C_2  and  C_24
REMARK    4  A    between atoms: C_3  and  O_4
REMARK    5  A    between atoms: O_4  and  C_5
REMARK    6  A    between atoms: C_9  and  C_10
REMARK    7  A    between atoms: C_16  and  C_17
REMARK    8  A    between atoms: C_24  and  C_25
REMARK                            x       y       z     vdW  Elec       q    Type
REMARK                         _______ _______ _______ _____ _____    ______ ____
ROOT
ATOM      1  O   UNL     1      -9.617  -6.094  17.170  0.00  0.00    +0.000 OA
ENDROOT
BRANCH   1   2
ATOM      2  C   UNL     1      -8.977  -5.581  18.260  0.00  0.00    +0.000 A 
ATOM      3  C   UNL     1      -7.977  -6.359  18.822  0.00  0.00    +0.000 A 
ATOM      4  N   UNL     1      -7.264  -6.005  19.916  0.00  0.00    +0.000 NA
ATOM      5  C   UNL     1      -7.577  -4.813  20.480  0.00  0.00    +0.000 A 
ATOM      6  C   UNL     1      -8.555  -3.934  20.009  0.00  0.00    +0.000 A 
ATOM      7  C   UNL     1      -9.243  -4.351  18.857  0.00  0.00    +0.000 A 
ATOM      8  H   UNL     1      -7.715  -7.323  18.395  0.00  0.00    +0.000 HD
ATOM      9  H   UNL     1      -6.996  -4.589  21.370  0.00  0.00    +0.000 HD
ATOM     10  H   UNL     1      -9.989  -3.690  18.430  0.00  0.00    +0.000 HD
BRANCH   6  11
ATOM     11  C   UNL     1      -8.870  -2.647  20.671  0.00  0.00    +0.000 A 
ATOM     12  C   UNL     1      -9.141  -1.483  19.928  0.00  0.00    +0.000 A 
ATOM     13  C   UNL     1      -9.440  -0.254  20.533  0.00  0.00    +0.000 A 
ATOM     14  C   UNL     1      -9.482  -0.222  21.927  0.00  0.00    +0.000 A 
ATOM     15  N   UNL     1      -9.746   0.790  22.808  0.00  0.00    +0.000 N 
ATOM     16  N   UNL     1      -9.705   0.423  24.099  0.00  0.00    +0.000 NA
ATOM     17  C   UNL     1      -9.391  -0.889  24.059  0.00  0.00    +0.000 A 
ATOM     18  C   UNL     1      -9.233  -1.336  22.714  0.00  0.00    +0.000 A 
ATOM     19  C   UNL     1      -8.913  -2.553  22.082  0.00  0.00    +0.000 A 
ATOM     20  H   UNL     1      -9.138  -1.517  18.839  0.00  0.00    +0.000 HD
ATOM     21  H   UNL     1      -9.641   0.628  19.931  0.00  0.00    +0.000 HD
ATOM     22  H   UNL     1      -9.967   1.755  22.589  0.00  0.00    +0.000 HD
ATOM     23  H   UNL     1      -8.694  -3.419  22.702  0.00  0.00    +0.000 HD
BRANCH  17  24
ATOM     24  C   UNL     1      -9.246  -1.739  25.289  0.00  0.00    +0.000 C 
ATOM     25  F   UNL     1     -10.387  -2.382  25.654  0.00  0.00    +0.000 F 
ATOM     26  F   UNL     1      -8.296  -2.701  25.127  0.00  0.00    +0.000 F 
ATOM     27  F   UNL     1      -8.855  -1.002  26.367  0.00  0.00    +0.000 F 
ENDBRANCH  17  24
ENDBRANCH   6  11
ENDBRANCH   1   2
BRANCH   1  28
ATOM     28  C   UNL     1      -8.941  -7.149  16.471  0.00  0.00    +0.000 C 
ATOM     29  H   UNL     1      -7.985  -7.370  16.964  0.00  0.00    +0.000 HD
ATOM     30  H   UNL     1      -8.753  -6.848  15.431  0.00  0.00    +0.000 HD
BRANCH  28  31
ATOM     31  C   UNL     1      -9.811  -8.419  16.464  0.00  0.00    +0.000 C 
ATOM     32  H   UNL     1     -10.036  -8.682  17.504  0.00  0.00    +0.000 HD
BRANCH  31  33
ATOM     33  N   UNL     1     -11.102  -8.118  15.809  0.00  0.00    +0.000 NA
ATOM     34  H   UNL     1     -11.547  -7.342  16.303  0.00  0.00    +0.000 HD
ATOM     35  H   UNL     1     -11.723  -8.916  15.943  0.00  0.00    +0.000 HD
ENDBRANCH  31  33
BRANCH  31  36
ATOM     36  C   UNL     1      -9.041  -9.591  15.808  0.00  0.00    +0.000 C 
ATOM     37  H   UNL     1      -8.040  -9.241  15.520  0.00  0.00    +0.000 HD
ATOM     38  H   UNL     1      -9.531  -9.904  14.878  0.00  0.00    +0.000 HD
BRANCH  36  39
ATOM     39  C   UNL     1      -8.895 -10.778  16.707  0.00  0.00    +0.000 A 
ATOM     40  C   UNL     1      -8.851 -10.773  18.087  0.00  0.00    +0.000 A 
ATOM     41  N   UNL     1      -8.754 -12.070  18.516  0.00  0.00    +0.000 N 
ATOM     42  C   UNL     1      -8.734 -12.928  17.442  0.00  0.00    +0.000 A 
ATOM     43  C   UNL     1      -8.668 -14.326  17.400  0.00  0.00    +0.000 A 
ATOM     44  C   UNL     1      -8.674 -14.938  16.142  0.00  0.00    +0.000 A 
ATOM     45  C   UNL     1      -8.732 -14.181  14.975  0.00  0.00    +0.000 A 
ATOM     46  C   UNL     1      -8.791 -12.785  15.034  0.00  0.00    +0.000 A 
ATOM     47  C   UNL     1      -8.800 -12.146  16.291  0.00  0.00    +0.000 A 
ATOM     48  H   UNL     1      -8.893  -9.960  18.801  0.00  0.00    +0.000 HD
ATOM     49  H   UNL     1      -8.715 -12.364  19.483  0.00  0.00    +0.000 HD
ATOM     50  H   UNL     1      -8.622 -14.919  18.307  0.00  0.00    +0.000 HD
ATOM     51  H   UNL     1      -8.632 -16.022  16.075  0.00  0.00    +0.000 HD
ATOM     52  H   UNL     1      -8.738 -14.676  14.006  0.00  0.00    +0.000 HD
ATOM     53  H   UNL     1      -8.839 -12.206  14.118  0.00  0.00    +0.000 HD
ENDBRANCH  36  39
ENDBRANCH  31  36
ENDBRANCH  28  31
ENDBRANCH   1  28
TORSDOF 8
ENDMDL
MODEL 6
REMARK VINA RESULT:   -11.083      4.166      9.085
REMARK INTER + INTRA:         -17.764
REMARK INTER:                 -16.705
REMARK INTRA:                  -1.059
REMARK UNBOUND:                -1.821
REMARK  Name = 
REMARK  8 active torsions:
REMARK  status: ('A' for Active; 'I' for Inactive)
REMARK    1  A    between atoms: N_1  and  C_2
REMARK    2  A    between atoms: C_2  and  C_3
REMARK    3  A    between atoms: C_2  and  C_24
REMARK    4  A    between atoms: C_3  and  O_4
REMARK    5  A    between atoms: O_4  and  C_5
REMARK    6  A    between atoms: C_9  and  C_10
REMARK    7  A    between atoms: C_16  and  C_17
REMARK    8  A    between atoms: C_24  and  C_25
REMARK                            x       y       z     vdW  Elec       q    Type
REMARK                         _______ _______ _______ _____ _____    ______ ____
ROOT
ATOM      1  O   UNL     1      -8.370  -6.398  18.274  0.00  0.00    +0.000 OA
ENDROOT
BRANCH   1   2
ATOM      2  C   UNL     1      -7.649  -5.651  19.159  0.00  0.00    +0.000 A 
ATOM      3  C   UNL     1      -6.332  -6.030  19.371  0.00  0.00    +0.000 A 
ATOM      4  N   UNL     1      -5.492  -5.410  20.231  0.00  0.00    +0.000 NA
ATOM      5  C   UNL     1      -6.003  -4.362  20.921  0.00  0.00    +0.000 A 
ATOM      6  C   UNL     1      -7.307  -3.876  20.797  0.00  0.00    +0.000 A 
ATOM      7  C   UNL     1      -8.120  -4.550  19.871  0.00  0.00    +0.000 A 
ATOM      8  H   UNL     1      -5.903  -6.874  18.837  0.00  0.00    +0.000 HD
ATOM      9  H   UNL     1      -5.297  -3.917  21.618  0.00  0.00    +0.000 HD
ATOM     10  H   UNL     1      -9.131  -4.192  19.710  0.00  0.00    +0.000 HD
BRANCH   6  11
ATOM     11  C   UNL     1      -7.822  -2.733  21.587  0.00  0.00    +0.000 A 
ATOM     12  C   UNL     1      -7.029  -2.093  22.557  0.00  0.00    +0.000 A 
ATOM     13  C   UNL     1      -7.494  -1.011  23.318  0.00  0.00    +0.000 A 
ATOM     14  C   UNL     1      -8.792  -0.564  23.065  0.00  0.00    +0.000 A 
ATOM     15  N   UNL     1      -9.529   0.450  23.610  0.00  0.00    +0.000 N 
ATOM     16  N   UNL     1     -10.758   0.583  23.087  0.00  0.00    +0.000 NA
ATOM     17  C   UNL     1     -10.829  -0.396  22.160  0.00  0.00    +0.000 A 
ATOM     18  C   UNL     1      -9.618  -1.147  22.117  0.00  0.00    +0.000 A 
ATOM     19  C   UNL     1      -9.134  -2.247  21.382  0.00  0.00    +0.000 A 
ATOM     20  H   UNL     1      -6.006  -2.423  22.732  0.00  0.00    +0.000 HD
ATOM     21  H   UNL     1      -6.859  -0.540  24.062  0.00  0.00    +0.000 HD
ATOM     22  H   UNL     1      -9.246   1.091  24.344  0.00  0.00    +0.000 HD
ATOM     23  H   UNL     1      -9.793  -2.718  20.656  0.00  0.00    +0.000 HD
BRANCH  17  24
ATOM     24  C   UNL     1     -12.036  -0.626  21.296  0.00  0.00    +0.000 C 
ATOM     25  F   UNL     1     -11.952  -0.057  20.064  0.00  0.00    +0.000 F 
ATOM     26  F   UNL     1     -12.264  -1.954  21.093  0.00  0.00    +0.000 F 
ATOM     27  F   UNL     1     -13.169  -0.135  21.874  0.00  0.00    +0.000 F 
ENDBRANCH  17  24
ENDBRANCH   6  11
ENDBRANCH   1   2
BRANCH   1  28
ATOM     28  C   UNL     1      -9.797  -6.263  18.339  0.00  0.00    +0.000 C 
ATOM     29  H   UNL     1     -10.129  -5.482  17.641  0.00  0.00    +0.000 HD
ATOM     30  H   UNL     1     -10.101  -5.992  19.359  0.00  0.00    +0.000 HD
BRANCH  28  31
ATOM     31  C   UNL     1     -10.470  -7.596  17.964  0.00  0.00    +0.000 C 
ATOM     32  H   UNL     1     -10.593  -8.183  18.882  0.00  0.00    +0.000 HD
BRANCH  31  33
ATOM     33  N   UNL     1     -11.827  -7.323  17.444  0.00  0.00    +0.000 NA
ATOM     34  H   UNL     1     -11.750  -6.704  16.635  0.00  0.00    +0.000 HD
ATOM     35  H   UNL     1     -12.337  -6.786  18.147  0.00  0.00    +0.000 HD
ENDBRANCH  31  33
BRANCH  31  36
ATOM     36  C   UNL     1      -9.576  -8.387  16.980  0.00  0.00    +0.000 C 
ATOM     37  H   UNL     1      -8.685  -7.787  16.748  0.00  0.00    +0.000 HD
ATOM     38  H   UNL     1     -10.093  -8.541  16.024  0.00  0.00    +0.000 HD
BRANCH  36  39
ATOM     39  C   UNL     1      -9.136  -9.713  17.517  0.00  0.00    +0.000 A 
ATOM     40  C   UNL     1      -8.873 -10.028  18.835  0.00  0.00    +0.000 A 
ATOM     41  N   UNL     1      -8.542 -11.355  18.900  0.00  0.00    +0.000 N 
ATOM     42  C   UNL     1      -8.583 -11.918  17.646  0.00  0.00    +0.000 A 
ATOM     43  C   UNL     1      -8.345 -13.236  17.237  0.00  0.00    +0.000 A 
ATOM     44  C   UNL     1      -8.472 -13.525  15.874  0.00  0.00    +0.000 A 
ATOM     45  C   UNL     1      -8.813 -12.534  14.958  0.00  0.00    +0.000 A 
ATOM     46  C   UNL     1      -9.041 -11.221  15.383  0.00  0.00    +0.000 A 
ATOM     47  C   UNL     1      -8.932 -10.908  16.754  0.00  0.00    +0.000 A 
ATOM     48  H   UNL     1      -8.905  -9.426  19.734  0.00  0.00    +0.000 HD
ATOM     49  H   UNL     1      -8.311 -11.859  19.745  0.00  0.00    +0.000 HD
ATOM     50  H   UNL     1      -8.078 -14.012  17.947  0.00  0.00    +0.000 HD
ATOM     51  H   UNL     1      -8.301 -14.540  15.525  0.00  0.00    +0.000 HD
ATOM     52  H   UNL     1      -8.909 -12.779  13.903  0.00  0.00    +0.000 HD
ATOM     53  H   UNL     1      -9.309 -10.457  14.661  0.00  0.00    +0.000 HD
ENDBRANCH  36  39
ENDBRANCH  31  36
ENDBRANCH  28  31
ENDBRANCH   1  28
TORSDOF 8
ENDMDL
MODEL 7
REMARK VINA RESULT:   -11.049      2.730      4.498
REMARK INTER + INTRA:         -17.714
REMARK INTER:                 -16.664
REMARK INTRA:                  -1.050
REMARK UNBOUND:                -1.821
REMARK  Name = 
REMARK  8 active torsions:
REMARK  status: ('A' for Active; 'I' for Inactive)
REMARK    1  A    between atoms: N_1  and  C_2
REMARK    2  A    between atoms: C_2  and  C_3
REMARK    3  A    between atoms: C_2  and  C_24
REMARK    4  A    between atoms: C_3  and  O_4
REMARK    5  A    between atoms: O_4  and  C_5
REMARK    6  A    between atoms: C_9  and  C_10
REMARK    7  A    between atoms: C_16  and  C_17
REMARK    8  A    between atoms: C_24  and  C_25
REMARK                            x       y       z     vdW  Elec       q    Type
REMARK                         _______ _______ _______ _____ _____    ______ ____
ROOT
ATOM      1  O   UNL     1      -7.916  -3.384  20.628  0.00  0.00    +0.000 OA
ENDROOT
BRANCH   1   2
ATOM      2  C   UNL     1      -8.501  -4.287  19.789  0.00  0.00    +0.000 A 
ATOM      3  C   UNL     1      -9.375  -3.782  18.838  0.00  0.00    +0.000 A 
ATOM      4  N   UNL     1     -10.052  -4.544  17.948  0.00  0.00    +0.000 NA
ATOM      5  C   UNL     1      -9.848  -5.881  18.023  0.00  0.00    +0.000 A 
ATOM      6  C   UNL     1      -8.992  -6.515  18.927  0.00  0.00    +0.000 A 
ATOM      7  C   UNL     1      -8.303  -5.665  19.808  0.00  0.00    +0.000 A 
ATOM      8  H   UNL     1      -9.562  -2.714  18.765  0.00  0.00    +0.000 HD
ATOM      9  H   UNL     1     -10.435  -6.450  17.306  0.00  0.00    +0.000 HD
ATOM     10  H   UNL     1      -7.599  -6.103  20.508  0.00  0.00    +0.000 HD
BRANCH   6  11
ATOM     11  C   UNL     1      -8.816  -7.985  18.978  0.00  0.00    +0.000 A 
ATOM     12  C   UNL     1      -8.551  -8.653  20.187  0.00  0.00    +0.000 A 
ATOM     13  C   UNL     1      -8.380 -10.044  20.260  0.00  0.00    +0.000 A 
ATOM     14  C   UNL     1      -8.502 -10.764  19.071  0.00  0.00    +0.000 A 
ATOM     15  N   UNL     1      -8.405 -12.101  18.803  0.00  0.00    +0.000 N 
ATOM     16  N   UNL     1      -8.603 -12.422  17.513  0.00  0.00    +0.000 NA
ATOM     17  C   UNL     1      -8.833 -11.236  16.911  0.00  0.00    +0.000 A 
ATOM     18  C   UNL     1      -8.772 -10.165  17.851  0.00  0.00    +0.000 A 
ATOM     19  C   UNL     1      -8.917  -8.764  17.802  0.00  0.00    +0.000 A 
ATOM     20  H   UNL     1      -8.486  -8.093  21.119  0.00  0.00    +0.000 HD
ATOM     21  H   UNL     1      -8.172 -10.529  21.208  0.00  0.00    +0.000 HD
ATOM     22  H   UNL     1      -8.210 -12.849  19.459  0.00  0.00    +0.000 HD
ATOM     23  H   UNL     1      -9.103  -8.294  16.839  0.00  0.00    +0.000 HD
BRANCH  17  24
ATOM     24  C   UNL     1      -9.123 -11.100  15.443  0.00  0.00    +0.000 C 
ATOM     25  F   UNL     1     -10.238 -10.374  15.165  0.00  0.00    +0.000 F 
ATOM     26  F   UNL     1      -8.096 -10.500  14.780  0.00  0.00    +0.000 F 
ATOM     27  F   UNL     1      -9.294 -12.315  14.850  0.00  0.00    +0.000 F 
ENDBRANCH  17  24
ENDBRANCH   6  11
ENDBRANCH   1   2
BRANCH   1  28
ATOM     28  C   UNL     1      -7.605  -3.849  21.950  0.00  0.00    +0.000 C 
ATOM     29  H   UNL     1      -6.549  -3.650  22.176  0.00  0.00    +0.000 HD
ATOM     30  H   UNL     1      -7.795  -4.929  22.020  0.00  0.00    +0.000 HD
BRANCH  28  31
ATOM     31  C   UNL     1      -8.489  -3.128  22.984  0.00  0.00    +0.000 C 
ATOM     32  H   UNL     1      -9.492  -3.019  22.554  0.00  0.00    +0.000 HD
BRANCH  31  33
ATOM     33  N   UNL     1      -8.626  -3.982  24.182  0.00  0.00    +0.000 NA
ATOM     34  H   UNL     1      -7.906  -4.707  24.153  0.00  0.00    +0.000 HD
ATOM     35  H   UNL     1      -9.514  -4.481  24.121  0.00  0.00    +0.000 HD
ENDBRANCH  31  33
BRANCH  31  36
ATOM     36  C   UNL     1      -7.918  -1.722  23.285  0.00  0.00    +0.000 C 
ATOM     37  H   UNL     1      -7.021  -1.563  22.671  0.00  0.00    +0.000 HD
ATOM     38  H   UNL     1      -7.586  -1.654  24.329  0.00  0.00    +0.000 HD
BRANCH  36  39
ATOM     39  C   UNL     1      -8.892  -0.618  23.009  0.00  0.00    +0.000 A 
ATOM     40  C   UNL     1      -9.766  -0.530  21.944  0.00  0.00    +0.000 A 
ATOM     41  N   UNL     1     -10.506   0.613  22.092  0.00  0.00    +0.000 N 
ATOM     42  C   UNL     1     -10.133   1.277  23.237  0.00  0.00    +0.000 A 
ATOM     43  C   UNL     1     -10.625   2.463  23.796  0.00  0.00    +0.000 A 
ATOM     44  C   UNL     1     -10.049   2.902  24.993  0.00  0.00    +0.000 A 
ATOM     45  C   UNL     1      -9.017   2.190  25.599  0.00  0.00    +0.000 A 
ATOM     46  C   UNL     1      -8.533   1.011  25.022  0.00  0.00    +0.000 A 
ATOM     47  C   UNL     1      -9.106   0.541  23.823  0.00  0.00    +0.000 A 
ATOM     48  H   UNL     1      -9.934  -1.188  21.102  0.00  0.00    +0.000 HD
ATOM     49  H   UNL     1     -11.232   0.924  21.462  0.00  0.00    +0.000 HD
ATOM     50  H   UNL     1     -11.428   3.022  23.328  0.00  0.00    +0.000 HD
ATOM     51  H   UNL     1     -10.413   3.815  25.458  0.00  0.00    +0.000 HD
ATOM     52  H   UNL     1      -8.585   2.547  26.530  0.00  0.00    +0.000 HD
ATOM     53  H   UNL     1      -7.731   0.463  25.505  0.00  0.00    +0.000 HD
ENDBRANCH  36  39
ENDBRANCH  31  36
ENDBRANCH  28  31
ENDBRANCH   1  28
TORSDOF 8
ENDMDL
MODEL 8
REMARK VINA RESULT:   -10.807      5.573     10.100
REMARK INTER + INTRA:         -17.366
REMARK INTER:                 -16.315
REMARK INTRA:                  -1.051
REMARK UNBOUND:                -1.821
REMARK  Name = 
REMARK  8 active torsions:
REMARK  status: ('A' for Active; 'I' for Inactive)
REMARK    1  A    between atoms: N_1  and  C_2
REMARK    2  A    between atoms: C_2  and  C_3
REMARK    3  A    between atoms: C_2  and  C_24
REMARK    4  A    between atoms: C_3  and  O_4
REMARK    5  A    between atoms: O_4  and  C_5
REMARK    6  A    between atoms: C_9  and  C_10
REMARK    7  A    between atoms: C_16  and  C_17
REMARK    8  A    between atoms: C_24  and  C_25
REMARK                            x       y       z     vdW  Elec       q    Type
REMARK                         _______ _______ _______ _____ _____    ______ ____
ROOT
ATOM      1  O   UNL     1      -7.647  -5.791  19.385  0.00  0.00    +0.000 OA
ENDROOT
BRANCH   1   2
ATOM      2  C   UNL     1      -7.423  -4.750  20.238  0.00  0.00    +0.000 A 
ATOM      3  C   UNL     1      -6.218  -4.752  20.926  0.00  0.00    +0.000 A 
ATOM      4  N   UNL     1      -5.855  -3.808  21.823  0.00  0.00    +0.000 NA
ATOM      5  C   UNL     1      -6.748  -2.814  22.048  0.00  0.00    +0.000 A 
ATOM      6  C   UNL     1      -7.990  -2.691  21.418  0.00  0.00    +0.000 A 
ATOM      7  C   UNL     1      -8.296  -3.692  20.482  0.00  0.00    +0.000 A 
ATOM      8  H   UNL     1      -5.490  -5.544  20.770  0.00  0.00    +0.000 HD
ATOM      9  H   UNL     1      -6.420  -2.097  22.796  0.00  0.00    +0.000 HD
ATOM     10  H   UNL     1      -9.233  -3.626  19.939  0.00  0.00    +0.000 HD
BRANCH   6  11
ATOM     11  C   UNL     1      -8.938  -1.592  21.711  0.00  0.00    +0.000 A 
ATOM     12  C   UNL     1     -10.110  -1.410  20.954  0.00  0.00    +0.000 A 
ATOM     13  C   UNL     1     -11.022  -0.376  21.211  0.00  0.00    +0.000 A 
ATOM     14  C   UNL     1     -10.737   0.475  22.280  0.00  0.00    +0.000 A 
ATOM     15  N   UNL     1     -11.408   1.550  22.793  0.00  0.00    +0.000 N 
ATOM     16  N   UNL     1     -10.814   2.116  23.856  0.00  0.00    +0.000 NA
ATOM     17  C   UNL     1      -9.699   1.379  24.042  0.00  0.00    +0.000 A 
ATOM     18  C   UNL     1      -9.605   0.340  23.069  0.00  0.00    +0.000 A 
ATOM     19  C   UNL     1      -8.693  -0.693  22.774  0.00  0.00    +0.000 A 
ATOM     20  H   UNL     1     -10.346  -2.093  20.139  0.00  0.00    +0.000 HD
ATOM     21  H   UNL     1     -11.915  -0.259  20.606  0.00  0.00    +0.000 HD
ATOM     22  H   UNL     1     -12.282   1.945  22.463  0.00  0.00    +0.000 HD
ATOM     23  H   UNL     1      -7.794  -0.780  23.379  0.00  0.00    +0.000 HD
BRANCH  17  24
ATOM     24  C   UNL     1      -8.714   1.639  25.146  0.00  0.00    +0.000 C 
ATOM     25  F   UNL     1      -9.059   2.670  25.963  0.00  0.00    +0.000 F 
ATOM     26  F   UNL     1      -8.555   0.548  25.946  0.00  0.00    +0.000 F 
ATOM     27  F   UNL     1      -7.475   1.930  24.657  0.00  0.00    +0.000 F 
ENDBRANCH  17  24
ENDBRANCH   6  11
ENDBRANCH   1   2
BRANCH   1  28
ATOM     28  C   UNL     1      -8.730  -5.634  18.457  0.00  0.00    +0.000 C 
ATOM     29  H   UNL     1      -8.347  -5.671  17.428  0.00  0.00    +0.000 HD
ATOM     30  H   UNL     1      -9.229  -4.670  18.625  0.00  0.00    +0.000 HD
BRANCH  28  31
ATOM     31  C   UNL     1      -9.760  -6.760  18.654  0.00  0.00    +0.000 C 
ATOM     32  H   UNL     1      -9.546  -7.252  19.611  0.00  0.00    +0.000 HD
BRANCH  31  33
ATOM     33  N   UNL     1     -11.109  -6.167  18.770  0.00  0.00    +0.000 NA
ATOM     34  H   UNL     1     -11.057  -5.181  18.509  0.00  0.00    +0.000 HD
ATOM     35  H   UNL     1     -11.378  -6.173  19.754  0.00  0.00    +0.000 HD
ENDBRANCH  31  33
BRANCH  31  36
ATOM     36  C   UNL     1      -9.635  -7.803  17.517  0.00  0.00    +0.000 C 
ATOM     37  H   UNL     1      -8.918  -7.432  16.771  0.00  0.00    +0.000 HD
ATOM     38  H   UNL     1     -10.590  -7.915  16.988  0.00  0.00    +0.000 HD
BRANCH  36  39
ATOM     39  C   UNL     1      -9.181  -9.146  17.995  0.00  0.00    +0.000 A 
ATOM     40  C   UNL     1      -8.893  -9.510  19.295  0.00  0.00    +0.000 A 
ATOM     41  N   UNL     1      -8.555 -10.837  19.302  0.00  0.00    +0.000 N 
ATOM     42  C   UNL     1      -8.616 -11.352  18.029  0.00  0.00    +0.000 A 
ATOM     43  C   UNL     1      -8.379 -12.652  17.566  0.00  0.00    +0.000 A 
ATOM     44  C   UNL     1      -8.528 -12.888  16.195  0.00  0.00    +0.000 A 
ATOM     45  C   UNL     1      -8.890 -11.864  15.323  0.00  0.00    +0.000 A 
ATOM     46  C   UNL     1      -9.116 -10.570  15.803  0.00  0.00    +0.000 A 
ATOM     47  C   UNL     1      -8.984 -10.310  17.182  0.00  0.00    +0.000 A 
ATOM     48  H   UNL     1      -8.912  -8.943  20.217  0.00  0.00    +0.000 HD
ATOM     49  H   UNL     1      -8.307 -11.373  20.124  0.00  0.00    +0.000 HD
ATOM     50  H   UNL     1      -8.096 -13.453  18.240  0.00  0.00    +0.000 HD
ATOM     51  H   UNL     1      -8.359 -13.888  15.804  0.00  0.00    +0.000 HD
ATOM     52  H   UNL     1      -9.003 -12.069  14.262  0.00  0.00    +0.000 HD
ATOM     53  H   UNL     1      -9.400  -9.780  15.115  0.00  0.00    +0.000 HD
ENDBRANCH  36  39
ENDBRANCH  31  36
ENDBRANCH  28  31
ENDBRANCH   1  28
TORSDOF 8
ENDMDL
MODEL 9
REMARK VINA RESULT:   -10.761      3.617      8.036
REMARK INTER + INTRA:         -17.300
REMARK INTER:                 -16.101
REMARK INTRA:                  -1.199
REMARK UNBOUND:                -1.821
REMARK  Name = 
REMARK  8 active torsions:
REMARK  status: ('A' for Active; 'I' for Inactive)
REMARK    1  A    between atoms: N_1  and  C_2
REMARK    2  A    between atoms: C_2  and  C_3
REMARK    3  A    between atoms: C_2  and  C_24
REMARK    4  A    between atoms: C_3  and  O_4
REMARK    5  A    between atoms: O_4  and  C_5
REMARK    6  A    between atoms: C_9  and  C_10
REMARK    7  A    between atoms: C_16  and  C_17
REMARK    8  A    between atoms: C_24  and  C_25
REMARK                            x       y       z     vdW  Elec       q    Type
REMARK                         _______ _______ _______ _____ _____    ______ ____
ROOT
ATOM      1  O   UNL     1     -10.588  -5.916  15.958  0.00  0.00    +0.000 OA
ENDROOT
BRANCH   1   2
ATOM      2  C   UNL     1     -10.827  -4.638  16.372  0.00  0.00    +0.000 A 
ATOM      3  C   UNL     1     -11.576  -3.836  15.524  0.00  0.00    +0.000 A 
ATOM      4  N   UNL     1     -11.881  -2.542  15.776  0.00  0.00    +0.000 NA
ATOM      5  C   UNL     1     -11.401  -2.024  16.933  0.00  0.00    +0.000 A 
ATOM      6  C   UNL     1     -10.642  -2.725  17.874  0.00  0.00    +0.000 A 
ATOM      7  C   UNL     1     -10.380  -4.069  17.562  0.00  0.00    +0.000 A 
ATOM      8  H   UNL     1     -11.963  -4.225  14.587  0.00  0.00    +0.000 HD
ATOM      9  H   UNL     1     -11.650  -0.976  17.074  0.00  0.00    +0.000 HD
ATOM     10  H   UNL     1      -9.824  -4.669  18.275  0.00  0.00    +0.000 HD
BRANCH   6  11
ATOM     11  C   UNL     1     -10.128  -2.107  19.118  0.00  0.00    +0.000 A 
ATOM     12  C   UNL     1     -10.699  -0.936  19.648  0.00  0.00    +0.000 A 
ATOM     13  C   UNL     1     -10.229  -0.332  20.824  0.00  0.00    +0.000 A 
ATOM     14  C   UNL     1      -9.166  -0.953  21.479  0.00  0.00    +0.000 A 
ATOM     15  N   UNL     1      -8.493  -0.637  22.626  0.00  0.00    +0.000 N 
ATOM     16  N   UNL     1      -7.517  -1.502  22.950  0.00  0.00    +0.000 NA
ATOM     17  C   UNL     1      -7.551  -2.422  21.963  0.00  0.00    +0.000 A 
ATOM     18  C   UNL     1      -8.567  -2.113  21.012  0.00  0.00    +0.000 A 
ATOM     19  C   UNL     1      -9.044  -2.687  19.817  0.00  0.00    +0.000 A 
ATOM     20  H   UNL     1     -11.549  -0.469  19.152  0.00  0.00    +0.000 HD
ATOM     21  H   UNL     1     -10.689   0.574  21.205  0.00  0.00    +0.000 HD
ATOM     22  H   UNL     1      -8.655   0.156  23.237  0.00  0.00    +0.000 HD
ATOM     23  H   UNL     1      -8.556  -3.582  19.439  0.00  0.00    +0.000 HD
BRANCH  17  24
ATOM     24  C   UNL     1      -6.632  -3.609  21.913  0.00  0.00    +0.000 C 
ATOM     25  F   UNL     1      -5.481  -3.389  21.224  0.00  0.00    +0.000 F 
ATOM     26  F   UNL     1      -6.265  -4.014  23.161  0.00  0.00    +0.000 F 
ATOM     27  F   UNL     1      -7.232  -4.686  21.331  0.00  0.00    +0.000 F 
ENDBRANCH  17  24
ENDBRANCH   6  11
ENDBRANCH   1   2
BRANCH   1  28
ATOM     28  C   UNL     1      -9.253  -6.206  15.520  0.00  0.00    +0.000 C 
ATOM     29  H   UNL     1      -8.671  -5.277  15.458  0.00  0.00    +0.000 HD
ATOM     30  H   UNL     1      -9.279  -6.685  14.532  0.00  0.00    +0.000 HD
BRANCH  28  31
ATOM     31  C   UNL     1      -8.570  -7.166  16.511  0.00  0.00    +0.000 C 
ATOM     32  H   UNL     1      -7.997  -7.900  15.932  0.00  0.00    +0.000 HD
BRANCH  31  33
ATOM     33  N   UNL     1      -7.596  -6.408  17.325  0.00  0.00    +0.000 NA
ATOM     34  H   UNL     1      -8.108  -5.829  17.994  0.00  0.00    +0.000 HD
ATOM     35  H   UNL     1      -7.111  -5.750  16.714  0.00  0.00    +0.000 HD
ENDBRANCH  31  33
BRANCH  31  36
ATOM     36  C   UNL     1      -9.635  -7.912  17.351  0.00  0.00    +0.000 C 
ATOM     37  H   UNL     1     -10.538  -8.048  16.741  0.00  0.00    +0.000 HD
ATOM     38  H   UNL     1      -9.941  -7.307  18.214  0.00  0.00    +0.000 HD
BRANCH  36  39
ATOM     39  C   UNL     1      -9.174  -9.252  17.834  0.00  0.00    +0.000 A 
ATOM     40  C   UNL     1      -8.863  -9.604  19.132  0.00  0.00    +0.000 A 
ATOM     41  N   UNL     1      -8.527 -10.931  19.146  0.00  0.00    +0.000 N 
ATOM     42  C   UNL     1      -8.612 -11.458  17.879  0.00  0.00    +0.000 A 
ATOM     43  C   UNL     1      -8.386 -12.763  17.424  0.00  0.00    +0.000 A 
ATOM     44  C   UNL     1      -8.561 -13.012  16.059  0.00  0.00    +0.000 A 
ATOM     45  C   UNL     1      -8.937 -11.996  15.184  0.00  0.00    +0.000 A 
ATOM     46  C   UNL     1      -9.152 -10.696  15.655  0.00  0.00    +0.000 A 
ATOM     47  C   UNL     1      -8.995 -10.423  17.029  0.00  0.00    +0.000 A 
ATOM     48  H   UNL     1      -8.864  -9.028  20.049  0.00  0.00    +0.000 HD
ATOM     49  H   UNL     1      -8.265 -11.459  19.968  0.00  0.00    +0.000 HD
ATOM     50  H   UNL     1      -8.093 -13.558  18.101  0.00  0.00    +0.000 HD
ATOM     51  H   UNL     1      -8.401 -14.016  15.674  0.00  0.00    +0.000 HD
ATOM     52  H   UNL     1      -9.070 -12.211  14.127  0.00  0.00    +0.000 HD
ATOM     53  H   UNL     1      -9.447  -9.913  14.965  0.00  0.00    +0.000 HD
ENDBRANCH  36  39
ENDBRANCH  31  36
ENDBRANCH  28  31
ENDBRANCH   1  28
TORSDOF 8
ENDMDL
