MODEL 1
REMARK VINA RESULT:   -11.230      0.000      0.000
REMARK INTER + INTRA:         -16.260
REMARK INTER:                 -15.498
REMARK INTRA:                  -0.763
REMARK UNBOUND:                -0.763
REMARK  Name = 
REMARK  7 active torsions:
REMARK  status: ('A' for Active; 'I' for Inactive)
REMARK    1  A    between atoms: N_1  and  C_2
REMARK    2  A    between atoms: C_2  and  C_3
REMARK    3  A    between atoms: C_2  and  C_21
REMARK    4  A    between atoms: C_3  and  O_4
REMARK    5  A    between atoms: O_4  and  C_5
REMARK    6  A    between atoms: C_9  and  C_10
REMARK    7  A    between atoms: C_21  and  C_22
REMARK                            x       y       z     vdW  Elec       q    Type
REMARK                         _______ _______ _______ _____ _____    ______ ____
ROOT
ATOM      1  O   UNL     1     -10.095  -9.432  16.828  0.00  0.00    +0.000 OA
ENDROOT
BRANCH   1   2
ATOM      2  C   UNL     1      -9.874  -8.144  17.218  0.00  0.00    +0.000 A 
ATOM      3  C   UNL     1     -10.661  -7.170  16.608  0.00  0.00    +0.000 A 
ATOM      4  N   UNL     1     -10.560  -5.841  16.849  0.00  0.00    +0.000 NA
ATOM      5  C   UNL     1      -9.598  -5.463  17.726  0.00  0.00    +0.000 A 
ATOM      6  C   UNL     1      -8.741  -6.337  18.395  0.00  0.00    +0.000 A 
ATOM      7  C   UNL     1      -8.918  -7.706  18.133  0.00  0.00    +0.000 A 
ATOM      8  H   UNL     1     -11.411  -7.446  15.873  0.00  0.00    +0.000 HD
ATOM      9  H   UNL     1      -9.510  -4.386  17.837  0.00  0.00    +0.000 HD
ATOM     10  H   UNL     1      -8.258  -8.407  18.633  0.00  0.00    +0.000 HD
BRANCH   6  11
ATOM     11  C   UNL     1      -7.617  -5.850  19.211  0.00  0.00    +0.000 A 
ATOM     12  C   UNL     1      -7.785  -5.089  20.368  0.00  0.00    +0.000 A 
ATOM     13  C   UNL     1      -6.637  -4.469  20.885  0.00  0.00    +0.000 A 
ATOM     14  C   UNL     1      -6.309  -3.629  21.975  0.00  0.00    +0.000 A 
ATOM     15 CL   UNL     1      -7.346  -3.157  23.227  0.00  0.00    +0.000 Cl
ATOM     16  N   UNL     1      -5.038  -3.218  21.950  0.00  0.00    +0.000 NA
ATOM     17  N   UNL     1      -4.535  -3.832  20.868  0.00  0.00    +0.000 N 
ATOM     18  C   UNL     1      -5.423  -4.656  20.234  0.00  0.00    +0.000 A 
ATOM     19  C   UNL     1      -5.284  -5.519  19.168  0.00  0.00    +0.000 A 
ATOM     20  N   UNL     1      -6.394  -6.106  18.670  0.00  0.00    +0.000 NA
ATOM     21  H   UNL     1      -8.757  -4.930  20.819  0.00  0.00    +0.000 HD
ATOM     22  H   UNL     1      -3.575  -3.633  20.603  0.00  0.00    +0.000 HD
ATOM     23  H   UNL     1      -4.345  -5.742  18.677  0.00  0.00    +0.000 HD
ENDBRANCH   6  11
ENDBRANCH   1   2
BRANCH   1  24
ATOM     24  C   UNL     1     -10.662  -9.615  15.522  0.00  0.00    +0.000 C 
ATOM     25  H   UNL     1     -10.959  -8.639  15.118  0.00  0.00    +0.000 HD
ATOM     26  H   UNL     1     -11.550 -10.257  15.576  0.00  0.00    +0.000 HD
BRANCH  24  27
ATOM     27  C   UNL     1      -9.629 -10.269  14.577  0.00  0.00    +0.000 C 
ATOM     28  H   UNL     1     -10.131 -11.086  14.045  0.00  0.00    +0.000 HD
BRANCH  27  29
ATOM     29  N   UNL     1      -9.199  -9.286  13.559  0.00  0.00    +0.000 NA
ATOM     30  H   UNL     1      -8.507  -8.655  13.955  0.00  0.00    +0.000 HD
ATOM     31  H   UNL     1     -10.005  -8.711  13.306  0.00  0.00    +0.000 HD
ENDBRANCH  27  29
BRANCH  27  32
ATOM     32  C   UNL     1      -8.399 -10.831  15.324  0.00  0.00    +0.000 C 
ATOM     33  H   UNL     1      -8.115 -10.175  16.161  0.00  0.00    +0.000 HD
ATOM     34  H   UNL     1      -7.527 -10.829  14.652  0.00  0.00    +0.000 HD
BRANCH  32  35
ATOM     35  C   UNL     1      -8.581 -12.244  15.830  0.00  0.00    +0.000 A 
ATOM     36  C   UNL     1      -8.612 -12.510  17.207  0.00  0.00    +0.000 A 
ATOM     37  C   UNL     1      -8.776 -13.818  17.669  0.00  0.00    +0.000 A 
ATOM     38  C   UNL     1      -8.896 -14.871  16.762  0.00  0.00    +0.000 A 
ATOM     39  C   UNL     1      -8.863 -14.612  15.392  0.00  0.00    +0.000 A 
ATOM     40  C   UNL     1      -8.707 -13.310  14.929  0.00  0.00    +0.000 A 
ATOM     41  H   UNL     1      -8.514 -11.700  17.925  0.00  0.00    +0.000 HD
ATOM     42  H   UNL     1      -8.808 -14.017  18.737  0.00  0.00    +0.000 HD
ATOM     43  H   UNL     1      -9.018 -15.890  17.123  0.00  0.00    +0.000 HD
ATOM     44  H   UNL     1      -8.958 -15.436  14.682  0.00  0.00    +0.000 HD
ATOM     45  H   UNL     1      -8.680 -13.129  13.855  0.00  0.00    +0.000 HD
ENDBRANCH  32  35
ENDBRANCH  27  32
ENDBRANCH  24  27
ENDBRANCH   1  24
TORSDOF 7
ENDMDL
MODEL 2
REMARK VINA RESULT:   -10.657      2.766      4.518
REMARK INTER + INTRA:         -15.470
REMARK INTER:                 -14.832
REMARK INTRA:                  -0.638
REMARK UNBOUND:                -0.763
REMARK  Name = 
REMARK  7 active torsions:
REMARK  status: ('A' for Active; 'I' for Inactive)
REMARK    1  A    between atoms: N_1  and  C_2
REMARK    2  A    between atoms: C_2  and  C_3
REMARK    3  A    between atoms: C_2  and  C_21
REMARK    4  A    between atoms: C_3  and  O_4
REMARK    5  A    between atoms: O_4  and  C_5
REMARK    6  A    between atoms: C_9  and  C_10
REMARK    7  A    between atoms: C_21  and  C_22
REMARK                            x       y       z     vdW  Elec       q    Type
REMARK                         _______ _______ _______ _____ _____    ______ ____
ROOT
ATOM      1  O   UNL     1      -7.250  -6.580  18.105  0.00  0.00    +0.000 OA
ENDROOT
BRANCH   1   2
ATOM      2  C   UNL     1      -6.737  -5.766  19.071  0.00  0.00    +0.000 A 
ATOM      3  C   UNL     1      -5.362  -5.848  19.282  0.00  0.00    +0.000 A 
ATOM      4  N   UNL     1      -4.686  -5.139  20.217  0.00  0.00    +0.000 NA
ATOM      5  C   UNL     1      -5.430  -4.326  21.005  0.00  0.00    +0.000 A 
ATOM      6  C   UNL     1      -6.812  -4.162  20.903  0.00  0.00    +0.000 A 
ATOM      7  C   UNL     1      -7.452  -4.895  19.890  0.00  0.00    +0.000 A 
ATOM      8  H   UNL     1      -4.751  -6.522  18.689  0.00  0.00    +0.000 HD
ATOM      9  H   UNL     1      -4.856  -3.829  21.783  0.00  0.00    +0.000 HD
ATOM     10  H   UNL     1      -8.529  -4.793  19.795  0.00  0.00    +0.000 HD
BRANCH   6  11
ATOM     11  C   UNL     1      -7.577  -3.385  21.891  0.00  0.00    +0.000 A 
ATOM     12  C   UNL     1      -7.476  -3.586  23.267  0.00  0.00    +0.000 A 
ATOM     13  C   UNL     1      -8.454  -2.974  24.066  0.00  0.00    +0.000 A 
ATOM     14  C   UNL     1      -8.772  -2.891  25.442  0.00  0.00    +0.000 A 
ATOM     15 CL   UNL     1      -7.853  -3.504  26.725  0.00  0.00    +0.000 Cl
ATOM     16  N   UNL     1      -9.918  -2.242  25.672  0.00  0.00    +0.000 NA
ATOM     17  N   UNL     1     -10.314  -1.868  24.446  0.00  0.00    +0.000 N 
ATOM     18  C   UNL     1      -9.439  -2.208  23.452  0.00  0.00    +0.000 A 
ATOM     19  C   UNL     1      -9.423  -1.935  22.101  0.00  0.00    +0.000 A 
ATOM     20  N   UNL     1      -8.484  -2.534  21.336  0.00  0.00    +0.000 NA
ATOM     21  H   UNL     1      -6.720  -4.228  23.703  0.00  0.00    +0.000 HD
ATOM     22  H   UNL     1     -11.206  -1.391  24.351  0.00  0.00    +0.000 HD
ATOM     23  H   UNL     1     -10.133  -1.291  21.596  0.00  0.00    +0.000 HD
ENDBRANCH   6  11
ENDBRANCH   1   2
BRANCH   1  24
ATOM     24  C   UNL     1      -8.638  -6.922  18.229  0.00  0.00    +0.000 C 
ATOM     25  H   UNL     1      -9.154  -6.683  17.290  0.00  0.00    +0.000 HD
ATOM     26  H   UNL     1      -9.103  -6.349  19.041  0.00  0.00    +0.000 HD
BRANCH  24  27
ATOM     27  C   UNL     1      -8.793  -8.430  18.529  0.00  0.00    +0.000 C 
ATOM     28  H   UNL     1      -7.807  -8.897  18.418  0.00  0.00    +0.000 HD
BRANCH  27  29
ATOM     29  N   UNL     1      -9.206  -8.614  19.936  0.00  0.00    +0.000 NA
ATOM     30  H   UNL     1      -9.017  -7.769  20.469  0.00  0.00    +0.000 HD
ATOM     31  H   UNL     1      -8.630  -9.352  20.347  0.00  0.00    +0.000 HD
ENDBRANCH  27  29
BRANCH  27  32
ATOM     32  C   UNL     1      -9.795  -9.132  17.586  0.00  0.00    +0.000 C 
ATOM     33  H   UNL     1     -10.098  -8.462  16.766  0.00  0.00    +0.000 HD
ATOM     34  H   UNL     1     -10.725  -9.351  18.133  0.00  0.00    +0.000 HD
BRANCH  32  35
ATOM     35  C   UNL     1      -9.288 -10.435  17.011  0.00  0.00    +0.000 A 
ATOM     36  C   UNL     1      -8.924 -11.494  17.854  0.00  0.00    +0.000 A 
ATOM     37  C   UNL     1      -8.452 -12.693  17.317  0.00  0.00    +0.000 A 
ATOM     38  C   UNL     1      -8.326 -12.840  15.936  0.00  0.00    +0.000 A 
ATOM     39  C   UNL     1      -8.683 -11.789  15.092  0.00  0.00    +0.000 A 
ATOM     40  C   UNL     1      -9.160 -10.596  15.623  0.00  0.00    +0.000 A 
ATOM     41  H   UNL     1      -9.013 -11.392  18.933  0.00  0.00    +0.000 HD
ATOM     42  H   UNL     1      -8.180 -13.514  17.977  0.00  0.00    +0.000 HD
ATOM     43  H   UNL     1      -7.952 -13.773  15.519  0.00  0.00    +0.000 HD
ATOM     44  H   UNL     1      -8.584 -11.904  14.011  0.00  0.00    +0.000 HD
ATOM     45  H   UNL     1      -9.430  -9.785  14.948  0.00  0.00    +0.000 HD
ENDBRANCH  32  35
ENDBRANCH  27  32
ENDBRANCH  24  27
ENDBRANCH   1  24
TORSDOF 7
ENDMDL
MODEL 3
REMARK VINA RESULT:   -10.655      3.318      9.383
REMARK INTER + INTRA:         -15.467
REMARK INTER:                 -14.763
REMARK INTRA:                  -0.704
REMARK UNBOUND:                -0.763
REMARK  Name = 
REMARK  7 active torsions:
REMARK  status: ('A' for Active; 'I' for Inactive)
REMARK    1  A    between atoms: N_1  and  C_2
REMARK    2  A    between atoms: C_2  and  C_3
REMARK    3  A    between atoms: C_2  and  C_21
REMARK    4  A    between atoms: C_3  and  O_4
REMARK    5  A    between atoms: O_4  and  C_5
REMARK    6  A    between atoms: C_9  and  C_10
REMARK    7  A    between atoms: C_21  and  C_22
REMARK                            x       y       z     vdW  Elec       q    Type
REMARK                         _______ _______ _______ _____ _____    ______ ____
ROOT
ATOM      1  O   UNL     1      -7.713  -5.697  20.436  0.00  0.00    +0.000 OA
ENDROOT
BRANCH   1   2
ATOM      2  C   UNL     1      -8.367  -6.040  19.290  0.00  0.00    +0.000 A 
ATOM      3  C   UNL     1      -9.190  -5.063  18.732  0.00  0.00    +0.000 A 
ATOM      4  N   UNL     1      -9.937  -5.235  17.616  0.00  0.00    +0.000 NA
ATOM      5  C   UNL     1      -9.882  -6.462  17.042  0.00  0.00    +0.000 A 
ATOM      6  C   UNL     1      -9.107  -7.525  17.506  0.00  0.00    +0.000 A 
ATOM      7  C   UNL     1      -8.324  -7.275  18.646  0.00  0.00    +0.000 A 
ATOM      8  H   UNL     1      -9.281  -4.086  19.197  0.00  0.00    +0.000 HD
ATOM      9  H   UNL     1     -10.547  -6.574  16.191  0.00  0.00    +0.000 HD
ATOM     10  H   UNL     1      -7.719  -8.088  19.033  0.00  0.00    +0.000 HD
BRANCH   6  11
ATOM     11  C   UNL     1      -9.215  -8.875  16.929  0.00  0.00    +0.000 A 
ATOM     12  C   UNL     1      -8.985 -10.040  17.660  0.00  0.00    +0.000 A 
ATOM     13  C   UNL     1      -8.854 -11.228  16.924  0.00  0.00    +0.000 A 
ATOM     14  C   UNL     1      -8.615 -12.597  17.191  0.00  0.00    +0.000 A 
ATOM     15 CL   UNL     1      -8.525 -13.322  18.719  0.00  0.00    +0.000 Cl
ATOM     16  N   UNL     1      -8.470 -13.325  16.080  0.00  0.00    +0.000 NA
ATOM     17  N   UNL     1      -8.659 -12.432  15.097  0.00  0.00    +0.000 N 
ATOM     18  C   UNL     1      -8.971 -11.177  15.540  0.00  0.00    +0.000 A 
ATOM     19  C   UNL     1      -9.325 -10.022  14.874  0.00  0.00    +0.000 A 
ATOM     20  N   UNL     1      -9.441  -8.881  15.586  0.00  0.00    +0.000 NA
ATOM     21  H   UNL     1      -8.854 -10.031  18.735  0.00  0.00    +0.000 HD
ATOM     22  H   UNL     1      -8.547 -12.741  14.136  0.00  0.00    +0.000 HD
ATOM     23  H   UNL     1      -9.490  -9.957  13.805  0.00  0.00    +0.000 HD
ENDBRANCH   6  11
ENDBRANCH   1   2
BRANCH   1  24
ATOM     24  C   UNL     1      -6.558  -4.859  20.285  0.00  0.00    +0.000 C 
ATOM     25  H   UNL     1      -6.669  -4.251  19.377  0.00  0.00    +0.000 HD
ATOM     26  H   UNL     1      -5.651  -5.469  20.189  0.00  0.00    +0.000 HD
BRANCH  24  27
ATOM     27  C   UNL     1      -6.408  -3.929  21.509  0.00  0.00    +0.000 C 
ATOM     28  H   UNL     1      -6.451  -4.551  22.411  0.00  0.00    +0.000 HD
BRANCH  27  29
ATOM     29  N   UNL     1      -5.074  -3.291  21.485  0.00  0.00    +0.000 NA
ATOM     30  H   UNL     1      -4.348  -3.999  21.555  0.00  0.00    +0.000 HD
ATOM     31  H   UNL     1      -4.984  -2.700  22.315  0.00  0.00    +0.000 HD
ENDBRANCH  27  29
BRANCH  27  32
ATOM     32  C   UNL     1      -7.510  -2.849  21.585  0.00  0.00    +0.000 C 
ATOM     33  H   UNL     1      -8.351  -3.100  20.920  0.00  0.00    +0.000 HD
ATOM     34  H   UNL     1      -7.118  -1.894  21.202  0.00  0.00    +0.000 HD
BRANCH  32  35
ATOM     35  C   UNL     1      -8.030  -2.599  22.982  0.00  0.00    +0.000 A 
ATOM     36  C   UNL     1      -8.428  -1.314  23.377  0.00  0.00    +0.000 A 
ATOM     37  C   UNL     1      -8.903  -1.089  24.670  0.00  0.00    +0.000 A 
ATOM     38  C   UNL     1      -8.973  -2.140  25.584  0.00  0.00    +0.000 A 
ATOM     39  C   UNL     1      -8.575  -3.420  25.198  0.00  0.00    +0.000 A 
ATOM     40  C   UNL     1      -8.109  -3.649  23.908  0.00  0.00    +0.000 A 
ATOM     41  H   UNL     1      -8.375  -0.484  22.677  0.00  0.00    +0.000 HD
ATOM     42  H   UNL     1      -9.219  -0.091  24.968  0.00  0.00    +0.000 HD
ATOM     43  H   UNL     1      -9.338  -1.962  26.593  0.00  0.00    +0.000 HD
ATOM     44  H   UNL     1      -8.631  -4.244  25.913  0.00  0.00    +0.000 HD
ATOM     45  H   UNL     1      -7.799  -4.655  23.627  0.00  0.00    +0.000 HD
ENDBRANCH  32  35
ENDBRANCH  27  32
ENDBRANCH  24  27
ENDBRANCH   1  24
TORSDOF 7
ENDMDL
MODEL 4
REMARK VINA RESULT:   -10.551      2.694      4.433
REMARK INTER + INTRA:         -15.323
REMARK INTER:                 -14.643
REMARK INTRA:                  -0.680
REMARK UNBOUND:                -0.763
REMARK  Name = 
REMARK  7 active torsions:
REMARK  status: ('A' for Active; 'I' for Inactive)
REMARK    1  A    between atoms: N_1  and  C_2
REMARK    2  A    between atoms: C_2  and  C_3
REMARK    3  A    between atoms: C_2  and  C_21
REMARK    4  A    between atoms: C_3  and  O_4
REMARK    5  A    between atoms: O_4  and  C_5
REMARK    6  A    between atoms: C_9  and  C_10
REMARK    7  A    between atoms: C_21  and  C_22
REMARK                            x       y       z     vdW  Elec       q    Type
REMARK                         _______ _______ _______ _____ _____    ______ ____
ROOT
ATOM      1  O   UNL     1      -7.929  -6.932  18.341  0.00  0.00    +0.000 OA
ENDROOT
BRANCH   1   2
ATOM      2  C   UNL     1      -7.305  -6.025  19.146  0.00  0.00    +0.000 A 
ATOM      3  C   UNL     1      -5.912  -6.032  19.121  0.00  0.00    +0.000 A 
ATOM      4  N   UNL     1      -5.127  -5.225  19.874  0.00  0.00    +0.000 NA
ATOM      5  C   UNL     1      -5.771  -4.385  20.720  0.00  0.00    +0.000 A 
ATOM      6  C   UNL     1      -7.157  -4.287  20.847  0.00  0.00    +0.000 A 
ATOM      7  C   UNL     1      -7.919  -5.123  20.013  0.00  0.00    +0.000 A 
ATOM      8  H   UNL     1      -5.374  -6.724  18.480  0.00  0.00    +0.000 HD
ATOM      9  H   UNL     1      -5.102  -3.805  21.351  0.00  0.00    +0.000 HD
ATOM     10  H   UNL     1      -9.000  -5.074  20.098  0.00  0.00    +0.000 HD
BRANCH   6  11
ATOM     11  C   UNL     1      -7.786  -3.469  21.895  0.00  0.00    +0.000 A 
ATOM     12  C   UNL     1      -7.604  -3.700  23.258  0.00  0.00    +0.000 A 
ATOM     13  C   UNL     1      -8.471  -3.025  24.132  0.00  0.00    +0.000 A 
ATOM     14  C   UNL     1      -8.683  -2.940  25.528  0.00  0.00    +0.000 A 
ATOM     15 CL   UNL     1      -7.727  -3.645  26.735  0.00  0.00    +0.000 Cl
ATOM     16  N   UNL     1      -9.754  -2.207  25.848  0.00  0.00    +0.000 NA
ATOM     17  N   UNL     1     -10.204  -1.782  24.657  0.00  0.00    +0.000 N 
ATOM     18  C   UNL     1      -9.432  -2.174  23.599  0.00  0.00    +0.000 A 
ATOM     19  C   UNL     1      -9.490  -1.881  22.253  0.00  0.00    +0.000 A 
ATOM     20  N   UNL     1      -8.659  -2.540  21.417  0.00  0.00    +0.000 NA
ATOM     21  H   UNL     1      -6.873  -4.406  23.632  0.00  0.00    +0.000 HD
ATOM     22  H   UNL     1     -11.060  -1.235  24.632  0.00  0.00    +0.000 HD
ATOM     23  H   UNL     1     -10.180  -1.174  21.808  0.00  0.00    +0.000 HD
ENDBRANCH   6  11
ENDBRANCH   1   2
BRANCH   1  24
ATOM     24  C   UNL     1      -9.166  -6.514  17.747  0.00  0.00    +0.000 C 
ATOM     25  H   UNL     1      -8.961  -6.053  16.772  0.00  0.00    +0.000 HD
ATOM     26  H   UNL     1      -9.668  -5.776  18.385  0.00  0.00    +0.000 HD
BRANCH  24  27
ATOM     27  C   UNL     1     -10.104  -7.727  17.553  0.00  0.00    +0.000 C 
ATOM     28  H   UNL     1      -9.919  -8.429  18.375  0.00  0.00    +0.000 HD
BRANCH  27  29
ATOM     29  N   UNL     1     -11.511  -7.287  17.665  0.00  0.00    +0.000 NA
ATOM     30  H   UNL     1     -12.046  -7.966  18.200  0.00  0.00    +0.000 HD
ATOM     31  H   UNL     1     -11.919  -7.269  16.727  0.00  0.00    +0.000 HD
ENDBRANCH  27  29
BRANCH  27  32
ATOM     32  C   UNL     1      -9.881  -8.451  16.207  0.00  0.00    +0.000 C 
ATOM     33  H   UNL     1      -9.188  -7.884  15.566  0.00  0.00    +0.000 HD
ATOM     34  H   UNL     1     -10.827  -8.486  15.645  0.00  0.00    +0.000 HD
BRANCH  32  35
ATOM     35  C   UNL     1      -9.385  -9.873  16.350  0.00  0.00    +0.000 A 
ATOM     36  C   UNL     1      -9.087 -10.642  15.216  0.00  0.00    +0.000 A 
ATOM     37  C   UNL     1      -8.634 -11.956  15.354  0.00  0.00    +0.000 A 
ATOM     38  C   UNL     1      -8.487 -12.516  16.623  0.00  0.00    +0.000 A 
ATOM     39  C   UNL     1      -8.786 -11.757  17.754  0.00  0.00    +0.000 A 
ATOM     40  C   UNL     1      -9.230 -10.446  17.620  0.00  0.00    +0.000 A 
ATOM     41  H   UNL     1      -9.200 -10.220  14.221  0.00  0.00    +0.000 HD
ATOM     42  H   UNL     1      -8.395 -12.544  14.471  0.00  0.00    +0.000 HD
ATOM     43  H   UNL     1      -8.140 -13.542  16.729  0.00  0.00    +0.000 HD
ATOM     44  H   UNL     1      -8.671 -12.195  18.747  0.00  0.00    +0.000 HD
ATOM     45  H   UNL     1      -9.462  -9.871  18.516  0.00  0.00    +0.000 HD
ENDBRANCH  32  35
ENDBRANCH  27  32
ENDBRANCH  24  27
ENDBRANCH   1  24
TORSDOF 7
ENDMDL
MODEL 5
REMARK VINA RESULT:   -10.433      2.926      4.291
REMARK INTER + INTRA:         -15.160
REMARK INTER:                 -14.459
REMARK INTRA:                  -0.702
REMARK UNBOUND:                -0.763
REMARK  Name = 
REMARK  7 active torsions:
REMARK  status: ('A' for Active; 'I' for Inactive)
REMARK    1  A    between atoms: N_1  and  C_2
REMARK    2  A    between atoms: C_2  and  C_3
REMARK    3  A    between atoms: C_2  and  C_21
REMARK    4  A    between atoms: C_3  and  O_4
REMARK    5  A    between atoms: O_4  and  C_5
REMARK    6  A    between atoms: C_9  and  C_10
REMARK    7  A    between atoms: C_21  and  C_22
REMARK                            x       y       z     vdW  Elec       q    Type
REMARK                         _______ _______ _______ _____ _____    ______ ____
ROOT
ATOM      1  O   UNL     1      -9.550  -5.859  17.543  0.00  0.00    +0.000 OA
ENDROOT
BRANCH   1   2
ATOM      2  C   UNL     1      -8.714  -5.404  18.520  0.00  0.00    +0.000 A 
ATOM      3  C   UNL     1      -7.556  -6.147  18.738  0.00  0.00    +0.000 A 
ATOM      4  N   UNL     1      -6.629  -5.863  19.683  0.00  0.00    +0.000 NA
ATOM      5  C   UNL     1      -6.889  -4.793  20.473  0.00  0.00    +0.000 A 
ATOM      6  C   UNL     1      -8.013  -3.975  20.364  0.00  0.00    +0.000 A 
ATOM      7  C   UNL     1      -8.921  -4.297  19.341  0.00  0.00    +0.000 A 
ATOM      8  H   UNL     1      -7.347  -7.032  18.143  0.00  0.00    +0.000 HD
ATOM      9  H   UNL     1      -6.153  -4.643  21.258  0.00  0.00    +0.000 HD
ATOM     10  H   UNL     1      -9.809  -3.682  19.240  0.00  0.00    +0.000 HD
BRANCH   6  11
ATOM     11  C   UNL     1      -8.311  -2.927  21.354  0.00  0.00    +0.000 A 
ATOM     12  C   UNL     1      -9.539  -2.272  21.427  0.00  0.00    +0.000 A 
ATOM     13  C   UNL     1      -9.591  -1.119  22.227  0.00  0.00    +0.000 A 
ATOM     14  C   UNL     1     -10.553  -0.150  22.596  0.00  0.00    +0.000 A 
ATOM     15 CL   UNL     1     -12.202  -0.174  22.213  0.00  0.00    +0.000 Cl
ATOM     16  N   UNL     1     -10.036   0.844  23.325  0.00  0.00    +0.000 NA
ATOM     17  N   UNL     1      -8.749   0.490  23.463  0.00  0.00    +0.000 N 
ATOM     18  C   UNL     1      -8.441  -0.715  22.896  0.00  0.00    +0.000 A 
ATOM     19  C   UNL     1      -7.285  -1.467  22.892  0.00  0.00    +0.000 A 
ATOM     20  N   UNL     1      -7.239  -2.570  22.114  0.00  0.00    +0.000 NA
ATOM     21  H   UNL     1     -10.401  -2.592  20.854  0.00  0.00    +0.000 HD
ATOM     22  H   UNL     1      -8.123   1.126  23.948  0.00  0.00    +0.000 HD
ATOM     23  H   UNL     1      -6.391  -1.220  23.452  0.00  0.00    +0.000 HD
ENDBRANCH   6  11
ENDBRANCH   1   2
BRANCH   1  24
ATOM     24  C   UNL     1      -9.256  -7.156  17.004  0.00  0.00    +0.000 C 
ATOM     25  H   UNL     1      -8.362  -7.558  17.499  0.00  0.00    +0.000 HD
ATOM     26  H   UNL     1      -9.059  -7.089  15.927  0.00  0.00    +0.000 HD
BRANCH  24  27
ATOM     27  C   UNL     1     -10.445  -8.115  17.236  0.00  0.00    +0.000 C 
ATOM     28  H   UNL     1     -10.255  -8.666  18.166  0.00  0.00    +0.000 HD
BRANCH  27  29
ATOM     29  N   UNL     1     -11.681  -7.330  17.441  0.00  0.00    +0.000 NA
ATOM     30  H   UNL     1     -12.257  -7.363  16.603  0.00  0.00    +0.000 HD
ATOM     31  H   UNL     1     -11.422  -6.351  17.577  0.00  0.00    +0.000 HD
ENDBRANCH  27  29
BRANCH  27  32
ATOM     32  C   UNL     1     -10.642  -9.122  16.082  0.00  0.00    +0.000 C 
ATOM     33  H   UNL     1     -10.442  -8.647  15.109  0.00  0.00    +0.000 HD
ATOM     34  H   UNL     1     -11.697  -9.431  16.038  0.00  0.00    +0.000 HD
BRANCH  32  35
ATOM     35  C   UNL     1      -9.805 -10.375  16.211  0.00  0.00    +0.000 A 
ATOM     36  C   UNL     1      -9.304 -11.020  15.071  0.00  0.00    +0.000 A 
ATOM     37  C   UNL     1      -8.536 -12.179  15.196  0.00  0.00    +0.000 A 
ATOM     38  C   UNL     1      -8.274 -12.712  16.457  0.00  0.00    +0.000 A 
ATOM     39  C   UNL     1      -8.772 -12.077  17.595  0.00  0.00    +0.000 A 
ATOM     40  C   UNL     1      -9.531 -10.918  17.474  0.00  0.00    +0.000 A 
ATOM     41  H   UNL     1      -9.505 -10.618  14.080  0.00  0.00    +0.000 HD
ATOM     42  H   UNL     1      -8.143 -12.670  14.308  0.00  0.00    +0.000 HD
ATOM     43  H   UNL     1      -7.680 -13.619  16.554  0.00  0.00    +0.000 HD
ATOM     44  H   UNL     1      -8.566 -12.494  18.583  0.00  0.00    +0.000 HD
ATOM     45  H   UNL     1      -9.915 -10.440  18.374  0.00  0.00    +0.000 HD
ENDBRANCH  32  35
ENDBRANCH  27  32
ENDBRANCH  24  27
ENDBRANCH   1  24
TORSDOF 7
ENDMDL
MODEL 6
REMARK VINA RESULT:   -10.389      2.965      4.913
REMARK INTER + INTRA:         -15.099
REMARK INTER:                 -14.667
REMARK INTRA:                  -0.431
REMARK UNBOUND:                -0.763
REMARK  Name = 
REMARK  7 active torsions:
REMARK  status: ('A' for Active; 'I' for Inactive)
REMARK    1  A    between atoms: N_1  and  C_2
REMARK    2  A    between atoms: C_2  and  C_3
REMARK    3  A    between atoms: C_2  and  C_21
REMARK    4  A    between atoms: C_3  and  O_4
REMARK    5  A    between atoms: O_4  and  C_5
REMARK    6  A    between atoms: C_9  and  C_10
REMARK    7  A    between atoms: C_21  and  C_22
REMARK                            x       y       z     vdW  Elec       q    Type
REMARK                         _______ _______ _______ _____ _____    ______ ____
ROOT
ATOM      1  O   UNL     1      -7.428  -6.570  18.852  0.00  0.00    +0.000 OA
ENDROOT
BRANCH   1   2
ATOM      2  C   UNL     1      -6.926  -5.629  19.702  0.00  0.00    +0.000 A 
ATOM      3  C   UNL     1      -5.545  -5.445  19.675  0.00  0.00    +0.000 A 
ATOM      4  N   UNL     1      -4.871  -4.578  20.467  0.00  0.00    +0.000 NA
ATOM      5  C   UNL     1      -5.615  -3.878  21.357  0.00  0.00    +0.000 A 
ATOM      6  C   UNL     1      -7.001  -3.976  21.491  0.00  0.00    +0.000 A 
ATOM      7  C   UNL     1      -7.649  -4.864  20.615  0.00  0.00    +0.000 A 
ATOM      8  H   UNL     1      -4.924  -6.024  18.998  0.00  0.00    +0.000 HD
ATOM      9  H   UNL     1      -5.026  -3.246  22.016  0.00  0.00    +0.000 HD
ATOM     10  H   UNL     1      -8.726  -4.967  20.705  0.00  0.00    +0.000 HD
BRANCH   6  11
ATOM     11  C   UNL     1      -7.726  -3.305  22.581  0.00  0.00    +0.000 A 
ATOM     12  C   UNL     1      -8.003  -1.939  22.589  0.00  0.00    +0.000 A 
ATOM     13  C   UNL     1      -8.451  -1.395  23.803  0.00  0.00    +0.000 A 
ATOM     14  C   UNL     1      -8.835  -0.125  24.296  0.00  0.00    +0.000 A 
ATOM     15 CL   UNL     1      -9.002   1.296  23.391  0.00  0.00    +0.000 Cl
ATOM     16  N   UNL     1      -9.083  -0.131  25.609  0.00  0.00    +0.000 NA
ATOM     17  N   UNL     1      -8.903  -1.416  25.952  0.00  0.00    +0.000 N 
ATOM     18  C   UNL     1      -8.601  -2.235  24.900  0.00  0.00    +0.000 A 
ATOM     19  C   UNL     1      -8.436  -3.601  24.809  0.00  0.00    +0.000 A 
ATOM     20  N   UNL     1      -7.996  -4.117  23.641  0.00  0.00    +0.000 NA
ATOM     21  H   UNL     1      -7.830  -1.309  21.725  0.00  0.00    +0.000 HD
ATOM     22  H   UNL     1      -8.988  -1.670  26.932  0.00  0.00    +0.000 HD
ATOM     23  H   UNL     1      -8.607  -4.295  25.623  0.00  0.00    +0.000 HD
ENDBRANCH   6  11
ENDBRANCH   1   2
BRANCH   1  24
ATOM     24  C   UNL     1      -8.761  -7.027  19.122  0.00  0.00    +0.000 C 
ATOM     25  H   UNL     1      -9.451  -6.576  18.396  0.00  0.00    +0.000 HD
ATOM     26  H   UNL     1      -9.072  -6.730  20.131  0.00  0.00    +0.000 HD
BRANCH  24  27
ATOM     27  C   UNL     1      -8.833  -8.566  19.008  0.00  0.00    +0.000 C 
ATOM     28  H   UNL     1      -7.816  -8.937  18.830  0.00  0.00    +0.000 HD
BRANCH  27  29
ATOM     29  N   UNL     1      -9.284  -9.136  20.295  0.00  0.00    +0.000 NA
ATOM     30  H   UNL     1      -9.247 -10.151  20.259  0.00  0.00    +0.000 HD
ATOM     31  H   UNL     1     -10.266  -8.886  20.432  0.00  0.00    +0.000 HD
ENDBRANCH  27  29
BRANCH  27  32
ATOM     32  C   UNL     1      -9.754  -9.044  17.865  0.00  0.00    +0.000 C 
ATOM     33  H   UNL     1      -9.910  -8.243  17.125  0.00  0.00    +0.000 HD
ATOM     34  H   UNL     1     -10.757  -9.262  18.265  0.00  0.00    +0.000 HD
BRANCH  32  35
ATOM     35  C   UNL     1      -9.265 -10.290  17.162  0.00  0.00    +0.000 A 
ATOM     36  C   UNL     1      -9.177 -10.332  15.763  0.00  0.00    +0.000 A 
ATOM     37  C   UNL     1      -8.728 -11.487  15.119  0.00  0.00    +0.000 A 
ATOM     38  C   UNL     1      -8.377 -12.612  15.864  0.00  0.00    +0.000 A 
ATOM     39  C   UNL     1      -8.465 -12.577  17.256  0.00  0.00    +0.000 A 
ATOM     40  C   UNL     1      -8.905 -11.426  17.900  0.00  0.00    +0.000 A 
ATOM     41  H   UNL     1      -9.452  -9.464  15.169  0.00  0.00    +0.000 HD
ATOM     42  H   UNL     1      -8.654 -11.511  14.034  0.00  0.00    +0.000 HD
ATOM     43  H   UNL     1      -8.033 -13.514  15.361  0.00  0.00    +0.000 HD
ATOM     44  H   UNL     1      -8.189 -13.458  17.839  0.00  0.00    +0.000 HD
ATOM     45  H   UNL     1      -8.971 -11.420  18.987  0.00  0.00    +0.000 HD
ENDBRANCH  32  35
ENDBRANCH  27  32
ENDBRANCH  24  27
ENDBRANCH   1  24
TORSDOF 7
ENDMDL
MODEL 7
REMARK VINA RESULT:   -10.330      1.943      2.733
REMARK INTER + INTRA:         -15.018
REMARK INTER:                 -14.252
REMARK INTRA:                  -0.766
REMARK UNBOUND:                -0.763
REMARK  Name = 
REMARK  7 active torsions:
REMARK  status: ('A' for Active; 'I' for Inactive)
REMARK    1  A    between atoms: N_1  and  C_2
REMARK    2  A    between atoms: C_2  and  C_3
REMARK    3  A    between atoms: C_2  and  C_21
REMARK    4  A    between atoms: C_3  and  O_4
REMARK    5  A    between atoms: O_4  and  C_5
REMARK    6  A    between atoms: C_9  and  C_10
REMARK    7  A    between atoms: C_21  and  C_22
REMARK                            x       y       z     vdW  Elec       q    Type
REMARK                         _______ _______ _______ _____ _____    ______ ____
ROOT
ATOM      1  O   UNL     1     -10.240  -9.499  17.120  0.00  0.00    +0.000 OA
ENDROOT
BRANCH   1   2
ATOM      2  C   UNL     1      -9.531  -8.774  18.033  0.00  0.00    +0.000 A 
ATOM      3  C   UNL     1      -8.884  -9.500  19.031  0.00  0.00    +0.000 A 
ATOM      4  N   UNL     1      -8.162  -8.948  20.034  0.00  0.00    +0.000 NA
ATOM      5  C   UNL     1      -8.109  -7.595  20.059  0.00  0.00    +0.000 A 
ATOM      6  C   UNL     1      -8.719  -6.755  19.127  0.00  0.00    +0.000 A 
ATOM      7  C   UNL     1      -9.422  -7.386  18.087  0.00  0.00    +0.000 A 
ATOM      8  H   UNL     1      -8.946 -10.584  19.054  0.00  0.00    +0.000 HD
ATOM      9  H   UNL     1      -7.576  -7.195  20.918  0.00  0.00    +0.000 HD
ATOM     10  H   UNL     1      -9.915  -6.756  17.354  0.00  0.00    +0.000 HD
BRANCH   6  11
ATOM     11  C   UNL     1      -8.753  -5.294  19.302  0.00  0.00    +0.000 A 
ATOM     12  C   UNL     1      -8.099  -4.633  20.341  0.00  0.00    +0.000 A 
ATOM     13  C   UNL     1      -8.441  -3.286  20.542  0.00  0.00    +0.000 A 
ATOM     14  C   UNL     1      -8.081  -2.242  21.427  0.00  0.00    +0.000 A 
ATOM     15 CL   UNL     1      -6.861  -2.295  22.600  0.00  0.00    +0.000 Cl
ATOM     16  N   UNL     1      -8.812  -1.137  21.251  0.00  0.00    +0.000 NA
ATOM     17  N   UNL     1      -9.612  -1.456  20.222  0.00  0.00    +0.000 N 
ATOM     18  C   UNL     1      -9.381  -2.699  19.704  0.00  0.00    +0.000 A 
ATOM     19  C   UNL     1      -9.906  -3.358  18.612  0.00  0.00    +0.000 A 
ATOM     20  N   UNL     1      -9.580  -4.656  18.429  0.00  0.00    +0.000 NA
ATOM     21  H   UNL     1      -7.405  -5.138  21.002  0.00  0.00    +0.000 HD
ATOM     22  H   UNL     1     -10.309  -0.780  19.926  0.00  0.00    +0.000 HD
ATOM     23  H   UNL     1     -10.590  -2.915  17.898  0.00  0.00    +0.000 HD
ENDBRANCH   6  11
ENDBRANCH   1   2
BRANCH   1  24
ATOM     24  C   UNL     1     -10.234  -9.007  15.772  0.00  0.00    +0.000 C 
ATOM     25  H   UNL     1      -9.658  -8.074  15.730  0.00  0.00    +0.000 HD
ATOM     26  H   UNL     1     -11.258  -8.803  15.434  0.00  0.00    +0.000 HD
BRANCH  24  27
ATOM     27  C   UNL     1      -9.594 -10.047  14.825  0.00  0.00    +0.000 C 
ATOM     28  H   UNL     1     -10.348 -10.813  14.610  0.00  0.00    +0.000 HD
BRANCH  27  29
ATOM     29  N   UNL     1      -9.251  -9.401  13.541  0.00  0.00    +0.000 NA
ATOM     30  H   UNL     1      -9.647  -8.466  13.504  0.00  0.00    +0.000 HD
ATOM     31  H   UNL     1      -9.689  -9.932  12.785  0.00  0.00    +0.000 HD
ENDBRANCH  27  29
BRANCH  27  32
ATOM     32  C   UNL     1      -8.343 -10.723  15.429  0.00  0.00    +0.000 C 
ATOM     33  H   UNL     1      -8.001 -10.184  16.326  0.00  0.00    +0.000 HD
ATOM     34  H   UNL     1      -7.506 -10.654  14.718  0.00  0.00    +0.000 HD
BRANCH  32  35
ATOM     35  C   UNL     1      -8.537 -12.185  15.764  0.00  0.00    +0.000 A 
ATOM     36  C   UNL     1      -8.715 -13.133  14.747  0.00  0.00    +0.000 A 
ATOM     37  C   UNL     1      -8.897 -14.481  15.062  0.00  0.00    +0.000 A 
ATOM     38  C   UNL     1      -8.917 -14.891  16.395  0.00  0.00    +0.000 A 
ATOM     39  C   UNL     1      -8.744 -13.952  17.412  0.00  0.00    +0.000 A 
ATOM     40  C   UNL     1      -8.555 -12.610  17.100  0.00  0.00    +0.000 A 
ATOM     41  H   UNL     1      -8.706 -12.827  13.703  0.00  0.00    +0.000 HD
ATOM     42  H   UNL     1      -9.026 -15.212  14.268  0.00  0.00    +0.000 HD
ATOM     43  H   UNL     1      -9.066 -15.941  16.640  0.00  0.00    +0.000 HD
ATOM     44  H   UNL     1      -8.760 -14.274  18.455  0.00  0.00    +0.000 HD
ATOM     45  H   UNL     1      -8.426 -11.892  17.909  0.00  0.00    +0.000 HD
ENDBRANCH  32  35
ENDBRANCH  27  32
ENDBRANCH  24  27
ENDBRANCH   1  24
TORSDOF 7
ENDMDL
MODEL 8
REMARK VINA RESULT:   -10.132      3.586      8.028
REMARK INTER + INTRA:         -14.745
REMARK INTER:                 -13.629
REMARK INTRA:                  -1.116
REMARK UNBOUND:                -0.763
REMARK  Name = 
REMARK  7 active torsions:
REMARK  status: ('A' for Active; 'I' for Inactive)
REMARK    1  A    between atoms: N_1  and  C_2
REMARK    2  A    between atoms: C_2  and  C_3
REMARK    3  A    between atoms: C_2  and  C_21
REMARK    4  A    between atoms: C_3  and  O_4
REMARK    5  A    between atoms: O_4  and  C_5
REMARK    6  A    between atoms: C_9  and  C_10
REMARK    7  A    between atoms: C_21  and  C_22
REMARK                            x       y       z     vdW  Elec       q    Type
REMARK                         _______ _______ _______ _____ _____    ______ ____
ROOT
ATOM      1  O   UNL     1     -10.569  -3.747  18.872  0.00  0.00    +0.000 OA
ENDROOT
BRANCH   1   2
ATOM      2  C   UNL     1     -10.535  -4.835  18.051  0.00  0.00    +0.000 A 
ATOM      3  C   UNL     1     -11.333  -4.774  16.910  0.00  0.00    +0.000 A 
ATOM      4  N   UNL     1     -11.448  -5.769  16.000  0.00  0.00    +0.000 NA
ATOM      5  C   UNL     1     -10.749  -6.901  16.259  0.00  0.00    +0.000 A 
ATOM      6  C   UNL     1      -9.923  -7.092  17.368  0.00  0.00    +0.000 A 
ATOM      7  C   UNL     1      -9.815  -6.010  18.257  0.00  0.00    +0.000 A 
ATOM      8  H   UNL     1     -11.933  -3.892  16.703  0.00  0.00    +0.000 HD
ATOM      9  H   UNL     1     -10.923  -7.695  15.539  0.00  0.00    +0.000 HD
ATOM     10  H   UNL     1      -9.186  -6.135  19.133  0.00  0.00    +0.000 HD
BRANCH   6  11
ATOM     11  C   UNL     1      -9.319  -8.399  17.670  0.00  0.00    +0.000 A 
ATOM     12  C   UNL     1      -9.254  -9.444  16.749  0.00  0.00    +0.000 A 
ATOM     13  C   UNL     1      -8.906 -10.707  17.253  0.00  0.00    +0.000 A 
ATOM     14  C   UNL     1      -8.725 -12.015  16.748  0.00  0.00    +0.000 A 
ATOM     15 CL   UNL     1      -8.769 -12.479  15.120  0.00  0.00    +0.000 Cl
ATOM     16  N   UNL     1      -8.491 -12.915  17.708  0.00  0.00    +0.000 NA
ATOM     17  N   UNL     1      -8.476 -12.176  18.828  0.00  0.00    +0.000 N 
ATOM     18  C   UNL     1      -8.639 -10.837  18.611  0.00  0.00    +0.000 A 
ATOM     19  C   UNL     1      -8.593  -9.750  19.460  0.00  0.00    +0.000 A 
ATOM     20  N   UNL     1      -8.938  -8.540  18.970  0.00  0.00    +0.000 NA
ATOM     21  H   UNL     1      -9.514  -9.311  15.705  0.00  0.00    +0.000 HD
ATOM     22  H   UNL     1      -8.363 -12.652  19.718  0.00  0.00    +0.000 HD
ATOM     23  H   UNL     1      -8.326  -9.802  20.508  0.00  0.00    +0.000 HD
ENDBRANCH   6  11
ENDBRANCH   1   2
BRANCH   1  24
ATOM     24  C   UNL     1      -9.371  -2.960  18.939  0.00  0.00    +0.000 C 
ATOM     25  H   UNL     1      -9.552  -1.985  18.466  0.00  0.00    +0.000 HD
ATOM     26  H   UNL     1      -8.553  -3.460  18.406  0.00  0.00    +0.000 HD
BRANCH  24  27
ATOM     27  C   UNL     1      -8.952  -2.745  20.410  0.00  0.00    +0.000 C 
ATOM     28  H   UNL     1      -8.152  -1.995  20.425  0.00  0.00    +0.000 HD
BRANCH  27  29
ATOM     29  N   UNL     1     -10.088  -2.182  21.171  0.00  0.00    +0.000 NA
ATOM     30  H   UNL     1     -10.336  -2.803  21.937  0.00  0.00    +0.000 HD
ATOM     31  H   UNL     1     -10.902  -2.144  20.553  0.00  0.00    +0.000 HD
ENDBRANCH  27  29
BRANCH  27  32
ATOM     32  C   UNL     1      -8.449  -4.038  21.089  0.00  0.00    +0.000 C 
ATOM     33  H   UNL     1      -9.091  -4.893  20.828  0.00  0.00    +0.000 HD
ATOM     34  H   UNL     1      -8.535  -3.939  22.182  0.00  0.00    +0.000 HD
BRANCH  32  35
ATOM     35  C   UNL     1      -7.009  -4.375  20.775  0.00  0.00    +0.000 A 
ATOM     36  C   UNL     1      -6.696  -5.399  19.868  0.00  0.00    +0.000 A 
ATOM     37  C   UNL     1      -5.365  -5.709  19.586  0.00  0.00    +0.000 A 
ATOM     38  C   UNL     1      -4.335  -5.011  20.215  0.00  0.00    +0.000 A 
ATOM     39  C   UNL     1      -4.639  -3.994  21.121  0.00  0.00    +0.000 A 
ATOM     40  C   UNL     1      -5.964  -3.678  21.398  0.00  0.00    +0.000 A 
ATOM     41  H   UNL     1      -7.489  -5.955  19.374  0.00  0.00    +0.000 HD
ATOM     42  H   UNL     1      -5.129  -6.498  18.875  0.00  0.00    +0.000 HD
ATOM     43  H   UNL     1      -3.297  -5.257  19.999  0.00  0.00    +0.000 HD
ATOM     44  H   UNL     1      -3.832  -3.447  21.613  0.00  0.00    +0.000 HD
ATOM     45  H   UNL     1      -6.181  -2.883  22.111  0.00  0.00    +0.000 HD
ENDBRANCH  32  35
ENDBRANCH  27  32
ENDBRANCH  24  27
ENDBRANCH   1  24
TORSDOF 7
ENDMDL
MODEL 9
REMARK VINA RESULT:   -10.114      2.036      2.483
REMARK INTER + INTRA:         -14.720
REMARK INTER:                 -14.025
REMARK INTRA:                  -0.695
REMARK UNBOUND:                -0.763
REMARK  Name = 
REMARK  7 active torsions:
REMARK  status: ('A' for Active; 'I' for Inactive)
REMARK    1  A    between atoms: N_1  and  C_2
REMARK    2  A    between atoms: C_2  and  C_3
REMARK    3  A    between atoms: C_2  and  C_21
REMARK    4  A    between atoms: C_3  and  O_4
REMARK    5  A    between atoms: O_4  and  C_5
REMARK    6  A    between atoms: C_9  and  C_10
REMARK    7  A    between atoms: C_21  and  C_22
REMARK                            x       y       z     vdW  Elec       q    Type
REMARK                         _______ _______ _______ _____ _____    ______ ____
ROOT
ATOM      1  O   UNL     1     -10.177  -8.087  17.407  0.00  0.00    +0.000 OA
ENDROOT
BRANCH   1   2
ATOM      2  C   UNL     1     -10.404  -6.743  17.456  0.00  0.00    +0.000 A 
ATOM      3  C   UNL     1     -11.212  -6.215  16.451  0.00  0.00    +0.000 A 
ATOM      4  N   UNL     1     -11.519  -4.902  16.325  0.00  0.00    +0.000 NA
ATOM      5  C   UNL     1     -10.963  -4.067  17.236  0.00  0.00    +0.000 A 
ATOM      6  C   UNL     1     -10.132  -4.467  18.282  0.00  0.00    +0.000 A 
ATOM      7  C   UNL     1      -9.879  -5.846  18.384  0.00  0.00    +0.000 A 
ATOM      8  H   UNL     1     -11.636  -6.860  15.687  0.00  0.00    +0.000 HD
ATOM      9  H   UNL     1     -11.183  -3.018  17.056  0.00  0.00    +0.000 HD
ATOM     10  H   UNL     1      -9.227  -6.183  19.184  0.00  0.00    +0.000 HD
BRANCH   6  11
ATOM     11  C   UNL     1      -9.437  -3.493  19.138  0.00  0.00    +0.000 A 
ATOM     12  C   UNL     1      -8.459  -3.850  20.066  0.00  0.00    +0.000 A 
ATOM     13  C   UNL     1      -8.084  -2.867  20.996  0.00  0.00    +0.000 A 
ATOM     14  C   UNL     1      -7.190  -2.752  22.086  0.00  0.00    +0.000 A 
ATOM     15 CL   UNL     1      -6.056  -3.908  22.582  0.00  0.00    +0.000 Cl
ATOM     16  N   UNL     1      -7.303  -1.587  22.730  0.00  0.00    +0.000 NA
ATOM     17  N   UNL     1      -8.240  -0.933  22.025  0.00  0.00    +0.000 N 
ATOM     18  C   UNL     1      -8.688  -1.617  20.929  0.00  0.00    +0.000 A 
ATOM     19  C   UNL     1      -9.556  -1.271  19.915  0.00  0.00    +0.000 A 
ATOM     20  N   UNL     1      -9.919  -2.224  19.030  0.00  0.00    +0.000 NA
ATOM     21  H   UNL     1      -8.046  -4.851  20.114  0.00  0.00    +0.000 HD
ATOM     22  H   UNL     1      -8.543  -0.022  22.355  0.00  0.00    +0.000 HD
ATOM     23  H   UNL     1      -9.995  -0.289  19.792  0.00  0.00    +0.000 HD
ENDBRANCH   6  11
ENDBRANCH   1   2
BRANCH   1  24
ATOM     24  C   UNL     1     -10.890  -8.818  16.398  0.00  0.00    +0.000 C 
ATOM     25  H   UNL     1     -11.384  -8.109  15.720  0.00  0.00    +0.000 HD
ATOM     26  H   UNL     1     -11.655  -9.457  16.856  0.00  0.00    +0.000 HD
BRANCH  24  27
ATOM     27  C   UNL     1      -9.916  -9.704  15.591  0.00  0.00    +0.000 C 
ATOM     28  H   UNL     1     -10.506 -10.483  15.093  0.00  0.00    +0.000 HD
BRANCH  27  29
ATOM     29  N   UNL     1      -9.277  -8.898  14.529  0.00  0.00    +0.000 NA
ATOM     30  H   UNL     1      -8.912  -9.506  13.801  0.00  0.00    +0.000 HD
ATOM     31  H   UNL     1      -8.473  -8.412  14.933  0.00  0.00    +0.000 HD
ENDBRANCH  27  29
BRANCH  27  32
ATOM     32  C   UNL     1      -8.836 -10.371  16.471  0.00  0.00    +0.000 C 
ATOM     33  H   UNL     1      -8.955 -10.079  17.526  0.00  0.00    +0.000 HD
ATOM     34  H   UNL     1      -7.842  -9.999  16.182  0.00  0.00    +0.000 HD
BRANCH  32  35
ATOM     35  C   UNL     1      -8.805 -11.880  16.368  0.00  0.00    +0.000 A 
ATOM     36  C   UNL     1      -8.827 -12.675  17.522  0.00  0.00    +0.000 A 
ATOM     37  C   UNL     1      -8.794 -14.067  17.420  0.00  0.00    +0.000 A 
ATOM     38  C   UNL     1      -8.724 -14.676  16.168  0.00  0.00    +0.000 A 
ATOM     39  C   UNL     1      -8.698 -13.890  15.016  0.00  0.00    +0.000 A 
ATOM     40  C   UNL     1      -8.739 -12.503  15.114  0.00  0.00    +0.000 A 
ATOM     41  H   UNL     1      -8.877 -12.214  18.506  0.00  0.00    +0.000 HD
ATOM     42  H   UNL     1      -8.820 -14.679  18.319  0.00  0.00    +0.000 HD
ATOM     43  H   UNL     1      -8.692 -15.761  16.090  0.00  0.00    +0.000 HD
ATOM     44  H   UNL     1      -8.644 -14.367  14.035  0.00  0.00    +0.000 HD
ATOM     45  H   UNL     1      -8.714 -11.907  14.203  0.00  0.00    +0.000 HD
ENDBRANCH  32  35
ENDBRANCH  27  32
ENDBRANCH  24  27
ENDBRANCH   1  24
TORSDOF 7
ENDMDL
