MODEL 1
REMARK VINA RESULT:   -11.954      0.000      0.000
REMARK INTER + INTRA:         -15.781
REMARK INTER:                 -15.449
REMARK INTRA:                  -0.332
REMARK UNBOUND:                -0.332
REMARK  Name = 
REMARK  5 active torsions:
REMARK  status: ('A' for Active; 'I' for Inactive)
REMARK    1  A    between atoms: C_2  and  C_4
REMARK    2  A    between atoms: C_4  and  O_7
REMARK    3  A    between atoms: O_7  and  C_8
REMARK    4  A    between atoms: C_12  and  N_13
REMARK    5  A    between atoms: C_18  and  C_19
REMARK                            x       y       z     vdW  Elec       q    Type
REMARK                         _______ _______ _______ _____ _____    ______ ____
ROOT
ATOM      1  N   UNL     1      -9.948  -8.064  16.908  0.00  0.00    +0.000 N 
ATOM      2  C   UNL     1      -9.927  -6.710  17.244  0.00  0.00    +0.000 A 
ATOM      3  N   UNL     1     -10.839  -5.928  16.645  0.00  0.00    +0.000 NA
ATOM      4  C   UNL     1     -10.921  -4.644  17.058  0.00  0.00    +0.000 A 
ATOM      5  C   UNL     1     -10.142  -4.107  18.053  0.00  0.00    +0.000 A 
ATOM      6  C   UNL     1      -9.228  -4.976  18.584  0.00  0.00    +0.000 A 
ATOM      7  N   UNL     1      -9.094  -6.252  18.180  0.00  0.00    +0.000 NA
ATOM      8  H   UNL     1     -10.751  -8.230  16.317  0.00  0.00    +0.000 HD
ATOM      9  H   UNL     1     -11.689  -4.052  16.571  0.00  0.00    +0.000 HD
ATOM     10  H   UNL     1     -10.268  -3.096  18.410  0.00  0.00    +0.000 HD
ENDROOT
BRANCH   6  11
ATOM     11  C   UNL     1      -8.464  -4.667  19.777  0.00  0.00    +0.000 A 
ATOM     12  C   UNL     1      -8.718  -3.563  20.569  0.00  0.00    +0.000 A 
ATOM     13  N   UNL     1      -7.638  -3.394  21.395  0.00  0.00    +0.000 N 
ATOM     14  C   UNL     1      -6.578  -4.114  20.891  0.00  0.00    +0.000 A 
ATOM     15  C   UNL     1      -5.199  -3.964  21.074  0.00  0.00    +0.000 A 
ATOM     16  C   UNL     1      -4.365  -4.874  20.419  0.00  0.00    +0.000 A 
ATOM     17  C   UNL     1      -4.891  -5.946  19.699  0.00  0.00    +0.000 A 
ATOM     18  C   UNL     1      -6.270  -6.063  19.503  0.00  0.00    +0.000 A 
ATOM     19  C   UNL     1      -7.119  -5.076  20.043  0.00  0.00    +0.000 A 
ATOM     20  H   UNL     1      -9.540  -2.859  20.578  0.00  0.00    +0.000 HD
ATOM     21  H   UNL     1      -7.569  -2.711  22.136  0.00  0.00    +0.000 HD
ATOM     22  H   UNL     1      -4.788  -3.129  21.631  0.00  0.00    +0.000 HD
ATOM     23  H   UNL     1      -3.287  -4.741  20.465  0.00  0.00    +0.000 HD
ATOM     24  H   UNL     1      -4.224  -6.669  19.236  0.00  0.00    +0.000 HD
ATOM     25  H   UNL     1      -6.667  -6.861  18.883  0.00  0.00    +0.000 HD
ENDBRANCH   6  11
BRANCH   1  30
ATOM     26  C   UNL     1      -9.038 -11.616  17.584  0.00  0.00    +0.000 A 
ATOM     27  C   UNL     1      -8.370 -11.518  18.798  0.00  0.00    +0.000 A 
ATOM     28  C   UNL     1      -8.204 -10.262  19.389  0.00  0.00    +0.000 A 
ATOM     29  C   UNL     1      -8.711  -9.116  18.772  0.00  0.00    +0.000 A 
ATOM     30  C   UNL     1      -9.415  -9.186  17.568  0.00  0.00    +0.000 A 
ATOM     31  C   UNL     1      -9.552 -10.452  16.978  0.00  0.00    +0.000 A 
ATOM     32  H   UNL     1      -7.966 -12.376  19.317  0.00  0.00    +0.000 HD
ATOM     33  H   UNL     1      -7.673 -10.175  20.332  0.00  0.00    +0.000 HD
ATOM     34  H   UNL     1      -8.539  -8.169  19.274  0.00  0.00    +0.000 HD
ATOM     35  H   UNL     1     -10.078 -10.551  16.032  0.00  0.00    +0.000 HD
BRANCH  26  36
ATOM     36  O   UNL     1      -9.276 -12.767  16.892  0.00  0.00    +0.000 OA
BRANCH  36  37
ATOM     37  C   UNL     1      -8.542 -13.004  15.687  0.00  0.00    +0.000 C 
ATOM     38  F   UNL     1      -7.302 -12.463  15.801  0.00  0.00    +0.000 F 
ATOM     39  F   UNL     1      -9.177 -12.378  14.658  0.00  0.00    +0.000 F 
BRANCH  37  41
ATOM     40  F   UNL     1      -8.907 -15.240  16.446  0.00  0.00    +0.000 F 
ATOM     41  C   UNL     1      -8.459 -14.502  15.394  0.00  0.00    +0.000 C 
ATOM     42  F   UNL     1      -9.236 -14.844  14.331  0.00  0.00    +0.000 F 
ATOM     43  H   UNL     1      -7.431 -14.805  15.175  0.00  0.00    +0.000 HD
ENDBRANCH  37  41
ENDBRANCH  36  37
ENDBRANCH  26  36
ENDBRANCH   1  30
TORSDOF 5
ENDMDL
MODEL 2
REMARK VINA RESULT:   -11.407      5.352      8.641
REMARK INTER + INTRA:         -15.074
REMARK INTER:                 -15.400
REMARK INTRA:                   0.326
REMARK UNBOUND:                -0.332
REMARK  Name = 
REMARK  5 active torsions:
REMARK  status: ('A' for Active; 'I' for Inactive)
REMARK    1  A    between atoms: C_2  and  C_4
REMARK    2  A    between atoms: C_4  and  O_7
REMARK    3  A    between atoms: O_7  and  C_8
REMARK    4  A    between atoms: C_12  and  N_13
REMARK    5  A    between atoms: C_18  and  C_19
REMARK                            x       y       z     vdW  Elec       q    Type
REMARK                         _______ _______ _______ _____ _____    ______ ____
ROOT
ATOM      1  N   UNL     1      -9.210  -5.923  19.251  0.00  0.00    +0.000 N 
ATOM      2  C   UNL     1      -9.890  -6.821  18.428  0.00  0.00    +0.000 A 
ATOM      3  N   UNL     1     -11.189  -6.566  18.205  0.00  0.00    +0.000 NA
ATOM      4  C   UNL     1     -11.829  -7.345  17.306  0.00  0.00    +0.000 A 
ATOM      5  C   UNL     1     -11.226  -8.362  16.607  0.00  0.00    +0.000 A 
ATOM      6  C   UNL     1      -9.909  -8.559  16.921  0.00  0.00    +0.000 A 
ATOM      7  N   UNL     1      -9.245  -7.824  17.832  0.00  0.00    +0.000 NA
ATOM      8  H   UNL     1      -9.830  -5.154  19.459  0.00  0.00    +0.000 HD
ATOM      9  H   UNL     1     -12.869  -7.090  17.133  0.00  0.00    +0.000 HD
ATOM     10  H   UNL     1     -11.741  -8.932  15.848  0.00  0.00    +0.000 HD
ENDROOT
BRANCH   6  11
ATOM     11  C   UNL     1      -9.049  -9.435  16.150  0.00  0.00    +0.000 A 
ATOM     12  C   UNL     1      -8.885  -9.318  14.783  0.00  0.00    +0.000 A 
ATOM     13  N   UNL     1      -8.288 -10.470  14.341  0.00  0.00    +0.000 N 
ATOM     14  C   UNL     1      -8.419 -11.437  15.312  0.00  0.00    +0.000 A 
ATOM     15  C   UNL     1      -8.387 -12.832  15.226  0.00  0.00    +0.000 A 
ATOM     16  C   UNL     1      -8.547 -13.550  16.414  0.00  0.00    +0.000 A 
ATOM     17  C   UNL     1      -8.633 -12.900  17.644  0.00  0.00    +0.000 A 
ATOM     18  C   UNL     1      -8.694 -11.505  17.708  0.00  0.00    +0.000 A 
ATOM     19  C   UNL     1      -8.670 -10.767  16.508  0.00  0.00    +0.000 A 
ATOM     20  H   UNL     1      -9.188  -8.547  14.086  0.00  0.00    +0.000 HD
ATOM     21  H   UNL     1      -7.978 -10.642  13.396  0.00  0.00    +0.000 HD
ATOM     22  H   UNL     1      -8.323 -13.340  14.269  0.00  0.00    +0.000 HD
ATOM     23  H   UNL     1      -8.613 -14.635  16.379  0.00  0.00    +0.000 HD
ATOM     24  H   UNL     1      -8.711 -13.479  18.560  0.00  0.00    +0.000 HD
ATOM     25  H   UNL     1      -8.830 -11.009  18.664  0.00  0.00    +0.000 HD
ENDBRANCH   6  11
BRANCH   1  30
ATOM     26  C   UNL     1      -6.032  -4.640  20.721  0.00  0.00    +0.000 A 
ATOM     27  C   UNL     1      -5.084  -5.125  19.828  0.00  0.00    +0.000 A 
ATOM     28  C   UNL     1      -5.499  -5.896  18.739  0.00  0.00    +0.000 A 
ATOM     29  C   UNL     1      -6.854  -6.174  18.543  0.00  0.00    +0.000 A 
ATOM     30  C   UNL     1      -7.833  -5.675  19.405  0.00  0.00    +0.000 A 
ATOM     31  C   UNL     1      -7.396  -4.921  20.505  0.00  0.00    +0.000 A 
ATOM     32  H   UNL     1      -4.026  -4.931  19.934  0.00  0.00    +0.000 HD
ATOM     33  H   UNL     1      -4.764  -6.289  18.043  0.00  0.00    +0.000 HD
ATOM     34  H   UNL     1      -7.112  -6.790  17.687  0.00  0.00    +0.000 HD
ATOM     35  H   UNL     1      -8.123  -4.528  21.211  0.00  0.00    +0.000 HD
BRANCH  26  36
ATOM     36  O   UNL     1      -5.779  -3.877  21.822  0.00  0.00    +0.000 OA
BRANCH  36  37
ATOM     37  C   UNL     1      -6.744  -2.894  22.209  0.00  0.00    +0.000 C 
ATOM     38  F   UNL     1      -7.525  -2.585  21.142  0.00  0.00    +0.000 F 
ATOM     39  F   UNL     1      -6.089  -1.762  22.587  0.00  0.00    +0.000 F 
BRANCH  37  41
ATOM     40  F   UNL     1      -6.871  -4.216  24.195  0.00  0.00    +0.000 F 
ATOM     41  C   UNL     1      -7.591  -3.402  23.375  0.00  0.00    +0.000 C 
ATOM     42  F   UNL     1      -8.033  -2.376  24.152  0.00  0.00    +0.000 F 
ATOM     43  H   UNL     1      -8.462  -3.959  23.019  0.00  0.00    +0.000 HD
ENDBRANCH  37  41
ENDBRANCH  36  37
ENDBRANCH  26  36
ENDBRANCH   1  30
TORSDOF 5
ENDMDL
MODEL 3
REMARK VINA RESULT:   -11.161      5.799      8.849
REMARK INTER + INTRA:         -14.756
REMARK INTER:                 -14.220
REMARK INTRA:                  -0.537
REMARK UNBOUND:                -0.332
REMARK  Name = 
REMARK  5 active torsions:
REMARK  status: ('A' for Active; 'I' for Inactive)
REMARK    1  A    between atoms: C_2  and  C_4
REMARK    2  A    between atoms: C_4  and  O_7
REMARK    3  A    between atoms: O_7  and  C_8
REMARK    4  A    between atoms: C_12  and  N_13
REMARK    5  A    between atoms: C_18  and  C_19
REMARK                            x       y       z     vdW  Elec       q    Type
REMARK                         _______ _______ _______ _____ _____    ______ ____
ROOT
ATOM      1  N   UNL     1      -8.958  -3.945  18.875  0.00  0.00    +0.000 N 
ATOM      2  C   UNL     1      -9.485  -5.044  18.197  0.00  0.00    +0.000 A 
ATOM      3  N   UNL     1      -9.878  -4.837  16.930  0.00  0.00    +0.000 NA
ATOM      4  C   UNL     1     -10.265  -5.917  16.216  0.00  0.00    +0.000 A 
ATOM      5  C   UNL     1     -10.266  -7.199  16.706  0.00  0.00    +0.000 A 
ATOM      6  C   UNL     1      -9.873  -7.304  18.012  0.00  0.00    +0.000 A 
ATOM      7  N   UNL     1      -9.510  -6.250  18.765  0.00  0.00    +0.000 NA
ATOM      8  H   UNL     1      -8.876  -3.180  18.220  0.00  0.00    +0.000 HD
ATOM      9  H   UNL     1     -10.548  -5.712  15.188  0.00  0.00    +0.000 HD
ATOM     10  H   UNL     1     -10.520  -8.055  16.098  0.00  0.00    +0.000 HD
ENDROOT
BRANCH   6  11
ATOM     11  C   UNL     1      -9.607  -8.582  18.644  0.00  0.00    +0.000 A 
ATOM     12  C   UNL     1      -8.922  -8.703  19.838  0.00  0.00    +0.000 A 
ATOM     13  N   UNL     1      -8.568 -10.019  19.976  0.00  0.00    +0.000 N 
ATOM     14  C   UNL     1      -8.677 -10.638  18.751  0.00  0.00    +0.000 A 
ATOM     15  C   UNL     1      -8.065 -11.791  18.249  0.00  0.00    +0.000 A 
ATOM     16  C   UNL     1      -8.393 -12.172  16.945  0.00  0.00    +0.000 A 
ATOM     17  C   UNL     1      -9.365 -11.489  16.216  0.00  0.00    +0.000 A 
ATOM     18  C   UNL     1      -9.945 -10.322  16.722  0.00  0.00    +0.000 A 
ATOM     19  C   UNL     1      -9.527  -9.847  17.981  0.00  0.00    +0.000 A 
ATOM     20  H   UNL     1      -8.610  -7.965  20.566  0.00  0.00    +0.000 HD
ATOM     21  H   UNL     1      -8.120 -10.423  20.786  0.00  0.00    +0.000 HD
ATOM     22  H   UNL     1      -7.306 -12.322  18.813  0.00  0.00    +0.000 HD
ATOM     23  H   UNL     1      -7.875 -13.011  16.487  0.00  0.00    +0.000 HD
ATOM     24  H   UNL     1      -9.638 -11.830  15.221  0.00  0.00    +0.000 HD
ATOM     25  H   UNL     1     -10.651  -9.758  16.120  0.00  0.00    +0.000 HD
ENDBRANCH   6  11
BRANCH   1  30
ATOM     26  C   UNL     1      -7.825  -2.981  22.294  0.00  0.00    +0.000 A 
ATOM     27  C   UNL     1      -6.618  -3.662  22.402  0.00  0.00    +0.000 A 
ATOM     28  C   UNL     1      -6.185  -4.460  21.339  0.00  0.00    +0.000 A 
ATOM     29  C   UNL     1      -6.950  -4.569  20.176  0.00  0.00    +0.000 A 
ATOM     30  C   UNL     1      -8.151  -3.872  20.025  0.00  0.00    +0.000 A 
ATOM     31  C   UNL     1      -8.582  -3.094  21.111  0.00  0.00    +0.000 A 
ATOM     32  H   UNL     1      -5.988  -3.604  23.278  0.00  0.00    +0.000 HD
ATOM     33  H   UNL     1      -5.248  -5.005  21.420  0.00  0.00    +0.000 HD
ATOM     34  H   UNL     1      -6.567  -5.214  19.392  0.00  0.00    +0.000 HD
ATOM     35  H   UNL     1      -9.520  -2.548  21.043  0.00  0.00    +0.000 HD
BRANCH  26  36
ATOM     36  O   UNL     1      -8.373  -2.169  23.242  0.00  0.00    +0.000 OA
BRANCH  36  37
ATOM     37  C   UNL     1      -9.046  -2.771  24.352  0.00  0.00    +0.000 C 
ATOM     38  F   UNL     1      -8.621  -2.193  25.504  0.00  0.00    +0.000 F 
ATOM     39  F   UNL     1      -8.715  -4.091  24.401  0.00  0.00    +0.000 F 
BRANCH  37  41
ATOM     40  F   UNL     1     -11.181  -2.606  25.411  0.00  0.00    +0.000 F 
ATOM     41  C   UNL     1     -10.561  -2.635  24.200  0.00  0.00    +0.000 C 
ATOM     42  F   UNL     1     -10.895  -1.473  23.576  0.00  0.00    +0.000 F 
ATOM     43  H   UNL     1     -10.977  -3.464  23.621  0.00  0.00    +0.000 HD
ENDBRANCH  37  41
ENDBRANCH  36  37
ENDBRANCH  26  36
ENDBRANCH   1  30
TORSDOF 5
ENDMDL
MODEL 4
REMARK VINA RESULT:   -11.156      2.786      4.805
REMARK INTER + INTRA:         -14.749
REMARK INTER:                 -14.019
REMARK INTRA:                  -0.730
REMARK UNBOUND:                -0.332
REMARK  Name = 
REMARK  5 active torsions:
REMARK  status: ('A' for Active; 'I' for Inactive)
REMARK    1  A    between atoms: C_2  and  C_4
REMARK    2  A    between atoms: C_4  and  O_7
REMARK    3  A    between atoms: O_7  and  C_8
REMARK    4  A    between atoms: C_12  and  N_13
REMARK    5  A    between atoms: C_18  and  C_19
REMARK                            x       y       z     vdW  Elec       q    Type
REMARK                         _______ _______ _______ _____ _____    ______ ____
ROOT
ATOM      1  N   UNL     1      -6.965  -6.177  19.145  0.00  0.00    +0.000 N 
ATOM      2  C   UNL     1      -6.571  -5.253  20.113  0.00  0.00    +0.000 A 
ATOM      3  N   UNL     1      -5.257  -4.985  20.189  0.00  0.00    +0.000 NA
ATOM      4  C   UNL     1      -4.873  -3.997  21.026  0.00  0.00    +0.000 A 
ATOM      5  C   UNL     1      -5.743  -3.252  21.784  0.00  0.00    +0.000 A 
ATOM      6  C   UNL     1      -7.056  -3.616  21.656  0.00  0.00    +0.000 A 
ATOM      7  N   UNL     1      -7.475  -4.614  20.856  0.00  0.00    +0.000 NA
ATOM      8  H   UNL     1      -6.157  -6.413  18.587  0.00  0.00    +0.000 HD
ATOM      9  H   UNL     1      -3.807  -3.792  21.038  0.00  0.00    +0.000 HD
ATOM     10  H   UNL     1      -5.420  -2.426  22.399  0.00  0.00    +0.000 HD
ENDROOT
BRANCH   6  11
ATOM     11  C   UNL     1      -8.139  -2.825  22.205  0.00  0.00    +0.000 A 
ATOM     12  C   UNL     1      -8.582  -1.651  21.625  0.00  0.00    +0.000 A 
ATOM     13  N   UNL     1      -9.364  -1.008  22.549  0.00  0.00    +0.000 N 
ATOM     14  C   UNL     1      -9.117  -1.547  23.791  0.00  0.00    +0.000 A 
ATOM     15  C   UNL     1      -9.295  -1.016  25.073  0.00  0.00    +0.000 A 
ATOM     16  C   UNL     1      -8.950  -1.829  26.155  0.00  0.00    +0.000 A 
ATOM     17  C   UNL     1      -8.541  -3.149  25.966  0.00  0.00    +0.000 A 
ATOM     18  C   UNL     1      -8.339  -3.652  24.677  0.00  0.00    +0.000 A 
ATOM     19  C   UNL     1      -8.553  -2.802  23.574  0.00  0.00    +0.000 A 
ATOM     20  H   UNL     1      -8.367  -1.197  20.667  0.00  0.00    +0.000 HD
ATOM     21  H   UNL     1      -9.886  -0.159  22.384  0.00  0.00    +0.000 HD
ATOM     22  H   UNL     1      -9.611   0.011  25.222  0.00  0.00    +0.000 HD
ATOM     23  H   UNL     1      -8.993  -1.425  27.163  0.00  0.00    +0.000 HD
ATOM     24  H   UNL     1      -8.321  -3.778  26.823  0.00  0.00    +0.000 HD
ATOM     25  H   UNL     1      -7.955  -4.658  24.539  0.00  0.00    +0.000 HD
ENDBRANCH   6  11
BRANCH   1  30
ATOM     26  C   UNL     1      -9.784  -8.035  17.563  0.00  0.00    +0.000 A 
ATOM     27  C   UNL     1     -10.728  -7.031  17.384  0.00  0.00    +0.000 A 
ATOM     28  C   UNL     1     -10.434  -5.731  17.806  0.00  0.00    +0.000 A 
ATOM     29  C   UNL     1      -9.202  -5.439  18.395  0.00  0.00    +0.000 A 
ATOM     30  C   UNL     1      -8.221  -6.419  18.560  0.00  0.00    +0.000 A 
ATOM     31  C   UNL     1      -8.543  -7.723  18.151  0.00  0.00    +0.000 A 
ATOM     32  H   UNL     1     -11.691  -7.206  16.927  0.00  0.00    +0.000 HD
ATOM     33  H   UNL     1     -11.171  -4.943  17.680  0.00  0.00    +0.000 HD
ATOM     34  H   UNL     1      -9.039  -4.414  18.714  0.00  0.00    +0.000 HD
ATOM     35  H   UNL     1      -7.815  -8.520  18.277  0.00  0.00    +0.000 HD
BRANCH  26  36
ATOM     36  O   UNL     1      -9.927  -9.342  17.202  0.00  0.00    +0.000 OA
BRANCH  36  37
ATOM     37  C   UNL     1      -9.624  -9.715  15.854  0.00  0.00    +0.000 C 
ATOM     38  F   UNL     1      -8.768  -8.808  15.318  0.00  0.00    +0.000 F 
ATOM     39  F   UNL     1     -10.772  -9.689  15.124  0.00  0.00    +0.000 F 
BRANCH  37  41
ATOM     40  F   UNL     1      -8.104 -11.237  14.814  0.00  0.00    +0.000 F 
ATOM     41  C   UNL     1      -9.026 -11.122  15.808  0.00  0.00    +0.000 C 
ATOM     42  F   UNL     1      -8.378 -11.424  16.965  0.00  0.00    +0.000 F 
ATOM     43  H   UNL     1      -9.802 -11.876  15.646  0.00  0.00    +0.000 HD
ENDBRANCH  37  41
ENDBRANCH  36  37
ENDBRANCH  26  36
ENDBRANCH   1  30
TORSDOF 5
ENDMDL
MODEL 5
REMARK VINA RESULT:   -10.851      2.393      4.891
REMARK INTER + INTRA:         -14.355
REMARK INTER:                 -13.453
REMARK INTRA:                  -0.902
REMARK UNBOUND:                -0.332
REMARK  Name = 
REMARK  5 active torsions:
REMARK  status: ('A' for Active; 'I' for Inactive)
REMARK    1  A    between atoms: C_2  and  C_4
REMARK    2  A    between atoms: C_4  and  O_7
REMARK    3  A    between atoms: O_7  and  C_8
REMARK    4  A    between atoms: C_12  and  N_13
REMARK    5  A    between atoms: C_18  and  C_19
REMARK                            x       y       z     vdW  Elec       q    Type
REMARK                         _______ _______ _______ _____ _____    ______ ____
ROOT
ATOM      1  N   UNL     1      -7.036  -5.899  18.952  0.00  0.00    +0.000 N 
ATOM      2  C   UNL     1      -6.522  -5.158  20.016  0.00  0.00    +0.000 A 
ATOM      3  N   UNL     1      -5.213  -4.865  19.968  0.00  0.00    +0.000 NA
ATOM      4  C   UNL     1      -4.727  -4.037  20.918  0.00  0.00    +0.000 A 
ATOM      5  C   UNL     1      -5.492  -3.474  21.909  0.00  0.00    +0.000 A 
ATOM      6  C   UNL     1      -6.807  -3.851  21.889  0.00  0.00    +0.000 A 
ATOM      7  N   UNL     1      -7.323  -4.698  20.978  0.00  0.00    +0.000 NA
ATOM      8  H   UNL     1      -6.309  -6.001  18.258  0.00  0.00    +0.000 HD
ATOM      9  H   UNL     1      -3.671  -3.802  20.828  0.00  0.00    +0.000 HD
ATOM     10  H   UNL     1      -5.095  -2.766  22.621  0.00  0.00    +0.000 HD
ENDROOT
BRANCH   6  11
ATOM     11  C   UNL     1      -7.813  -3.211  22.714  0.00  0.00    +0.000 A 
ATOM     12  C   UNL     1      -8.200  -3.703  23.946  0.00  0.00    +0.000 A 
ATOM     13  N   UNL     1      -9.364  -3.068  24.293  0.00  0.00    +0.000 N 
ATOM     14  C   UNL     1      -9.904  -2.487  23.168  0.00  0.00    +0.000 A 
ATOM     15  C   UNL     1     -11.219  -2.113  22.872  0.00  0.00    +0.000 A 
ATOM     16  C   UNL     1     -11.452  -1.531  21.623  0.00  0.00    +0.000 A 
ATOM     17  C   UNL     1     -10.401  -1.244  20.753  0.00  0.00    +0.000 A 
ATOM     18  C   UNL     1      -9.098  -1.653  21.053  0.00  0.00    +0.000 A 
ATOM     19  C   UNL     1      -8.866  -2.363  22.248  0.00  0.00    +0.000 A 
ATOM     20  H   UNL     1      -7.783  -4.480  24.573  0.00  0.00    +0.000 HD
ATOM     21  H   UNL     1      -9.845  -3.169  25.176  0.00  0.00    +0.000 HD
ATOM     22  H   UNL     1     -12.038  -2.337  23.546  0.00  0.00    +0.000 HD
ATOM     23  H   UNL     1     -12.471  -1.304  21.320  0.00  0.00    +0.000 HD
ATOM     24  H   UNL     1     -10.598  -0.750  19.806  0.00  0.00    +0.000 HD
ATOM     25  H   UNL     1      -8.297  -1.488  20.339  0.00  0.00    +0.000 HD
ENDBRANCH   6  11
BRANCH   1  30
ATOM     26  C   UNL     1     -10.105  -7.597  17.686  0.00  0.00    +0.000 A 
ATOM     27  C   UNL     1     -11.004  -6.540  17.596  0.00  0.00    +0.000 A 
ATOM     28  C   UNL     1     -10.594  -5.259  17.974  0.00  0.00    +0.000 A 
ATOM     29  C   UNL     1      -9.294  -5.036  18.431  0.00  0.00    +0.000 A 
ATOM     30  C   UNL     1      -8.358  -6.071  18.502  0.00  0.00    +0.000 A 
ATOM     31  C   UNL     1      -8.794  -7.354  18.140  0.00  0.00    +0.000 A 
ATOM     32  H   UNL     1     -12.018  -6.662  17.242  0.00  0.00    +0.000 HD
ATOM     33  H   UNL     1     -11.294  -4.429  17.918  0.00  0.00    +0.000 HD
ATOM     34  H   UNL     1      -9.040  -4.021  18.722  0.00  0.00    +0.000 HD
ATOM     35  H   UNL     1      -8.103  -8.192  18.196  0.00  0.00    +0.000 HD
BRANCH  26  36
ATOM     36  O   UNL     1     -10.359  -8.894  17.352  0.00  0.00    +0.000 OA
BRANCH  36  37
ATOM     37  C   UNL     1      -9.980  -9.352  16.051  0.00  0.00    +0.000 C 
ATOM     38  F   UNL     1      -9.162  -8.436  15.472  0.00  0.00    +0.000 F 
ATOM     39  F   UNL     1     -11.099  -9.456  15.281  0.00  0.00    +0.000 F 
BRANCH  37  41
ATOM     40  F   UNL     1      -9.743 -11.428  17.209  0.00  0.00    +0.000 F 
ATOM     41  C   UNL     1      -9.297 -10.716  16.138  0.00  0.00    +0.000 C 
ATOM     42  F   UNL     1      -9.562 -11.475  15.041  0.00  0.00    +0.000 F 
ATOM     43  H   UNL     1      -8.212 -10.610  16.224  0.00  0.00    +0.000 HD
ENDBRANCH  37  41
ENDBRANCH  36  37
ENDBRANCH  26  36
ENDBRANCH   1  30
TORSDOF 5
ENDMDL
MODEL 6
REMARK VINA RESULT:   -10.813      2.045      3.287
REMARK INTER + INTRA:         -14.307
REMARK INTER:                 -13.873
REMARK INTRA:                  -0.434
REMARK UNBOUND:                -0.332
REMARK  Name = 
REMARK  5 active torsions:
REMARK  status: ('A' for Active; 'I' for Inactive)
REMARK    1  A    between atoms: C_2  and  C_4
REMARK    2  A    between atoms: C_4  and  O_7
REMARK    3  A    between atoms: O_7  and  C_8
REMARK    4  A    between atoms: C_12  and  N_13
REMARK    5  A    between atoms: C_18  and  C_19
REMARK                            x       y       z     vdW  Elec       q    Type
REMARK                         _______ _______ _______ _____ _____    ______ ____
ROOT
ATOM      1  N   UNL     1      -9.642  -6.538  17.897  0.00  0.00    +0.000 N 
ATOM      2  C   UNL     1      -9.547  -5.195  18.263  0.00  0.00    +0.000 A 
ATOM      3  N   UNL     1     -10.333  -4.334  17.598  0.00  0.00    +0.000 NA
ATOM      4  C   UNL     1     -10.353  -3.054  18.028  0.00  0.00    +0.000 A 
ATOM      5  C   UNL     1      -9.632  -2.594  19.103  0.00  0.00    +0.000 A 
ATOM      6  C   UNL     1      -8.844  -3.541  19.699  0.00  0.00    +0.000 A 
ATOM      7  N   UNL     1      -8.773  -4.818  19.281  0.00  0.00    +0.000 NA
ATOM      8  H   UNL     1     -10.396  -6.631  17.230  0.00  0.00    +0.000 HD
ATOM      9  H   UNL     1     -11.022  -2.395  17.483  0.00  0.00    +0.000 HD
ATOM     10  H   UNL     1      -9.711  -1.581  19.467  0.00  0.00    +0.000 HD
ENDROOT
BRANCH   6  11
ATOM     11  C   UNL     1      -8.174  -3.311  20.964  0.00  0.00    +0.000 A 
ATOM     12  C   UNL     1      -7.063  -4.027  21.368  0.00  0.00    +0.000 A 
ATOM     13  N   UNL     1      -6.892  -3.794  22.708  0.00  0.00    +0.000 N 
ATOM     14  C   UNL     1      -8.058  -3.272  23.220  0.00  0.00    +0.000 A 
ATOM     15  C   UNL     1      -8.560  -3.258  24.525  0.00  0.00    +0.000 A 
ATOM     16  C   UNL     1      -9.793  -2.632  24.729  0.00  0.00    +0.000 A 
ATOM     17  C   UNL     1     -10.443  -1.962  23.693  0.00  0.00    +0.000 A 
ATOM     18  C   UNL     1      -9.940  -2.012  22.389  0.00  0.00    +0.000 A 
ATOM     19  C   UNL     1      -8.768  -2.753  22.140  0.00  0.00    +0.000 A 
ATOM     20  H   UNL     1      -6.420  -4.716  20.837  0.00  0.00    +0.000 HD
ATOM     21  H   UNL     1      -6.117  -4.126  23.265  0.00  0.00    +0.000 HD
ATOM     22  H   UNL     1      -8.058  -3.781  25.332  0.00  0.00    +0.000 HD
ATOM     23  H   UNL     1     -10.259  -2.674  25.710  0.00  0.00    +0.000 HD
ATOM     24  H   UNL     1     -11.378  -1.443  23.883  0.00  0.00    +0.000 HD
ATOM     25  H   UNL     1     -10.488  -1.546  21.576  0.00  0.00    +0.000 HD
ENDBRANCH   6  11
BRANCH   1  30
ATOM     26  C   UNL     1      -8.471 -10.033  18.461  0.00  0.00    +0.000 A 
ATOM     27  C   UNL     1      -8.469 -10.117  19.849  0.00  0.00    +0.000 A 
ATOM     28  C   UNL     1      -8.843  -9.001  20.603  0.00  0.00    +0.000 A 
ATOM     29  C   UNL     1      -9.222  -7.814  19.972  0.00  0.00    +0.000 A 
ATOM     30  C   UNL     1      -9.265  -7.709  18.580  0.00  0.00    +0.000 A 
ATOM     31  C   UNL     1      -8.865  -8.832  17.840  0.00  0.00    +0.000 A 
ATOM     32  H   UNL     1      -8.190 -11.015  20.381  0.00  0.00    +0.000 HD
ATOM     33  H   UNL     1      -8.832  -9.055  21.688  0.00  0.00    +0.000 HD
ATOM     34  H   UNL     1      -9.489  -6.979  20.613  0.00  0.00    +0.000 HD
ATOM     35  H   UNL     1      -8.867  -8.788  16.753  0.00  0.00    +0.000 HD
BRANCH  26  36
ATOM     36  O   UNL     1      -8.135 -11.033  17.598  0.00  0.00    +0.000 OA
BRANCH  36  37
ATOM     37  C   UNL     1      -9.185 -11.744  16.934  0.00  0.00    +0.000 C 
ATOM     38  F   UNL     1     -10.372 -11.136  17.189  0.00  0.00    +0.000 F 
ATOM     39  F   UNL     1      -9.246 -13.007  17.440  0.00  0.00    +0.000 F 
BRANCH  37  41
ATOM     40  F   UNL     1      -9.233 -13.038  14.926  0.00  0.00    +0.000 F 
ATOM     41  C   UNL     1      -8.920 -11.814  15.430  0.00  0.00    +0.000 C 
ATOM     42  F   UNL     1      -9.684 -10.916  14.750  0.00  0.00    +0.000 F 
ATOM     43  H   UNL     1      -7.870 -11.608  15.204  0.00  0.00    +0.000 HD
ENDBRANCH  37  41
ENDBRANCH  36  37
ENDBRANCH  26  36
ENDBRANCH   1  30
TORSDOF 5
ENDMDL
MODEL 7
REMARK VINA RESULT:   -10.767      7.778     10.982
REMARK INTER + INTRA:         -14.247
REMARK INTER:                 -13.499
REMARK INTRA:                  -0.747
REMARK UNBOUND:                -0.332
REMARK  Name = 
REMARK  5 active torsions:
REMARK  status: ('A' for Active; 'I' for Inactive)
REMARK    1  A    between atoms: C_2  and  C_4
REMARK    2  A    between atoms: C_4  and  O_7
REMARK    3  A    between atoms: O_7  and  C_8
REMARK    4  A    between atoms: C_12  and  N_13
REMARK    5  A    between atoms: C_18  and  C_19
REMARK                            x       y       z     vdW  Elec       q    Type
REMARK                         _______ _______ _______ _____ _____    ______ ____
ROOT
ATOM      1  N   UNL     1      -6.270  -2.700  22.127  0.00  0.00    +0.000 N 
ATOM      2  C   UNL     1      -6.139  -3.723  21.189  0.00  0.00    +0.000 A 
ATOM      3  N   UNL     1      -4.890  -4.030  20.805  0.00  0.00    +0.000 NA
ATOM      4  C   UNL     1      -4.735  -5.105  20.000  0.00  0.00    +0.000 A 
ATOM      5  C   UNL     1      -5.771  -5.897  19.571  0.00  0.00    +0.000 A 
ATOM      6  C   UNL     1      -7.006  -5.489  19.996  0.00  0.00    +0.000 A 
ATOM      7  N   UNL     1      -7.205  -4.408  20.772  0.00  0.00    +0.000 NA
ATOM      8  H   UNL     1      -5.345  -2.431  22.432  0.00  0.00    +0.000 HD
ATOM      9  H   UNL     1      -3.709  -5.337  19.735  0.00  0.00    +0.000 HD
ATOM     10  H   UNL     1      -5.617  -6.787  18.980  0.00  0.00    +0.000 HD
ENDROOT
BRANCH   6  11
ATOM     11  C   UNL     1      -8.194  -6.302  19.827  0.00  0.00    +0.000 A 
ATOM     12  C   UNL     1      -8.205  -7.670  20.027  0.00  0.00    +0.000 A 
ATOM     13  N   UNL     1      -9.362  -8.155  19.478  0.00  0.00    +0.000 N 
ATOM     14  C   UNL     1      -9.880  -7.207  18.625  0.00  0.00    +0.000 A 
ATOM     15  C   UNL     1     -10.750  -7.330  17.537  0.00  0.00    +0.000 A 
ATOM     16  C   UNL     1     -11.101  -6.157  16.863  0.00  0.00    +0.000 A 
ATOM     17  C   UNL     1     -10.681  -4.908  17.320  0.00  0.00    +0.000 A 
ATOM     18  C   UNL     1      -9.787  -4.807  18.390  0.00  0.00    +0.000 A 
ATOM     19  C   UNL     1      -9.316  -5.989  18.997  0.00  0.00    +0.000 A 
ATOM     20  H   UNL     1      -7.472  -8.339  20.459  0.00  0.00    +0.000 HD
ATOM     21  H   UNL     1      -9.681  -9.113  19.535  0.00  0.00    +0.000 HD
ATOM     22  H   UNL     1     -11.076  -8.300  17.178  0.00  0.00    +0.000 HD
ATOM     23  H   UNL     1     -11.705  -6.218  15.961  0.00  0.00    +0.000 HD
ATOM     24  H   UNL     1     -11.002  -4.006  16.808  0.00  0.00    +0.000 HD
ATOM     25  H   UNL     1      -9.411  -3.836  18.697  0.00  0.00    +0.000 HD
ENDBRANCH   6  11
BRANCH   1  30
ATOM     26  C   UNL     1      -8.833  -0.641  23.887  0.00  0.00    +0.000 A 
ATOM     27  C   UNL     1      -9.474  -1.589  24.676  0.00  0.00    +0.000 A 
ATOM     28  C   UNL     1      -9.064  -2.923  24.611  0.00  0.00    +0.000 A 
ATOM     29  C   UNL     1      -8.017  -3.303  23.770  0.00  0.00    +0.000 A 
ATOM     30  C   UNL     1      -7.332  -2.369  22.989  0.00  0.00    +0.000 A 
ATOM     31  C   UNL     1      -7.772  -1.038  23.050  0.00  0.00    +0.000 A 
ATOM     32  H   UNL     1     -10.284  -1.342  25.347  0.00  0.00    +0.000 HD
ATOM     33  H   UNL     1      -9.567  -3.672  25.216  0.00  0.00    +0.000 HD
ATOM     34  H   UNL     1      -7.754  -4.357  23.754  0.00  0.00    +0.000 HD
ATOM     35  H   UNL     1      -7.279  -0.281  22.445  0.00  0.00    +0.000 HD
BRANCH  26  36
ATOM     36  O   UNL     1      -9.119   0.692  23.845  0.00  0.00    +0.000 OA
BRANCH  36  37
ATOM     37  C   UNL     1      -8.606   1.534  24.881  0.00  0.00    +0.000 C 
ATOM     38  F   UNL     1      -7.392   2.017  24.509  0.00  0.00    +0.000 F 
ATOM     39  F   UNL     1      -8.430   0.787  26.006  0.00  0.00    +0.000 F 
BRANCH  37  41
ATOM     40  F   UNL     1     -10.710   2.571  24.429  0.00  0.00    +0.000 F 
ATOM     41  C   UNL     1      -9.578   2.675  25.178  0.00  0.00    +0.000 C 
ATOM     42  F   UNL     1      -9.980   2.660  26.478  0.00  0.00    +0.000 F 
ATOM     43  H   UNL     1      -9.121   3.648  24.974  0.00  0.00    +0.000 HD
ENDBRANCH  37  41
ENDBRANCH  36  37
ENDBRANCH  26  36
ENDBRANCH   1  30
TORSDOF 5
ENDMDL
MODEL 8
REMARK VINA RESULT:   -10.508      6.584      9.788
REMARK INTER + INTRA:         -13.913
REMARK INTER:                 -12.909
REMARK INTRA:                  -1.004
REMARK UNBOUND:                -0.332
REMARK  Name = 
REMARK  5 active torsions:
REMARK  status: ('A' for Active; 'I' for Inactive)
REMARK    1  A    between atoms: C_2  and  C_4
REMARK    2  A    between atoms: C_4  and  O_7
REMARK    3  A    between atoms: O_7  and  C_8
REMARK    4  A    between atoms: C_12  and  N_13
REMARK    5  A    between atoms: C_18  and  C_19
REMARK                            x       y       z     vdW  Elec       q    Type
REMARK                         _______ _______ _______ _____ _____    ______ ____
ROOT
ATOM      1  N   UNL     1      -6.759  -3.142  21.977  0.00  0.00    +0.000 N 
ATOM      2  C   UNL     1      -6.456  -4.124  21.034  0.00  0.00    +0.000 A 
ATOM      3  N   UNL     1      -5.157  -4.287  20.733  0.00  0.00    +0.000 NA
ATOM      4  C   UNL     1      -4.833  -5.321  19.926  0.00  0.00    +0.000 A 
ATOM      5  C   UNL     1      -5.746  -6.209  19.413  0.00  0.00    +0.000 A 
ATOM      6  C   UNL     1      -7.044  -5.944  19.756  0.00  0.00    +0.000 A 
ATOM      7  N   UNL     1      -7.410  -4.908  20.533  0.00  0.00    +0.000 NA
ATOM      8  H   UNL     1      -5.891  -2.783  22.349  0.00  0.00    +0.000 HD
ATOM      9  H   UNL     1      -3.772  -5.437  19.729  0.00  0.00    +0.000 HD
ATOM     10  H   UNL     1      -5.458  -7.064  18.820  0.00  0.00    +0.000 HD
ENDROOT
BRANCH   6  11
ATOM     11  C   UNL     1      -8.124  -6.876  19.493  0.00  0.00    +0.000 A 
ATOM     12  C   UNL     1      -8.472  -7.890  20.364  0.00  0.00    +0.000 A 
ATOM     13  N   UNL     1      -9.282  -8.758  19.680  0.00  0.00    +0.000 N 
ATOM     14  C   UNL     1      -9.144  -8.523  18.331  0.00  0.00    +0.000 A 
ATOM     15  C   UNL     1      -9.383  -9.349  17.227  0.00  0.00    +0.000 A 
ATOM     16  C   UNL     1      -9.148  -8.807  15.961  0.00  0.00    +0.000 A 
ATOM     17  C   UNL     1      -8.790  -7.468  15.803  0.00  0.00    +0.000 A 
ATOM     18  C   UNL     1      -8.526  -6.667  16.918  0.00  0.00    +0.000 A 
ATOM     19  C   UNL     1      -8.626  -7.236  18.203  0.00  0.00    +0.000 A 
ATOM     20  H   UNL     1      -8.172  -8.097  21.383  0.00  0.00    +0.000 HD
ATOM     21  H   UNL     1      -9.752  -9.558  20.079  0.00  0.00    +0.000 HD
ATOM     22  H   UNL     1      -9.659 -10.390  17.348  0.00  0.00    +0.000 HD
ATOM     23  H   UNL     1      -9.239  -9.440  15.082  0.00  0.00    +0.000 HD
ATOM     24  H   UNL     1      -8.657  -7.055  14.807  0.00  0.00    +0.000 HD
ATOM     25  H   UNL     1      -8.181  -5.646  16.786  0.00  0.00    +0.000 HD
ENDBRANCH   6  11
BRANCH   1  30
ATOM     26  C   UNL     1     -10.205  -2.089  22.936  0.00  0.00    +0.000 A 
ATOM     27  C   UNL     1     -10.280  -2.512  24.258  0.00  0.00    +0.000 A 
ATOM     28  C   UNL     1      -9.185  -3.166  24.830  0.00  0.00    +0.000 A 
ATOM     29  C   UNL     1      -8.024  -3.387  24.087  0.00  0.00    +0.000 A 
ATOM     30  C   UNL     1      -7.907  -2.946  22.767  0.00  0.00    +0.000 A 
ATOM     31  C   UNL     1      -9.023  -2.312  22.202  0.00  0.00    +0.000 A 
ATOM     32  H   UNL     1     -11.153  -2.357  24.874  0.00  0.00    +0.000 HD
ATOM     33  H   UNL     1      -9.240  -3.510  25.859  0.00  0.00    +0.000 HD
ATOM     34  H   UNL     1      -7.213  -3.912  24.584  0.00  0.00    +0.000 HD
ATOM     35  H   UNL     1      -8.982  -1.967  21.171  0.00  0.00    +0.000 HD
BRANCH  26  36
ATOM     36  O   UNL     1     -11.186  -1.439  22.247  0.00  0.00    +0.000 OA
BRANCH  36  37
ATOM     37  C   UNL     1     -11.122  -0.014  22.147  0.00  0.00    +0.000 C 
ATOM     38  F   UNL     1     -10.348   0.329  21.084  0.00  0.00    +0.000 F 
ATOM     39  F   UNL     1     -10.529   0.478  23.270  0.00  0.00    +0.000 F 
BRANCH  37  41
ATOM     40  F   UNL     1     -13.484  -0.356  22.247  0.00  0.00    +0.000 F 
ATOM     41  C   UNL     1     -12.524   0.580  22.013  0.00  0.00    +0.000 C 
ATOM     42  F   UNL     1     -12.732   1.572  22.922  0.00  0.00    +0.000 F 
ATOM     43  H   UNL     1     -12.685   0.995  21.014  0.00  0.00    +0.000 HD
ENDBRANCH  37  41
ENDBRANCH  36  37
ENDBRANCH  26  36
ENDBRANCH   1  30
TORSDOF 5
ENDMDL
MODEL 9
REMARK VINA RESULT:   -10.484      2.528      5.337
REMARK INTER + INTRA:         -13.882
REMARK INTER:                 -13.428
REMARK INTRA:                  -0.453
REMARK UNBOUND:                -0.332
REMARK  Name = 
REMARK  5 active torsions:
REMARK  status: ('A' for Active; 'I' for Inactive)
REMARK    1  A    between atoms: C_2  and  C_4
REMARK    2  A    between atoms: C_4  and  O_7
REMARK    3  A    between atoms: O_7  and  C_8
REMARK    4  A    between atoms: C_12  and  N_13
REMARK    5  A    between atoms: C_18  and  C_19
REMARK                            x       y       z     vdW  Elec       q    Type
REMARK                         _______ _______ _______ _____ _____    ______ ____
ROOT
ATOM      1  N   UNL     1      -9.057  -7.235  18.206  0.00  0.00    +0.000 N 
ATOM      2  C   UNL     1      -9.481  -5.909  18.112  0.00  0.00    +0.000 A 
ATOM      3  N   UNL     1      -8.964  -5.048  19.003  0.00  0.00    +0.000 NA
ATOM      4  C   UNL     1      -9.259  -3.739  18.843  0.00  0.00    +0.000 A 
ATOM      5  C   UNL     1     -10.038  -3.247  17.825  0.00  0.00    +0.000 A 
ATOM      6  C   UNL     1     -10.537  -4.205  16.984  0.00  0.00    +0.000 A 
ATOM      7  N   UNL     1     -10.292  -5.520  17.127  0.00  0.00    +0.000 NA
ATOM      8  H   UNL     1      -8.327  -7.284  18.903  0.00  0.00    +0.000 HD
ATOM      9  H   UNL     1      -8.800  -3.072  19.565  0.00  0.00    +0.000 HD
ATOM     10  H   UNL     1     -10.210  -2.191  17.681  0.00  0.00    +0.000 HD
ENDROOT
BRANCH   6  11
ATOM     11  C   UNL     1     -11.201  -3.875  15.738  0.00  0.00    +0.000 A 
ATOM     12  C   UNL     1     -10.730  -4.281  14.504  0.00  0.00    +0.000 A 
ATOM     13  N   UNL     1     -11.385  -3.544  13.553  0.00  0.00    +0.000 N 
ATOM     14  C   UNL     1     -11.960  -2.450  14.158  0.00  0.00    +0.000 A 
ATOM     15  C   UNL     1     -12.350  -1.212  13.636  0.00  0.00    +0.000 A 
ATOM     16  C   UNL     1     -12.921  -0.295  14.522  0.00  0.00    +0.000 A 
ATOM     17  C   UNL     1     -13.182  -0.639  15.848  0.00  0.00    +0.000 A 
ATOM     18  C   UNL     1     -12.758  -1.869  16.360  0.00  0.00    +0.000 A 
ATOM     19  C   UNL     1     -12.059  -2.753  15.514  0.00  0.00    +0.000 A 
ATOM     20  H   UNL     1      -9.954  -4.982  14.226  0.00  0.00    +0.000 HD
ATOM     21  H   UNL     1     -11.301  -3.670  12.554  0.00  0.00    +0.000 HD
ATOM     22  H   UNL     1     -12.146  -0.942  12.606  0.00  0.00    +0.000 HD
ATOM     23  H   UNL     1     -13.159   0.707  14.176  0.00  0.00    +0.000 HD
ATOM     24  H   UNL     1     -13.668   0.073  16.509  0.00  0.00    +0.000 HD
ATOM     25  H   UNL     1     -12.904  -2.101  17.411  0.00  0.00    +0.000 HD
ENDBRANCH   6  11
BRANCH   1  30
ATOM     26  C   UNL     1      -9.427 -10.683  16.835  0.00  0.00    +0.000 A 
ATOM     27  C   UNL     1      -9.224 -10.477  15.476  0.00  0.00    +0.000 A 
ATOM     28  C   UNL     1      -8.978  -9.183  15.008  0.00  0.00    +0.000 A 
ATOM     29  C   UNL     1      -8.930  -8.106  15.896  0.00  0.00    +0.000 A 
ATOM     30  C   UNL     1      -9.099  -8.285  17.271  0.00  0.00    +0.000 A 
ATOM     31  C   UNL     1      -9.366  -9.587  17.719  0.00  0.00    +0.000 A 
ATOM     32  H   UNL     1      -9.244 -11.279  14.752  0.00  0.00    +0.000 HD
ATOM     33  H   UNL     1      -8.830  -9.011  13.946  0.00  0.00    +0.000 HD
ATOM     34  H   UNL     1      -8.749  -7.123  15.470  0.00  0.00    +0.000 HD
ATOM     35  H   UNL     1      -9.521  -9.770  18.780  0.00  0.00    +0.000 HD
BRANCH  26  36
ATOM     36  O   UNL     1      -9.673 -11.882  17.435  0.00  0.00    +0.000 OA
BRANCH  36  37
ATOM     37  C   UNL     1      -8.562 -12.712  17.785  0.00  0.00    +0.000 C 
ATOM     38  F   UNL     1      -7.778 -12.060  18.683  0.00  0.00    +0.000 F 
ATOM     39  F   UNL     1      -7.816 -12.939  16.669  0.00  0.00    +0.000 F 
BRANCH  37  41
ATOM     40  F   UNL     1      -9.243 -14.963  17.364  0.00  0.00    +0.000 F 
ATOM     41  C   UNL     1      -9.045 -14.047  18.351  0.00  0.00    +0.000 C 
ATOM     42  F   UNL     1      -8.125 -14.590  19.194  0.00  0.00    +0.000 F 
ATOM     43  H   UNL     1      -9.982 -13.927  18.902  0.00  0.00    +0.000 HD
ENDBRANCH  37  41
ENDBRANCH  36  37
ENDBRANCH  26  36
ENDBRANCH   1  30
TORSDOF 5
ENDMDL
