
 OpenBabel01112422223D

 67 74  0  0  1  0  0  0  0  0999 V2000
    7.0260   -1.1312    0.2805 C   0  0  0  0  0  0  0  0  0  0  0  0
    5.8425   -1.3371    1.0360 O   0  0  0  0  0  0  0  0  0  0  0  0
    4.7123   -1.2968    0.2781 C   0  0  0  0  0  0  0  0  0  0  0  0
    4.7259   -1.1965   -0.9375 O   0  0  0  0  0  0  0  0  0  0  0  0
    3.5316   -1.3318    1.0533 N   0  0  0  0  0  0  0  0  0  0  0  0
    3.5735   -1.4186    2.4972 C   0  0  0  0  0  0  0  0  0  0  0  0
    2.2830   -0.9110    0.4014 C   0  0  1  0  0  0  0  0  0  0  0  0
    1.3145   -2.0285   -0.0134 C   0  0  0  0  0  0  0  0  0  0  0  0
    0.0718   -1.3696   -0.6364 C   0  0  2  0  0  0  0  0  0  0  0  0
    0.5940   -0.1188   -1.2643 O   0  0  0  0  0  0  0  0  0  0  0  0
    0.8547    0.9766   -0.3108 C   0  0  2  0  0  0  0  0  0  0  0  0
    2.0280    1.9489   -0.6693 C   0  0  0  0  0  0  0  0  0  0  0  0
    1.4861    0.3046    1.0124 C   0  0  1  0  0  0  0  0  0  0  0  0
    0.5944   -0.1242    2.0346 O   0  0  0  0  0  0  0  0  0  0  0  0
    0.1413    0.9595    2.8415 C   0  0  0  0  0  0  0  0  0  0  0  0
   -0.3878    1.7193   -0.4572 N   0  0  0  0  0  0  0  0  0  0  0  0
   -0.7563    2.7101   -1.4579 C   0  0  0  0  0  0  0  0  0  0  0  0
   -0.0120    3.7184   -2.1132 C   0  0  0  0  0  0  0  0  0  0  0  0
   -0.6549    4.6544   -2.9331 C   0  0  0  0  0  0  0  0  0  0  0  0
   -2.0105    4.5803   -3.1868 C   0  0  0  0  0  0  0  0  0  0  0  0
   -2.7413    3.4851   -2.7359 C   0  0  0  0  0  0  0  0  0  0  0  0
   -2.1585    2.5460   -1.8666 C   0  0  0  0  0  0  0  0  0  0  0  0
   -2.6801    1.4560   -1.1617 C   0  0  0  0  0  0  0  0  0  0  0  0
   -3.6062    0.4804   -1.6050 C   0  0  0  0  0  0  0  0  0  0  0  0
   -4.1008   -0.3177   -0.4854 C   0  0  0  0  0  0  0  0  0  0  0  0
   -3.2277   -0.0888    0.7157 C   0  0  0  0  0  0  0  0  0  0  0  0
   -2.9762   -1.2221    1.5489 C   0  0  0  0  0  0  0  0  0  0  0  0
   -2.5120   -1.3589    2.8898 C   0  0  0  0  0  0  0  0  0  0  0  0
   -2.3846   -2.6486    3.3761 C   0  0  0  0  0  0  0  0  0  0  0  0
   -2.5830   -3.6625    2.4613 C   0  0  0  0  0  0  0  0  0  0  0  0
   -2.3334   -3.4233    1.0728 C   0  0  0  0  0  0  0  0  0  0  0  0
   -2.1172   -2.0648    0.7511 C   0  0  0  0  0  0  0  0  0  0  0  0
   -1.1297   -1.1679    0.2214 N   0  0  0  0  0  0  0  0  0  0  0  0
   -1.8377    0.0067    0.3720 C   0  0  0  0  0  0  0  0  0  0  0  0
   -1.5858    1.1137   -0.3700 C   0  0  0  0  0  0  0  0  0  0  0  0
   -4.5611   -1.5827   -0.9986 C   0  0  0  0  0  0  0  0  0  0  0  0
   -5.1922   -2.5100   -0.4957 O   0  0  0  0  0  0  0  0  0  0  0  0
   -4.0147   -1.6772   -2.2687 N   0  0  0  0  0  0  0  0  0  0  0  0
   -3.3664   -0.4591   -2.7551 C   0  0  0  0  0  0  0  0  0  0  0  0
    7.8813   -1.3244    0.9416 H   0  0  0  0  0  0  0  0  0  0  0  0
    7.0621   -0.0743   -0.0416 H   0  0  0  0  0  0  0  0  0  0  0  0
    7.0917   -1.7884   -0.5912 H   0  0  0  0  0  0  0  0  0  0  0  0
    3.7445   -0.4111    2.8927 H   0  0  0  0  0  0  0  0  0  0  0  0
    2.6303   -1.8212    2.8722 H   0  0  0  0  0  0  0  0  0  0  0  0
    4.3921   -2.0692    2.8171 H   0  0  0  0  0  0  0  0  0  0  0  0
    2.6689   -0.5264   -0.5492 H   0  0  0  0  0  0  0  0  0  0  0  0
    1.0805   -2.7352    0.7859 H   0  0  0  0  0  0  0  0  0  0  0  0
    1.8173   -2.6014   -0.8070 H   0  0  0  0  0  0  0  0  0  0  0  0
   -0.2897   -1.9866   -1.4687 H   0  0  0  0  0  0  0  0  0  0  0  0
    2.9155    1.8379   -0.0372 H   0  0  0  0  0  0  0  0  0  0  0  0
    2.3831    1.8475   -1.6966 H   0  0  0  0  0  0  0  0  0  0  0  0
    1.7664    2.9858   -0.4079 H   0  0  0  0  0  0  0  0  0  0  0  0
    2.2048    0.9585    1.5205 H   0  0  0  0  0  0  0  0  0  0  0  0
    0.4009    0.7412    3.8799 H   0  0  0  0  0  0  0  0  0  0  0  0
   -0.9416    1.0500    2.7663 H   0  0  0  0  0  0  0  0  0  0  0  0
    0.5680    1.9220    2.5471 H   0  0  0  0  0  0  0  0  0  0  0  0
    1.0574    3.8428   -1.9913 H   0  0  0  0  0  0  0  0  0  0  0  0
   -0.0688    5.4762   -3.3457 H   0  0  0  0  0  0  0  0  0  0  0  0
   -2.5051    5.3758   -3.7379 H   0  0  0  0  0  0  0  0  0  0  0  0
   -3.8043    3.4226   -2.9386 H   0  0  0  0  0  0  0  0  0  0  0  0
   -2.1113   -0.5266    3.4547 H   0  0  0  0  0  0  0  0  0  0  0  0
   -2.1797   -2.8309    4.4242 H   0  0  0  0  0  0  0  0  0  0  0  0
   -3.0000   -4.6047    2.8136 H   0  0  0  0  0  0  0  0  0  0  0  0
   -3.0663   -3.9871    0.4676 H   0  0  0  0  0  0  0  0  0  0  0  0
   -3.6328   -2.5898   -2.4716 H   0  0  0  0  0  0  0  0  0  0  0  0
   -2.2933   -0.6820   -2.8712 H   0  0  0  0  0  0  0  0  0  0  0  0
   -3.8067   -0.1704   -3.7072 H   0  0  0  0  0  0  0  0  0  0  0  0
  1  2  1  0  0  0  0
  1 40  1  0  0  0  0
  1 41  1  0  0  0  0
  1 42  1  0  0  0  0
  2  3  1  0  0  0  0
  3  4  2  0  0  0  0
  3  5  1  0  0  0  0
  5  6  1  0  0  0  0
  6 43  1  0  0  0  0
  6 44  1  0  0  0  0
  6 45  1  0  0  0  0
  7  8  1  0  0  0  0
  7 13  1  0  0  0  0
  7  5  1  0  0  0  0
  7 46  1  6  0  0  0
  8  9  1  0  0  0  0
  8 47  1  0  0  0  0
  8 48  1  0  0  0  0
  9 10  1  0  0  0  0
  9 33  1  0  0  0  0
  9 49  1  6  0  0  0
 10 11  1  0  0  0  0
 11 12  1  6  0  0  0
 11 13  1  0  0  0  0
 11 16  1  0  0  0  0
 12 50  1  0  0  0  0
 12 51  1  0  0  0  0
 12 52  1  0  0  0  0
 13 14  1  0  0  0  0
 13 53  1  1  0  0  0
 14 15  1  0  0  0  0
 15 54  1  0  0  0  0
 15 55  1  0  0  0  0
 15 56  1  0  0  0  0
 16 17  1  0  0  0  0
 16 35  1  0  0  0  0
 17 18  1  0  0  0  0
 17 22  2  0  0  0  0
 18 19  2  0  0  0  0
 18 57  1  0  0  0  0
 19 20  1  0  0  0  0
 19 58  1  0  0  0  0
 20 21  2  0  0  0  0
 20 59  1  0  0  0  0
 21 22  1  0  0  0  0
 21 60  1  0  0  0  0
 22 23  1  0  0  0  0
 23 24  1  0  0  0  0
 23 35  2  0  0  0  0
 24 25  2  0  0  0  0
 24 39  1  0  0  0  0
 25 26  1  0  0  0  0
 25 36  1  0  0  0  0
 26 27  1  0  0  0  0
 26 34  2  0  0  0  0
 27 28  1  0  0  0  0
 27 32  2  0  0  0  0
 28 29  2  0  0  0  0
 28 61  1  0  0  0  0
 29 30  1  0  0  0  0
 29 62  1  0  0  0  0
 30 31  2  0  0  0  0
 30 63  1  0  0  0  0
 31 32  1  0  0  0  0
 31 64  1  0  0  0  0
 32 33  1  0  0  0  0
 33 34  1  0  0  0  0
 34 35  1  0  0  0  0
 36 37  2  0  0  0  0
 36 38  1  0  0  0  0
 38 39  1  0  0  0  0
 38 65  1  0  0  0  0
 39 66  1  0  0  0  0
 39 67  1  0  0  0  0
M  END
$$$$
