MODEL 1
REMARK VINA RESULT:   -11.766      0.000      0.000
REMARK INTER + INTRA:         -17.443
REMARK INTER:                 -16.581
REMARK INTRA:                  -0.862
REMARK UNBOUND:                -0.862
REMARK  Name = 
REMARK  8 active torsions:
REMARK  status: ('A' for Active; 'I' for Inactive)
REMARK    1  A    between atoms: C_1  and  C_2
REMARK    2  A    between atoms: C_8  and  C_9
REMARK    3  A    between atoms: C_13  and  O_14
REMARK    4  A    between atoms: O_14  and  C_15
REMARK    5  A    between atoms: C_15  and  C_16
REMARK    6  A    between atoms: C_16  and  N_17
REMARK    7  A    between atoms: C_16  and  C_18
REMARK    8  A    between atoms: C_18  and  C_19
REMARK                            x       y       z     vdW  Elec       q    Type
REMARK                         _______ _______ _______ _____ _____    ______ ____
ROOT
ATOM      1  C   UNL     1      -8.792  -6.314  18.375  0.00  0.00    +0.000 A 
ATOM      2  C   UNL     1      -9.967  -5.580  18.192  0.00  0.00    +0.000 A 
ATOM      3  N   UNL     1     -11.102  -6.053  17.621  0.00  0.00    +0.000 NA
ATOM      4  C   UNL     1     -11.078  -7.342  17.216  0.00  0.00    +0.000 A 
ATOM      5  C   UNL     1      -9.981  -8.182  17.345  0.00  0.00    +0.000 A 
ATOM      6  C   UNL     1      -8.828  -7.646  17.920  0.00  0.00    +0.000 A 
ATOM      7  H   UNL     1     -10.048  -4.548  18.525  0.00  0.00    +0.000 HD
ATOM      8  H   UNL     1     -12.002  -7.699  16.769  0.00  0.00    +0.000 HD
ATOM      9  H   UNL     1      -7.935  -8.253  18.015  0.00  0.00    +0.000 HD
ENDROOT
BRANCH   1  16
ATOM     10  C   UNL     1      -6.299  -3.449  21.826  0.00  0.00    +0.000 A 
ATOM     11  N   UNL     1      -4.987  -3.241  21.995  0.00  0.00    +0.000 NA
ATOM     12  N   UNL     1      -4.418  -3.969  21.018  0.00  0.00    +0.000 N 
ATOM     13  C   UNL     1      -5.309  -4.645  20.230  0.00  0.00    +0.000 A 
ATOM     14  C   UNL     1      -5.132  -5.502  19.144  0.00  0.00    +0.000 A 
ATOM     15  C   UNL     1      -6.289  -6.042  18.562  0.00  0.00    +0.000 A 
ATOM     16  C   UNL     1      -7.587  -5.737  19.018  0.00  0.00    +0.000 A 
ATOM     17  C   UNL     1      -7.706  -4.856  20.116  0.00  0.00    +0.000 A 
ATOM     18  C   UNL     1      -6.560  -4.316  20.731  0.00  0.00    +0.000 A 
ATOM     19  H   UNL     1      -3.408  -3.964  20.945  0.00  0.00    +0.000 HD
ATOM     20  H   UNL     1      -4.146  -5.751  18.765  0.00  0.00    +0.000 HD
ATOM     21  H   UNL     1      -6.149  -6.732  17.730  0.00  0.00    +0.000 HD
ATOM     22  H   UNL     1      -8.680  -4.567  20.500  0.00  0.00    +0.000 HD
BRANCH  10  23
ATOM     23  C   UNL     1      -7.287  -2.814  22.732  0.00  0.00    +0.000 C 
ATOM     24  H   UNL     1      -7.852  -3.561  23.301  0.00  0.00    +0.000 HD
ATOM     25  H   UNL     1      -8.001  -2.217  22.157  0.00  0.00    +0.000 HD
ATOM     26  H   UNL     1      -6.783  -2.155  23.445  0.00  0.00    +0.000 HD
ENDBRANCH  10  23
ENDBRANCH   1  16
BRANCH   5  27
ATOM     27  O   UNL     1     -10.144  -9.460  16.892  0.00  0.00    +0.000 OA
BRANCH  27  28
ATOM     28  C   UNL     1     -10.698  -9.619  15.580  0.00  0.00    +0.000 C 
ATOM     29  H   UNL     1     -10.999  -8.641  15.186  0.00  0.00    +0.000 HD
ATOM     30  H   UNL     1     -11.568 -10.287  15.622  0.00  0.00    +0.000 HD
BRANCH  28  31
ATOM     31  C   UNL     1      -9.622 -10.230  14.652  0.00  0.00    +0.000 C 
ATOM     32  H   UNL     1     -10.074 -11.059  14.094  0.00  0.00    +0.000 HD
BRANCH  31  33
ATOM     33  N   UNL     1      -9.184  -9.241  13.649  0.00  0.00    +0.000 NA
ATOM     34  H   UNL     1      -8.670  -8.483  14.100  0.00  0.00    +0.000 HD
ATOM     35  H   UNL     1     -10.014  -8.811  13.235  0.00  0.00    +0.000 HD
ENDBRANCH  31  33
BRANCH  31  36
ATOM     36  C   UNL     1      -8.449 -10.762  15.506  0.00  0.00    +0.000 C 
ATOM     37  H   UNL     1      -8.349 -10.138  16.405  0.00  0.00    +0.000 HD
ATOM     38  H   UNL     1      -7.502 -10.638  14.962  0.00  0.00    +0.000 HD
BRANCH  36  39
ATOM     39  C   UNL     1      -8.584 -12.200  15.940  0.00  0.00    +0.000 A 
ATOM     40  C   UNL     1      -8.710 -13.234  14.998  0.00  0.00    +0.000 A 
ATOM     41  C   UNL     1      -8.842 -14.564  15.415  0.00  0.00    +0.000 A 
ATOM     42  C   UNL     1      -8.837 -14.875  16.776  0.00  0.00    +0.000 A 
ATOM     43  C   UNL     1      -8.705 -13.855  17.710  0.00  0.00    +0.000 A 
ATOM     44  F   UNL     1      -8.710 -14.157  19.016  0.00  0.00    +0.000 F 
ATOM     45  C   UNL     1      -8.583 -12.532  17.299  0.00  0.00    +0.000 A 
ATOM     46  F   UNL     1      -8.482 -11.561  18.221  0.00  0.00    +0.000 F 
ATOM     47  H   UNL     1      -8.712 -13.010  13.933  0.00  0.00    +0.000 HD
ATOM     48  H   UNL     1      -8.947 -15.357  14.678  0.00  0.00    +0.000 HD
ATOM     49  H   UNL     1      -8.937 -15.902  17.111  0.00  0.00    +0.000 HD
ENDBRANCH  36  39
ENDBRANCH  31  36
ENDBRANCH  28  31
ENDBRANCH  27  28
ENDBRANCH   5  27
TORSDOF 8
ENDMDL
MODEL 2
REMARK VINA RESULT:   -11.379      3.716      9.796
REMARK INTER + INTRA:         -16.897
REMARK INTER:                 -16.450
REMARK INTRA:                  -0.447
REMARK UNBOUND:                -0.862
REMARK  Name = 
REMARK  8 active torsions:
REMARK  status: ('A' for Active; 'I' for Inactive)
REMARK    1  A    between atoms: C_1  and  C_2
REMARK    2  A    between atoms: C_8  and  C_9
REMARK    3  A    between atoms: C_13  and  O_14
REMARK    4  A    between atoms: O_14  and  C_15
REMARK    5  A    between atoms: C_15  and  C_16
REMARK    6  A    between atoms: C_16  and  N_17
REMARK    7  A    between atoms: C_16  and  C_18
REMARK    8  A    between atoms: C_18  and  C_19
REMARK                            x       y       z     vdW  Elec       q    Type
REMARK                         _______ _______ _______ _____ _____    ______ ____
ROOT
ATOM      1  C   UNL     1      -9.476  -8.024  17.307  0.00  0.00    +0.000 A 
ATOM      2  C   UNL     1     -10.743  -7.435  17.338  0.00  0.00    +0.000 A 
ATOM      3  N   UNL     1     -11.031  -6.232  17.893  0.00  0.00    +0.000 NA
ATOM      4  C   UNL     1      -9.995  -5.560  18.441  0.00  0.00    +0.000 A 
ATOM      5  C   UNL     1      -8.688  -6.027  18.472  0.00  0.00    +0.000 A 
ATOM      6  C   UNL     1      -8.443  -7.280  17.907  0.00  0.00    +0.000 A 
ATOM      7  H   UNL     1     -11.604  -7.921  16.887  0.00  0.00    +0.000 HD
ATOM      8  H   UNL     1     -10.250  -4.596  18.872  0.00  0.00    +0.000 HD
ATOM      9  H   UNL     1      -7.444  -7.702  17.934  0.00  0.00    +0.000 HD
ENDROOT
BRANCH   1  16
ATOM     10  C   UNL     1      -8.667 -13.092  17.305  0.00  0.00    +0.000 A 
ATOM     11  N   UNL     1      -8.472 -13.939  16.287  0.00  0.00    +0.000 NA
ATOM     12  N   UNL     1      -8.525 -13.149  15.200  0.00  0.00    +0.000 N 
ATOM     13  C   UNL     1      -8.755 -11.829  15.474  0.00  0.00    +0.000 A 
ATOM     14  C   UNL     1      -8.892 -10.714  14.648  0.00  0.00    +0.000 A 
ATOM     15  C   UNL     1      -9.137  -9.482  15.274  0.00  0.00    +0.000 A 
ATOM     16  C   UNL     1      -9.228  -9.342  16.674  0.00  0.00    +0.000 A 
ATOM     17  C   UNL     1      -9.072 -10.505  17.461  0.00  0.00    +0.000 A 
ATOM     18  C   UNL     1      -8.845 -11.756  16.856  0.00  0.00    +0.000 A 
ATOM     19  H   UNL     1      -8.399 -13.579  14.291  0.00  0.00    +0.000 HD
ATOM     20  H   UNL     1      -8.821 -10.788  13.568  0.00  0.00    +0.000 HD
ATOM     21  H   UNL     1      -9.270  -8.615  14.627  0.00  0.00    +0.000 HD
ATOM     22  H   UNL     1      -9.111 -10.457  18.545  0.00  0.00    +0.000 HD
BRANCH  10  23
ATOM     23  C   UNL     1      -8.690 -13.586  18.704  0.00  0.00    +0.000 C 
ATOM     24  H   UNL     1      -9.002 -14.635  18.757  0.00  0.00    +0.000 HD
ATOM     25  H   UNL     1      -9.389 -12.995  19.304  0.00  0.00    +0.000 HD
ATOM     26  H   UNL     1      -7.696 -13.505  19.154  0.00  0.00    +0.000 HD
ENDBRANCH  10  23
ENDBRANCH   1  16
BRANCH   5  27
ATOM     27  O   UNL     1      -7.768  -5.206  19.056  0.00  0.00    +0.000 OA
BRANCH  27  28
ATOM     28  C   UNL     1      -7.727  -5.189  20.489  0.00  0.00    +0.000 C 
ATOM     29  H   UNL     1      -6.794  -5.649  20.837  0.00  0.00    +0.000 HD
ATOM     30  H   UNL     1      -8.586  -5.741  20.891  0.00  0.00    +0.000 HD
BRANCH  28  31
ATOM     31  C   UNL     1      -7.782  -3.722  20.975  0.00  0.00    +0.000 C 
ATOM     32  H   UNL     1      -7.187  -3.106  20.290  0.00  0.00    +0.000 HD
BRANCH  31  33
ATOM     33  N   UNL     1      -9.162  -3.208  20.908  0.00  0.00    +0.000 NA
ATOM     34  H   UNL     1      -9.228  -2.306  21.383  0.00  0.00    +0.000 HD
ATOM     35  H   UNL     1      -9.770  -3.845  21.429  0.00  0.00    +0.000 HD
ENDBRANCH  31  33
BRANCH  31  36
ATOM     36  C   UNL     1      -7.188  -3.631  22.399  0.00  0.00    +0.000 C 
ATOM     37  H   UNL     1      -6.107  -3.450  22.326  0.00  0.00    +0.000 HD
ATOM     38  H   UNL     1      -7.285  -4.599  22.909  0.00  0.00    +0.000 HD
BRANCH  36  39
ATOM     39  C   UNL     1      -7.790  -2.554  23.268  0.00  0.00    +0.000 A 
ATOM     40  C   UNL     1      -7.652  -1.195  22.940  0.00  0.00    +0.000 A 
ATOM     41  C   UNL     1      -8.208  -0.207  23.761  0.00  0.00    +0.000 A 
ATOM     42  C   UNL     1      -8.916  -0.565  24.908  0.00  0.00    +0.000 A 
ATOM     43  C   UNL     1      -9.061  -1.909  25.231  0.00  0.00    +0.000 A 
ATOM     44  F   UNL     1      -9.735  -2.249  26.339  0.00  0.00    +0.000 F 
ATOM     45  C   UNL     1      -8.502  -2.894  24.423  0.00  0.00    +0.000 A 
ATOM     46  F   UNL     1      -8.633  -4.184  24.769  0.00  0.00    +0.000 F 
ATOM     47  H   UNL     1      -7.105  -0.898  22.047  0.00  0.00    +0.000 HD
ATOM     48  H   UNL     1      -8.089   0.844  23.503  0.00  0.00    +0.000 HD
ATOM     49  H   UNL     1      -9.354   0.192  25.550  0.00  0.00    +0.000 HD
ENDBRANCH  36  39
ENDBRANCH  31  36
ENDBRANCH  28  31
ENDBRANCH  27  28
ENDBRANCH   5  27
TORSDOF 8
ENDMDL
MODEL 3
REMARK VINA RESULT:   -10.833      4.145     10.006
REMARK INTER + INTRA:         -16.129
REMARK INTER:                 -15.428
REMARK INTRA:                  -0.700
REMARK UNBOUND:                -0.862
REMARK  Name = 
REMARK  8 active torsions:
REMARK  status: ('A' for Active; 'I' for Inactive)
REMARK    1  A    between atoms: C_1  and  C_2
REMARK    2  A    between atoms: C_8  and  C_9
REMARK    3  A    between atoms: C_13  and  O_14
REMARK    4  A    between atoms: O_14  and  C_15
REMARK    5  A    between atoms: C_15  and  C_16
REMARK    6  A    between atoms: C_16  and  N_17
REMARK    7  A    between atoms: C_16  and  C_18
REMARK    8  A    between atoms: C_18  and  C_19
REMARK                            x       y       z     vdW  Elec       q    Type
REMARK                         _______ _______ _______ _____ _____    ______ ____
ROOT
ATOM      1  C   UNL     1      -9.172  -7.117  18.539  0.00  0.00    +0.000 A 
ATOM      2  C   UNL     1     -10.060  -6.541  17.626  0.00  0.00    +0.000 A 
ATOM      3  N   UNL     1     -10.329  -5.216  17.529  0.00  0.00    +0.000 NA
ATOM      4  C   UNL     1      -9.665  -4.405  18.382  0.00  0.00    +0.000 A 
ATOM      5  C   UNL     1      -8.752  -4.845  19.330  0.00  0.00    +0.000 A 
ATOM      6  C   UNL     1      -8.523  -6.219  19.407  0.00  0.00    +0.000 A 
ATOM      7  H   UNL     1     -10.598  -7.146  16.901  0.00  0.00    +0.000 HD
ATOM      8  H   UNL     1      -9.892  -3.347  18.278  0.00  0.00    +0.000 HD
ATOM      9  H   UNL     1      -7.842  -6.615  20.153  0.00  0.00    +0.000 HD
ENDROOT
BRANCH   1  16
ATOM     10  C   UNL     1      -8.757 -11.819  16.525  0.00  0.00    +0.000 A 
ATOM     11  N   UNL     1      -8.448 -12.986  17.104  0.00  0.00    +0.000 NA
ATOM     12  N   UNL     1      -8.265 -12.664  18.396  0.00  0.00    +0.000 N 
ATOM     13  C   UNL     1      -8.435 -11.335  18.674  0.00  0.00    +0.000 A 
ATOM     14  C   UNL     1      -8.326 -10.608  19.859  0.00  0.00    +0.000 A 
ATOM     15  C   UNL     1      -8.563  -9.227  19.784  0.00  0.00    +0.000 A 
ATOM     16  C   UNL     1      -8.916  -8.577  18.585  0.00  0.00    +0.000 A 
ATOM     17  C   UNL     1      -9.022  -9.366  17.418  0.00  0.00    +0.000 A 
ATOM     18  C   UNL     1      -8.769 -10.751  17.462  0.00  0.00    +0.000 A 
ATOM     19  H   UNL     1      -8.020 -13.405  19.043  0.00  0.00    +0.000 HD
ATOM     20  H   UNL     1      -8.061 -11.080  20.799  0.00  0.00    +0.000 HD
ATOM     21  H   UNL     1      -8.451  -8.655  20.705  0.00  0.00    +0.000 HD
ATOM     22  H   UNL     1      -9.311  -8.926  16.468  0.00  0.00    +0.000 HD
BRANCH  10  23
ATOM     23  C   UNL     1      -9.027 -11.747  15.068  0.00  0.00    +0.000 C 
ATOM     24  H   UNL     1      -8.738 -10.775  14.651  0.00  0.00    +0.000 HD
ATOM     25  H   UNL     1     -10.094 -11.894  14.872  0.00  0.00    +0.000 HD
ATOM     26  H   UNL     1      -8.468 -12.523  14.537  0.00  0.00    +0.000 HD
ENDBRANCH  10  23
ENDBRANCH   1  16
BRANCH   5  27
ATOM     27  O   UNL     1      -8.167  -3.879  20.097  0.00  0.00    +0.000 OA
BRANCH  27  28
ATOM     28  C   UNL     1      -7.140  -4.302  21.003  0.00  0.00    +0.000 C 
ATOM     29  H   UNL     1      -6.165  -4.258  20.503  0.00  0.00    +0.000 HD
ATOM     30  H   UNL     1      -7.340  -5.328  21.338  0.00  0.00    +0.000 HD
BRANCH  28  31
ATOM     31  C   UNL     1      -7.127  -3.352  22.224  0.00  0.00    +0.000 C 
ATOM     32  H   UNL     1      -6.906  -3.943  23.121  0.00  0.00    +0.000 HD
BRANCH  31  33
ATOM     33  N   UNL     1      -6.040  -2.364  22.097  0.00  0.00    +0.000 NA
ATOM     34  H   UNL     1      -6.395  -1.498  21.688  0.00  0.00    +0.000 HD
ATOM     35  H   UNL     1      -5.350  -2.726  21.435  0.00  0.00    +0.000 HD
ENDBRANCH  31  33
BRANCH  31  36
ATOM     36  C   UNL     1      -8.513  -2.688  22.373  0.00  0.00    +0.000 C 
ATOM     37  H   UNL     1      -9.281  -3.470  22.449  0.00  0.00    +0.000 HD
ATOM     38  H   UNL     1      -8.762  -2.128  21.460  0.00  0.00    +0.000 HD
BRANCH  36  39
ATOM     39  C   UNL     1      -8.652  -1.772  23.564  0.00  0.00    +0.000 A 
ATOM     40  C   UNL     1      -8.588  -0.377  23.418  0.00  0.00    +0.000 A 
ATOM     41  C   UNL     1      -8.710   0.461  24.533  0.00  0.00    +0.000 A 
ATOM     42  C   UNL     1      -8.910  -0.086  25.801  0.00  0.00    +0.000 A 
ATOM     43  C   UNL     1      -8.982  -1.466  25.948  0.00  0.00    +0.000 A 
ATOM     44  F   UNL     1      -9.165  -1.987  27.169  0.00  0.00    +0.000 F 
ATOM     45  C   UNL     1      -8.852  -2.302  24.843  0.00  0.00    +0.000 A 
ATOM     46  F   UNL     1      -8.899  -3.632  25.013  0.00  0.00    +0.000 F 
ATOM     47  H   UNL     1      -8.436   0.067  22.436  0.00  0.00    +0.000 HD
ATOM     48  H   UNL     1      -8.650   1.540  24.411  0.00  0.00    +0.000 HD
ATOM     49  H   UNL     1      -9.008   0.553  26.672  0.00  0.00    +0.000 HD
ENDBRANCH  36  39
ENDBRANCH  31  36
ENDBRANCH  28  31
ENDBRANCH  27  28
ENDBRANCH   5  27
TORSDOF 8
ENDMDL
MODEL 4
REMARK VINA RESULT:   -10.633      1.423      2.117
REMARK INTER + INTRA:         -15.847
REMARK INTER:                 -15.000
REMARK INTRA:                  -0.847
REMARK UNBOUND:                -0.862
REMARK  Name = 
REMARK  8 active torsions:
REMARK  status: ('A' for Active; 'I' for Inactive)
REMARK    1  A    between atoms: C_1  and  C_2
REMARK    2  A    between atoms: C_8  and  C_9
REMARK    3  A    between atoms: C_13  and  O_14
REMARK    4  A    between atoms: O_14  and  C_15
REMARK    5  A    between atoms: C_15  and  C_16
REMARK    6  A    between atoms: C_16  and  N_17
REMARK    7  A    between atoms: C_16  and  C_18
REMARK    8  A    between atoms: C_18  and  C_19
REMARK                            x       y       z     vdW  Elec       q    Type
REMARK                         _______ _______ _______ _____ _____    ______ ____
ROOT
ATOM      1  C   UNL     1      -9.836  -4.974  18.100  0.00  0.00    +0.000 A 
ATOM      2  C   UNL     1     -10.871  -4.656  17.217  0.00  0.00    +0.000 A 
ATOM      3  N   UNL     1     -11.353  -5.476  16.252  0.00  0.00    +0.000 NA
ATOM      4  C   UNL     1     -10.783  -6.698  16.162  0.00  0.00    +0.000 A 
ATOM      5  C   UNL     1      -9.754  -7.143  16.980  0.00  0.00    +0.000 A 
ATOM      6  C   UNL     1      -9.276  -6.257  17.946  0.00  0.00    +0.000 A 
ATOM      7  H   UNL     1     -11.381  -3.697  17.265  0.00  0.00    +0.000 HD
ATOM      8  H   UNL     1     -11.193  -7.339  15.386  0.00  0.00    +0.000 HD
ATOM      9  H   UNL     1      -8.452  -6.547  18.589  0.00  0.00    +0.000 HD
ENDROOT
BRANCH   1  16
ATOM     10  C   UNL     1      -6.563  -3.259  21.662  0.00  0.00    +0.000 A 
ATOM     11  N   UNL     1      -6.623  -2.174  22.444  0.00  0.00    +0.000 NA
ATOM     12  N   UNL     1      -7.784  -1.593  22.096  0.00  0.00    +0.000 N 
ATOM     13  C   UNL     1      -8.473  -2.253  21.116  0.00  0.00    +0.000 A 
ATOM     14  C   UNL     1      -9.682  -1.980  20.478  0.00  0.00    +0.000 A 
ATOM     15  C   UNL     1     -10.100  -2.882  19.488  0.00  0.00    +0.000 A 
ATOM     16  C   UNL     1      -9.363  -4.032  19.143  0.00  0.00    +0.000 A 
ATOM     17  C   UNL     1      -8.149  -4.263  19.829  0.00  0.00    +0.000 A 
ATOM     18  C   UNL     1      -7.697  -3.363  20.813  0.00  0.00    +0.000 A 
ATOM     19  H   UNL     1      -8.050  -0.737  22.569  0.00  0.00    +0.000 HD
ATOM     20  H   UNL     1     -10.276  -1.106  20.726  0.00  0.00    +0.000 HD
ATOM     21  H   UNL     1     -11.032  -2.654  18.972  0.00  0.00    +0.000 HD
ATOM     22  H   UNL     1      -7.547  -5.143  19.622  0.00  0.00    +0.000 HD
BRANCH  10  23
ATOM     23  C   UNL     1      -5.403  -4.180  21.735  0.00  0.00    +0.000 C 
ATOM     24  H   UNL     1      -5.688  -5.210  21.494  0.00  0.00    +0.000 HD
ATOM     25  H   UNL     1      -4.977  -4.175  22.743  0.00  0.00    +0.000 HD
ATOM     26  H   UNL     1      -4.625  -3.871  21.031  0.00  0.00    +0.000 HD
ENDBRANCH  10  23
ENDBRANCH   1  16
BRANCH   5  27
ATOM     27  O   UNL     1      -9.311  -8.414  16.753  0.00  0.00    +0.000 OA
BRANCH  27  28
ATOM     28  C   UNL     1     -10.243  -9.333  16.169  0.00  0.00    +0.000 C 
ATOM     29  H   UNL     1     -11.117  -8.785  15.797  0.00  0.00    +0.000 HD
ATOM     30  H   UNL     1     -10.558 -10.070  16.919  0.00  0.00    +0.000 HD
BRANCH  28  31
ATOM     31  C   UNL     1      -9.559 -10.059  14.987  0.00  0.00    +0.000 C 
ATOM     32  H   UNL     1     -10.262 -10.793  14.575  0.00  0.00    +0.000 HD
BRANCH  31  33
ATOM     33  N   UNL     1      -9.263  -9.107  13.899  0.00  0.00    +0.000 NA
ATOM     34  H   UNL     1      -8.461  -9.429  13.356  0.00  0.00    +0.000 HD
ATOM     35  H   UNL     1      -8.982  -8.217  14.316  0.00  0.00    +0.000 HD
ENDBRANCH  31  33
BRANCH  31  36
ATOM     36  C   UNL     1      -8.293 -10.785  15.494  0.00  0.00    +0.000 C 
ATOM     37  H   UNL     1      -7.881 -10.233  16.350  0.00  0.00    +0.000 HD
ATOM     38  H   UNL     1      -7.508 -10.753  14.725  0.00  0.00    +0.000 HD
BRANCH  36  39
ATOM     39  C   UNL     1      -8.511 -12.217  15.915  0.00  0.00    +0.000 A 
ATOM     40  C   UNL     1      -8.627 -13.244  14.964  0.00  0.00    +0.000 A 
ATOM     41  C   UNL     1      -8.837 -14.567  15.370  0.00  0.00    +0.000 A 
ATOM     42  C   UNL     1      -8.921 -14.880  16.727  0.00  0.00    +0.000 A 
ATOM     43  C   UNL     1      -8.799 -13.867  17.671  0.00  0.00    +0.000 A 
ATOM     44  F   UNL     1      -8.888 -14.170  18.974  0.00  0.00    +0.000 F 
ATOM     45  C   UNL     1      -8.599 -12.549  17.272  0.00  0.00    +0.000 A 
ATOM     46  F   UNL     1      -8.509 -11.585  18.201  0.00  0.00    +0.000 F 
ATOM     47  H   UNL     1      -8.561 -13.019  13.902  0.00  0.00    +0.000 HD
ATOM     48  H   UNL     1      -8.935 -15.354  14.625  0.00  0.00    +0.000 HD
ATOM     49  H   UNL     1      -9.082 -15.902  17.053  0.00  0.00    +0.000 HD
ENDBRANCH  36  39
ENDBRANCH  31  36
ENDBRANCH  28  31
ENDBRANCH  27  28
ENDBRANCH   5  27
TORSDOF 8
ENDMDL
MODEL 5
REMARK VINA RESULT:   -10.608      4.363      9.614
REMARK INTER + INTRA:         -15.810
REMARK INTER:                 -15.050
REMARK INTRA:                  -0.761
REMARK UNBOUND:                -0.862
REMARK  Name = 
REMARK  8 active torsions:
REMARK  status: ('A' for Active; 'I' for Inactive)
REMARK    1  A    between atoms: C_1  and  C_2
REMARK    2  A    between atoms: C_8  and  C_9
REMARK    3  A    between atoms: C_13  and  O_14
REMARK    4  A    between atoms: O_14  and  C_15
REMARK    5  A    between atoms: C_15  and  C_16
REMARK    6  A    between atoms: C_16  and  N_17
REMARK    7  A    between atoms: C_16  and  C_18
REMARK    8  A    between atoms: C_18  and  C_19
REMARK                            x       y       z     vdW  Elec       q    Type
REMARK                         _______ _______ _______ _____ _____    ______ ____
ROOT
ATOM      1  C   UNL     1      -9.565  -6.636  18.245  0.00  0.00    +0.000 A 
ATOM      2  C   UNL     1     -10.402  -6.213  17.208  0.00  0.00    +0.000 A 
ATOM      3  N   UNL     1     -10.754  -4.927  16.964  0.00  0.00    +0.000 NA
ATOM      4  C   UNL     1     -10.232  -3.994  17.791  0.00  0.00    +0.000 A 
ATOM      5  C   UNL     1      -9.383  -4.277  18.853  0.00  0.00    +0.000 A 
ATOM      6  C   UNL     1      -9.065  -5.617  19.079  0.00  0.00    +0.000 A 
ATOM      7  H   UNL     1     -10.825  -6.920  16.499  0.00  0.00    +0.000 HD
ATOM      8  H   UNL     1     -10.522  -2.971  17.570  0.00  0.00    +0.000 HD
ATOM      9  H   UNL     1      -8.431  -5.892  19.914  0.00  0.00    +0.000 HD
ENDROOT
BRANCH   1  16
ATOM     10  C   UNL     1      -8.805 -11.487  16.753  0.00  0.00    +0.000 A 
ATOM     11  N   UNL     1      -8.427 -12.561  17.456  0.00  0.00    +0.000 NA
ATOM     12  N   UNL     1      -8.284 -12.091  18.707  0.00  0.00    +0.000 N 
ATOM     13  C   UNL     1      -8.547 -10.755  18.839  0.00  0.00    +0.000 A 
ATOM     14  C   UNL     1      -8.504  -9.899  19.939  0.00  0.00    +0.000 A 
ATOM     15  C   UNL     1      -8.832  -8.553  19.714  0.00  0.00    +0.000 A 
ATOM     16  C   UNL     1      -9.211  -8.061  18.450  0.00  0.00    +0.000 A 
ATOM     17  C   UNL     1      -9.247  -8.976  17.374  0.00  0.00    +0.000 A 
ATOM     18  C   UNL     1      -8.902 -10.328  17.569  0.00  0.00    +0.000 A 
ATOM     19  H   UNL     1      -7.999 -12.739  19.432  0.00  0.00    +0.000 HD
ATOM     20  H   UNL     1      -8.221 -10.248  20.927  0.00  0.00    +0.000 HD
ATOM     21  H   UNL     1      -8.772  -7.879  20.569  0.00  0.00    +0.000 HD
ATOM     22  H   UNL     1      -9.552  -8.661  16.380  0.00  0.00    +0.000 HD
BRANCH  10  23
ATOM     23  C   UNL     1      -9.059 -11.589  15.295  0.00  0.00    +0.000 C 
ATOM     24  H   UNL     1     -10.055 -11.218  15.031  0.00  0.00    +0.000 HD
ATOM     25  H   UNL     1      -8.991 -12.632  14.970  0.00  0.00    +0.000 HD
ATOM     26  H   UNL     1      -8.321 -11.005  14.737  0.00  0.00    +0.000 HD
ENDBRANCH  10  23
ENDBRANCH   1  16
BRANCH   5  27
ATOM     27  O   UNL     1      -8.941  -3.205  19.573  0.00  0.00    +0.000 OA
BRANCH  27  28
ATOM     28  C   UNL     1      -9.867  -2.129  19.773  0.00  0.00    +0.000 C 
ATOM     29  H   UNL     1     -10.701  -2.472  20.397  0.00  0.00    +0.000 HD
ATOM     30  H   UNL     1     -10.247  -1.782  18.803  0.00  0.00    +0.000 HD
BRANCH  28  31
ATOM     31  C   UNL     1      -9.140  -0.967  20.489  0.00  0.00    +0.000 C 
ATOM     32  H   UNL     1      -8.231  -1.362  20.958  0.00  0.00    +0.000 HD
BRANCH  31  33
ATOM     33  N   UNL     1      -8.701   0.046  19.513  0.00  0.00    +0.000 NA
ATOM     34  H   UNL     1      -7.686   0.147  19.539  0.00  0.00    +0.000 HD
ATOM     35  H   UNL     1      -9.081   0.953  19.795  0.00  0.00    +0.000 HD
ENDBRANCH  31  33
BRANCH  31  36
ATOM     36  C   UNL     1     -10.065  -0.376  21.577  0.00  0.00    +0.000 C 
ATOM     37  H   UNL     1     -11.103  -0.403  21.218  0.00  0.00    +0.000 HD
ATOM     38  H   UNL     1      -9.839   0.689  21.724  0.00  0.00    +0.000 HD
BRANCH  36  39
ATOM     39  C   UNL     1     -10.006  -1.081  22.909  0.00  0.00    +0.000 A 
ATOM     40  C   UNL     1      -8.914  -0.906  23.775  0.00  0.00    +0.000 A 
ATOM     41  C   UNL     1      -8.869  -1.573  25.006  0.00  0.00    +0.000 A 
ATOM     42  C   UNL     1      -9.918  -2.410  25.388  0.00  0.00    +0.000 A 
ATOM     43  C   UNL     1     -11.004  -2.578  24.537  0.00  0.00    +0.000 A 
ATOM     44  F   UNL     1     -12.005  -3.390  24.904  0.00  0.00    +0.000 F 
ATOM     45  C   UNL     1     -11.048  -1.925  23.309  0.00  0.00    +0.000 A 
ATOM     46  F   UNL     1     -12.095  -2.124  22.493  0.00  0.00    +0.000 F 
ATOM     47  H   UNL     1      -8.089  -0.254  23.494  0.00  0.00    +0.000 HD
ATOM     48  H   UNL     1      -8.015  -1.437  25.665  0.00  0.00    +0.000 HD
ATOM     49  H   UNL     1      -9.895  -2.930  26.340  0.00  0.00    +0.000 HD
ENDBRANCH  36  39
ENDBRANCH  31  36
ENDBRANCH  28  31
ENDBRANCH  27  28
ENDBRANCH   5  27
TORSDOF 8
ENDMDL
MODEL 6
REMARK VINA RESULT:   -10.584      2.509      4.491
REMARK INTER + INTRA:         -15.777
REMARK INTER:                 -15.026
REMARK INTRA:                  -0.751
REMARK UNBOUND:                -0.862
REMARK  Name = 
REMARK  8 active torsions:
REMARK  status: ('A' for Active; 'I' for Inactive)
REMARK    1  A    between atoms: C_1  and  C_2
REMARK    2  A    between atoms: C_8  and  C_9
REMARK    3  A    between atoms: C_13  and  O_14
REMARK    4  A    between atoms: O_14  and  C_15
REMARK    5  A    between atoms: C_15  and  C_16
REMARK    6  A    between atoms: C_16  and  N_17
REMARK    7  A    between atoms: C_16  and  C_18
REMARK    8  A    between atoms: C_18  and  C_19
REMARK                            x       y       z     vdW  Elec       q    Type
REMARK                         _______ _______ _______ _____ _____    ______ ____
ROOT
ATOM      1  C   UNL     1      -7.225  -4.268  20.833  0.00  0.00    +0.000 A 
ATOM      2  C   UNL     1      -5.837  -4.402  20.741  0.00  0.00    +0.000 A 
ATOM      3  N   UNL     1      -5.186  -5.188  19.849  0.00  0.00    +0.000 NA
ATOM      4  C   UNL     1      -5.957  -5.875  18.978  0.00  0.00    +0.000 A 
ATOM      5  C   UNL     1      -7.345  -5.827  18.955  0.00  0.00    +0.000 A 
ATOM      6  C   UNL     1      -7.972  -5.021  19.906  0.00  0.00    +0.000 A 
ATOM      7  H   UNL     1      -5.170  -3.850  21.399  0.00  0.00    +0.000 HD
ATOM      8  H   UNL     1      -5.412  -6.491  18.268  0.00  0.00    +0.000 HD
ATOM      9  H   UNL     1      -9.055  -4.974  19.949  0.00  0.00    +0.000 HD
ENDROOT
BRANCH   1  16
ATOM     10  C   UNL     1      -8.504  -2.769  25.571  0.00  0.00    +0.000 A 
ATOM     11  N   UNL     1      -9.226  -1.719  25.983  0.00  0.00    +0.000 NA
ATOM     12  N   UNL     1      -9.576  -1.103  24.841  0.00  0.00    +0.000 N 
ATOM     13  C   UNL     1      -9.104  -1.708  23.708  0.00  0.00    +0.000 A 
ATOM     14  C   UNL     1      -9.228  -1.386  22.357  0.00  0.00    +0.000 A 
ATOM     15  C   UNL     1      -8.595  -2.236  21.437  0.00  0.00    +0.000 A 
ATOM     16  C   UNL     1      -7.874  -3.382  21.828  0.00  0.00    +0.000 A 
ATOM     17  C   UNL     1      -7.790  -3.664  23.210  0.00  0.00    +0.000 A 
ATOM     18  C   UNL     1      -8.399  -2.815  24.155  0.00  0.00    +0.000 A 
ATOM     19  H   UNL     1     -10.142  -0.265  24.904  0.00  0.00    +0.000 HD
ATOM     20  H   UNL     1      -9.781  -0.514  22.024  0.00  0.00    +0.000 HD
ATOM     21  H   UNL     1      -8.670  -1.969  20.383  0.00  0.00    +0.000 HD
ATOM     22  H   UNL     1      -7.266  -4.544  23.572  0.00  0.00    +0.000 HD
BRANCH  10  23
ATOM     23  C   UNL     1      -7.914  -3.712  26.552  0.00  0.00    +0.000 C 
ATOM     24  H   UNL     1      -8.687  -4.247  27.114  0.00  0.00    +0.000 HD
ATOM     25  H   UNL     1      -7.289  -3.172  27.270  0.00  0.00    +0.000 HD
ATOM     26  H   UNL     1      -7.291  -4.453  26.042  0.00  0.00    +0.000 HD
ENDBRANCH  10  23
ENDBRANCH   1  16
BRANCH   5  27
ATOM     27  O   UNL     1      -7.958  -6.579  17.995  0.00  0.00    +0.000 OA
BRANCH  27  28
ATOM     28  C   UNL     1      -9.326  -6.268  17.702  0.00  0.00    +0.000 C 
ATOM     29  H   UNL     1      -9.387  -5.739  16.743  0.00  0.00    +0.000 HD
ATOM     30  H   UNL     1      -9.744  -5.641  18.500  0.00  0.00    +0.000 HD
BRANCH  28  31
ATOM     31  C   UNL     1     -10.130  -7.586  17.606  0.00  0.00    +0.000 C 
ATOM     32  H   UNL     1      -9.928  -8.183  18.503  0.00  0.00    +0.000 HD
BRANCH  31  33
ATOM     33  N   UNL     1     -11.579  -7.308  17.607  0.00  0.00    +0.000 NA
ATOM     34  H   UNL     1     -11.794  -6.556  18.264  0.00  0.00    +0.000 HD
ATOM     35  H   UNL     1     -12.067  -8.135  17.957  0.00  0.00    +0.000 HD
ENDBRANCH  31  33
BRANCH  31  36
ATOM     36  C   UNL     1      -9.683  -8.370  16.352  0.00  0.00    +0.000 C 
ATOM     37  H   UNL     1      -8.827  -7.855  15.893  0.00  0.00    +0.000 HD
ATOM     38  H   UNL     1     -10.475  -8.346  15.591  0.00  0.00    +0.000 HD
BRANCH  36  39
ATOM     39  C   UNL     1      -9.290  -9.804  16.608  0.00  0.00    +0.000 A 
ATOM     40  C   UNL     1      -8.925 -10.238  17.893  0.00  0.00    +0.000 A 
ATOM     41  C   UNL     1      -8.555 -11.570  18.115  0.00  0.00    +0.000 A 
ATOM     42  C   UNL     1      -8.558 -12.483  17.060  0.00  0.00    +0.000 A 
ATOM     43  C   UNL     1      -8.926 -12.058  15.789  0.00  0.00    +0.000 A 
ATOM     44  F   UNL     1      -8.920 -12.937  14.776  0.00  0.00    +0.000 F 
ATOM     45  C   UNL     1      -9.286 -10.734  15.563  0.00  0.00    +0.000 A 
ATOM     46  F   UNL     1      -9.614 -10.342  14.321  0.00  0.00    +0.000 F 
ATOM     47  H   UNL     1      -8.920  -9.540  18.728  0.00  0.00    +0.000 HD
ATOM     48  H   UNL     1      -8.265 -11.894  19.112  0.00  0.00    +0.000 HD
ATOM     49  H   UNL     1      -8.275 -13.518  17.220  0.00  0.00    +0.000 HD
ENDBRANCH  36  39
ENDBRANCH  31  36
ENDBRANCH  28  31
ENDBRANCH  27  28
ENDBRANCH   5  27
TORSDOF 8
ENDMDL
MODEL 7
REMARK VINA RESULT:   -10.582      2.588      4.487
REMARK INTER + INTRA:         -15.775
REMARK INTER:                 -14.989
REMARK INTRA:                  -0.786
REMARK UNBOUND:                -0.862
REMARK  Name = 
REMARK  8 active torsions:
REMARK  status: ('A' for Active; 'I' for Inactive)
REMARK    1  A    between atoms: C_1  and  C_2
REMARK    2  A    between atoms: C_8  and  C_9
REMARK    3  A    between atoms: C_13  and  O_14
REMARK    4  A    between atoms: O_14  and  C_15
REMARK    5  A    between atoms: C_15  and  C_16
REMARK    6  A    between atoms: C_16  and  N_17
REMARK    7  A    between atoms: C_16  and  C_18
REMARK    8  A    between atoms: C_18  and  C_19
REMARK                            x       y       z     vdW  Elec       q    Type
REMARK                         _______ _______ _______ _____ _____    ______ ____
ROOT
ATOM      1  C   UNL     1      -7.157  -4.349  20.719  0.00  0.00    +0.000 A 
ATOM      2  C   UNL     1      -5.779  -4.566  20.632  0.00  0.00    +0.000 A 
ATOM      3  N   UNL     1      -5.173  -5.391  19.743  0.00  0.00    +0.000 NA
ATOM      4  C   UNL     1      -5.982  -6.033  18.872  0.00  0.00    +0.000 A 
ATOM      5  C   UNL     1      -7.364  -5.902  18.844  0.00  0.00    +0.000 A 
ATOM      6  C   UNL     1      -7.945  -5.058  19.792  0.00  0.00    +0.000 A 
ATOM      7  H   UNL     1      -5.083  -4.054  21.290  0.00  0.00    +0.000 HD
ATOM      8  H   UNL     1      -5.472  -6.682  18.165  0.00  0.00    +0.000 HD
ATOM      9  H   UNL     1      -9.023  -4.946  19.831  0.00  0.00    +0.000 HD
ENDROOT
BRANCH   1  16
ATOM     10  C   UNL     1      -9.836  -0.227  22.189  0.00  0.00    +0.000 A 
ATOM     11  N   UNL     1     -10.125   0.227  23.415  0.00  0.00    +0.000 NA
ATOM     12  N   UNL     1      -9.532  -0.660  24.233  0.00  0.00    +0.000 N 
ATOM     13  C   UNL     1      -8.879  -1.672  23.586  0.00  0.00    +0.000 A 
ATOM     14  C   UNL     1      -8.166  -2.774  24.057  0.00  0.00    +0.000 A 
ATOM     15  C   UNL     1      -7.621  -3.640  23.096  0.00  0.00    +0.000 A 
ATOM     16  C   UNL     1      -7.754  -3.423  21.711  0.00  0.00    +0.000 A 
ATOM     17  C   UNL     1      -8.479  -2.285  21.292  0.00  0.00    +0.000 A 
ATOM     18  C   UNL     1      -9.053  -1.411  22.235  0.00  0.00    +0.000 A 
ATOM     19  H   UNL     1      -9.615  -0.516  25.233  0.00  0.00    +0.000 HD
ATOM     20  H   UNL     1      -8.040  -2.965  25.118  0.00  0.00    +0.000 HD
ATOM     21  H   UNL     1      -7.086  -4.515  23.465  0.00  0.00    +0.000 HD
ATOM     22  H   UNL     1      -8.598  -2.053  20.237  0.00  0.00    +0.000 HD
BRANCH  10  23
ATOM     23  C   UNL     1     -10.330   0.484  20.985  0.00  0.00    +0.000 C 
ATOM     24  H   UNL     1     -10.619   1.515  21.214  0.00  0.00    +0.000 HD
ATOM     25  H   UNL     1     -11.206  -0.028  20.574  0.00  0.00    +0.000 HD
ATOM     26  H   UNL     1      -9.554   0.513  20.214  0.00  0.00    +0.000 HD
ENDBRANCH  10  23
ENDBRANCH   1  16
BRANCH   5  27
ATOM     27  O   UNL     1      -8.019  -6.618  17.884  0.00  0.00    +0.000 OA
BRANCH  27  28
ATOM     28  C   UNL     1      -9.391  -6.281  17.644  0.00  0.00    +0.000 C 
ATOM     29  H   UNL     1      -9.478  -5.743  16.692  0.00  0.00    +0.000 HD
ATOM     30  H   UNL     1      -9.768  -5.653  18.462  0.00  0.00    +0.000 HD
BRANCH  28  31
ATOM     31  C   UNL     1     -10.221  -7.584  17.568  0.00  0.00    +0.000 C 
ATOM     32  H   UNL     1     -10.025  -8.175  18.471  0.00  0.00    +0.000 HD
BRANCH  31  33
ATOM     33  N   UNL     1     -11.664  -7.277  17.575  0.00  0.00    +0.000 NA
ATOM     34  H   UNL     1     -12.177  -7.999  18.082  0.00  0.00    +0.000 HD
ATOM     35  H   UNL     1     -12.006  -7.312  16.612  0.00  0.00    +0.000 HD
ENDBRANCH  31  33
BRANCH  31  36
ATOM     36  C   UNL     1      -9.797  -8.391  16.321  0.00  0.00    +0.000 C 
ATOM     37  H   UNL     1      -8.966  -7.873  15.824  0.00  0.00    +0.000 HD
ATOM     38  H   UNL     1     -10.612  -8.402  15.585  0.00  0.00    +0.000 HD
BRANCH  36  39
ATOM     39  C   UNL     1      -9.369  -9.811  16.602  0.00  0.00    +0.000 A 
ATOM     40  C   UNL     1      -8.990 -10.213  17.893  0.00  0.00    +0.000 A 
ATOM     41  C   UNL     1      -8.587 -11.532  18.136  0.00  0.00    +0.000 A 
ATOM     42  C   UNL     1      -8.570 -12.462  17.097  0.00  0.00    +0.000 A 
ATOM     43  C   UNL     1      -8.952 -12.069  15.820  0.00  0.00    +0.000 A 
ATOM     44  F   UNL     1      -8.926 -12.965  14.823  0.00  0.00    +0.000 F 
ATOM     45  C   UNL     1      -9.344 -10.758  15.572  0.00  0.00    +0.000 A 
ATOM     46  F   UNL     1      -9.685 -10.395  14.325  0.00  0.00    +0.000 F 
ATOM     47  H   UNL     1      -9.000  -9.501  18.715  0.00  0.00    +0.000 HD
ATOM     48  H   UNL     1      -8.287 -11.831  19.138  0.00  0.00    +0.000 HD
ATOM     49  H   UNL     1      -8.262 -13.487  17.274  0.00  0.00    +0.000 HD
ENDBRANCH  36  39
ENDBRANCH  31  36
ENDBRANCH  28  31
ENDBRANCH  27  28
ENDBRANCH   5  27
TORSDOF 8
ENDMDL
MODEL 8
REMARK VINA RESULT:   -10.479      3.202      5.546
REMARK INTER + INTRA:         -15.630
REMARK INTER:                 -14.719
REMARK INTRA:                  -0.910
REMARK UNBOUND:                -0.862
REMARK  Name = 
REMARK  8 active torsions:
REMARK  status: ('A' for Active; 'I' for Inactive)
REMARK    1  A    between atoms: C_1  and  C_2
REMARK    2  A    between atoms: C_8  and  C_9
REMARK    3  A    between atoms: C_13  and  O_14
REMARK    4  A    between atoms: O_14  and  C_15
REMARK    5  A    between atoms: C_15  and  C_16
REMARK    6  A    between atoms: C_16  and  N_17
REMARK    7  A    between atoms: C_16  and  C_18
REMARK    8  A    between atoms: C_18  and  C_19
REMARK                            x       y       z     vdW  Elec       q    Type
REMARK                         _______ _______ _______ _____ _____    ______ ____
ROOT
ATOM      1  C   UNL     1     -10.514  -5.212  17.038  0.00  0.00    +0.000 A 
ATOM      2  C   UNL     1      -9.791  -5.006  18.217  0.00  0.00    +0.000 A 
ATOM      3  N   UNL     1      -9.209  -5.982  18.956  0.00  0.00    +0.000 NA
ATOM      4  C   UNL     1      -9.338  -7.245  18.492  0.00  0.00    +0.000 A 
ATOM      5  C   UNL     1     -10.022  -7.586  17.333  0.00  0.00    +0.000 A 
ATOM      6  C   UNL     1     -10.622  -6.551  16.616  0.00  0.00    +0.000 A 
ATOM      7  H   UNL     1      -9.634  -4.008  18.618  0.00  0.00    +0.000 HD
ATOM      8  H   UNL     1      -8.857  -8.007  19.098  0.00  0.00    +0.000 HD
ATOM      9  H   UNL     1     -11.194  -6.770  15.721  0.00  0.00    +0.000 HD
ENDROOT
BRANCH   1  16
ATOM     10  C   UNL     1     -11.988  -2.787  12.763  0.00  0.00    +0.000 A 
ATOM     11  N   UNL     1     -12.589  -1.601  12.602  0.00  0.00    +0.000 NA
ATOM     12  N   UNL     1     -12.730  -1.140  13.857  0.00  0.00    +0.000 N 
ATOM     13  C   UNL     1     -12.253  -1.984  14.823  0.00  0.00    +0.000 A 
ATOM     14  C   UNL     1     -12.221  -1.888  16.213  0.00  0.00    +0.000 A 
ATOM     15  C   UNL     1     -11.655  -2.964  16.915  0.00  0.00    +0.000 A 
ATOM     16  C   UNL     1     -11.117  -4.096  16.271  0.00  0.00    +0.000 A 
ATOM     17  C   UNL     1     -11.167  -4.133  14.859  0.00  0.00    +0.000 A 
ATOM     18  C   UNL     1     -11.749  -3.076  14.133  0.00  0.00    +0.000 A 
ATOM     19  H   UNL     1     -13.167  -0.235  13.987  0.00  0.00    +0.000 HD
ATOM     20  H   UNL     1     -12.622  -1.027  16.738  0.00  0.00    +0.000 HD
ATOM     21  H   UNL     1     -11.654  -2.900  18.003  0.00  0.00    +0.000 HD
ATOM     22  H   UNL     1     -10.750  -4.970  14.306  0.00  0.00    +0.000 HD
BRANCH  10  23
ATOM     23  C   UNL     1     -11.662  -3.634  11.590  0.00  0.00    +0.000 C 
ATOM     24  H   UNL     1     -10.654  -4.057  11.664  0.00  0.00    +0.000 HD
ATOM     25  H   UNL     1     -11.713  -3.044  10.669  0.00  0.00    +0.000 HD
ATOM     26  H   UNL     1     -12.372  -4.462  11.508  0.00  0.00    +0.000 HD
ENDBRANCH  10  23
ENDBRANCH   1  16
BRANCH   5  27
ATOM     27  O   UNL     1     -10.037  -8.913  17.011  0.00  0.00    +0.000 OA
BRANCH  27  28
ATOM     28  C   UNL     1     -10.700  -9.279  15.794  0.00  0.00    +0.000 C 
ATOM     29  H   UNL     1     -11.008  -8.375  15.255  0.00  0.00    +0.000 HD
ATOM     30  H   UNL     1     -11.580  -9.895  16.021  0.00  0.00    +0.000 HD
BRANCH  28  31
ATOM     31  C   UNL     1      -9.718 -10.085  14.911  0.00  0.00    +0.000 C 
ATOM     32  H   UNL     1     -10.267 -10.915  14.450  0.00  0.00    +0.000 HD
BRANCH  31  33
ATOM     33  N   UNL     1      -9.216  -9.250  13.805  0.00  0.00    +0.000 NA
ATOM     34  H   UNL     1      -8.656  -9.813  13.163  0.00  0.00    +0.000 HD
ATOM     35  H   UNL     1      -8.580  -8.549  14.192  0.00  0.00    +0.000 HD
ENDBRANCH  31  33
BRANCH  31  36
ATOM     36  C   UNL     1      -8.579 -10.646  15.791  0.00  0.00    +0.000 C 
ATOM     37  H   UNL     1      -8.570 -10.111  16.751  0.00  0.00    +0.000 HD
ATOM     38  H   UNL     1      -7.605 -10.427  15.330  0.00  0.00    +0.000 HD
BRANCH  36  39
ATOM     39  C   UNL     1      -8.667 -12.125  16.074  0.00  0.00    +0.000 A 
ATOM     40  C   UNL     1      -8.710 -13.063  15.029  0.00  0.00    +0.000 A 
ATOM     41  C   UNL     1      -8.800 -14.432  15.307  0.00  0.00    +0.000 A 
ATOM     42  C   UNL     1      -8.836 -14.878  16.629  0.00  0.00    +0.000 A 
ATOM     43  C   UNL     1      -8.786 -13.953  17.665  0.00  0.00    +0.000 A 
ATOM     44  F   UNL     1      -8.829 -14.385  18.933  0.00  0.00    +0.000 F 
ATOM     45  C   UNL     1      -8.706 -12.591  17.393  0.00  0.00    +0.000 A 
ATOM     46  F   UNL     1      -8.684 -11.715  18.410  0.00  0.00    +0.000 F 
ATOM     47  H   UNL     1      -8.679 -12.733  13.993  0.00  0.00    +0.000 HD
ATOM     48  H   UNL     1      -8.841 -15.150  14.491  0.00  0.00    +0.000 HD
ATOM     49  H   UNL     1      -8.903 -15.937  16.856  0.00  0.00    +0.000 HD
ENDBRANCH  36  39
ENDBRANCH  31  36
ENDBRANCH  28  31
ENDBRANCH  27  28
ENDBRANCH   5  27
TORSDOF 8
ENDMDL
MODEL 9
REMARK VINA RESULT:   -10.423      3.695      8.012
REMARK INTER + INTRA:         -15.550
REMARK INTER:                 -14.141
REMARK INTRA:                  -1.409
REMARK UNBOUND:                -0.862
REMARK  Name = 
REMARK  8 active torsions:
REMARK  status: ('A' for Active; 'I' for Inactive)
REMARK    1  A    between atoms: C_1  and  C_2
REMARK    2  A    between atoms: C_8  and  C_9
REMARK    3  A    between atoms: C_13  and  O_14
REMARK    4  A    between atoms: O_14  and  C_15
REMARK    5  A    between atoms: C_15  and  C_16
REMARK    6  A    between atoms: C_16  and  N_17
REMARK    7  A    between atoms: C_16  and  C_18
REMARK    8  A    between atoms: C_18  and  C_19
REMARK                            x       y       z     vdW  Elec       q    Type
REMARK                         _______ _______ _______ _____ _____    ______ ____
ROOT
ATOM      1  C   UNL     1     -10.304  -6.361  17.472  0.00  0.00    +0.000 A 
ATOM      2  C   UNL     1     -10.994  -6.186  16.269  0.00  0.00    +0.000 A 
ATOM      3  N   UNL     1     -11.474  -5.005  15.809  0.00  0.00    +0.000 NA
ATOM      4  C   UNL     1     -11.243  -3.921  16.582  0.00  0.00    +0.000 A 
ATOM      5  C   UNL     1     -10.565  -3.953  17.793  0.00  0.00    +0.000 A 
ATOM      6  C   UNL     1     -10.108  -5.195  18.236  0.00  0.00    +0.000 A 
ATOM      7  H   UNL     1     -11.182  -7.021  15.598  0.00  0.00    +0.000 HD
ATOM      8  H   UNL     1     -11.630  -2.986  16.187  0.00  0.00    +0.000 HD
ATOM      9  H   UNL     1      -9.600  -5.277  19.191  0.00  0.00    +0.000 HD
ENDROOT
BRANCH   1  16
ATOM     10  C   UNL     1      -8.905 -11.251  16.796  0.00  0.00    +0.000 A 
ATOM     11  N   UNL     1      -8.438 -12.149  17.673  0.00  0.00    +0.000 NA
ATOM     12  N   UNL     1      -8.415 -11.477  18.837  0.00  0.00    +0.000 N 
ATOM     13  C   UNL     1      -8.840 -10.180  18.746  0.00  0.00    +0.000 A 
ATOM     14  C   UNL     1      -8.953  -9.166  19.696  0.00  0.00    +0.000 A 
ATOM     15  C   UNL     1      -9.425  -7.922  19.250  0.00  0.00    +0.000 A 
ATOM     16  C   UNL     1      -9.796  -7.682  17.912  0.00  0.00    +0.000 A 
ATOM     17  C   UNL     1      -9.669  -8.750  16.995  0.00  0.00    +0.000 A 
ATOM     18  C   UNL     1      -9.179 -10.002  17.413  0.00  0.00    +0.000 A 
ATOM     19  H   UNL     1      -8.093 -11.966  19.664  0.00  0.00    +0.000 HD
ATOM     20  H   UNL     1      -8.681  -9.321  20.736  0.00  0.00    +0.000 HD
ATOM     21  H   UNL     1      -9.488  -7.123  19.988  0.00  0.00    +0.000 HD
ATOM     22  H   UNL     1      -9.959  -8.632  15.955  0.00  0.00    +0.000 HD
BRANCH  10  23
ATOM     23  C   UNL     1      -9.071 -11.609  15.366  0.00  0.00    +0.000 C 
ATOM     24  H   UNL     1      -8.311 -12.326  15.037  0.00  0.00    +0.000 HD
ATOM     25  H   UNL     1      -8.985 -10.716  14.738  0.00  0.00    +0.000 HD
ATOM     26  H   UNL     1     -10.054 -12.056  15.196  0.00  0.00    +0.000 HD
ENDBRANCH  10  23
ENDBRANCH   1  16
BRANCH   5  27
ATOM     27  O   UNL     1     -10.413  -2.756  18.431  0.00  0.00    +0.000 OA
BRANCH  27  28
ATOM     28  C   UNL     1     -10.252  -2.794  19.854  0.00  0.00    +0.000 C 
ATOM     29  H   UNL     1     -10.470  -3.803  20.224  0.00  0.00    +0.000 HD
ATOM     30  H   UNL     1     -10.931  -2.071  20.324  0.00  0.00    +0.000 HD
BRANCH  28  31
ATOM     31  C   UNL     1      -8.789  -2.431  20.203  0.00  0.00    +0.000 C 
ATOM     32  H   UNL     1      -8.192  -2.472  19.284  0.00  0.00    +0.000 HD
BRANCH  31  33
ATOM     33  N   UNL     1      -8.705  -1.043  20.694  0.00  0.00    +0.000 NA
ATOM     34  H   UNL     1      -9.355  -0.901  21.468  0.00  0.00    +0.000 HD
ATOM     35  H   UNL     1      -9.015  -0.417  19.947  0.00  0.00    +0.000 HD
ENDBRANCH  31  33
BRANCH  31  36
ATOM     36  C   UNL     1      -8.237  -3.451  21.223  0.00  0.00    +0.000 C 
ATOM     37  H   UNL     1      -9.040  -4.145  21.508  0.00  0.00    +0.000 HD
ATOM     38  H   UNL     1      -7.956  -2.938  22.153  0.00  0.00    +0.000 HD
BRANCH  36  39
ATOM     39  C   UNL     1      -7.062  -4.262  20.735  0.00  0.00    +0.000 A 
ATOM     40  C   UNL     1      -7.244  -5.361  19.879  0.00  0.00    +0.000 A 
ATOM     41  C   UNL     1      -6.146  -6.110  19.440  0.00  0.00    +0.000 A 
ATOM     42  C   UNL     1      -4.855  -5.763  19.842  0.00  0.00    +0.000 A 
ATOM     43  C   UNL     1      -4.671  -4.672  20.683  0.00  0.00    +0.000 A 
ATOM     44  F   UNL     1      -3.431  -4.347  21.074  0.00  0.00    +0.000 F 
ATOM     45  C   UNL     1      -5.761  -3.931  21.129  0.00  0.00    +0.000 A 
ATOM     46  F   UNL     1      -5.560  -2.897  21.961  0.00  0.00    +0.000 F 
ATOM     47  H   UNL     1      -8.243  -5.643  19.552  0.00  0.00    +0.000 HD
ATOM     48  H   UNL     1      -6.298  -6.964  18.784  0.00  0.00    +0.000 HD
ATOM     49  H   UNL     1      -3.996  -6.334  19.507  0.00  0.00    +0.000 HD
ENDBRANCH  36  39
ENDBRANCH  31  36
ENDBRANCH  28  31
ENDBRANCH  27  28
ENDBRANCH   5  27
TORSDOF 8
ENDMDL
