REMARK  Name = 
REMARK  6 active torsions:
REMARK  status: ('A' for Active; 'I' for Inactive)
REMARK    1  A    between atoms: C_1  and  O_2
REMARK    2  A    between atoms: O_2  and  C_3
REMARK    3  A    between atoms: C_6  and  N_7
REMARK    4  A    between atoms: N_13  and  C_14
REMARK    5  A    between atoms: N_23  and  C_24
REMARK    6  A    between atoms: C_27  and  O_28
REMARK                            x       y       z     vdW  Elec       q    Type
REMARK                         _______ _______ _______ _____ _____    ______ ____
ROOT
ATOM      1  N   UNL     1      -2.353  -0.498   0.304  0.00  0.00    +0.000 N 
ATOM      2  C   UNL     1      -2.170  -1.934   0.273  0.00  0.00    +0.000 C 
ATOM      3  C   UNL     1      -0.757  -2.323   0.105  0.00  0.00    +0.000 A 
ATOM      4  C   UNL     1      -0.297  -3.602   0.318  0.00  0.00    +0.000 A 
ATOM      5  N   UNL     1       0.979  -3.978   0.125  0.00  0.00    +0.000 NA
ATOM      6  C   UNL     1       1.810  -3.042  -0.341  0.00  0.00    +0.000 A 
ATOM      7  N   UNL     1       3.126  -3.420  -0.590  0.00  0.00    +0.000 N 
ATOM      8  N   UNL     1       1.442  -1.772  -0.559  0.00  0.00    +0.000 NA
ATOM      9  C   UNL     1       0.172  -1.418  -0.339  0.00  0.00    +0.000 A 
ATOM     10  N   UNL     1      -0.229  -0.084  -0.610  0.00  0.00    +0.000 N 
ATOM     11  C   UNL     1      -1.553   0.342  -0.472  0.00  0.00    +0.000 C 
ATOM     12  O   UNL     1      -1.920   1.456  -0.847  0.00  0.00    +0.000 OA
ATOM     13  H   UNL     1      -2.741  -2.299  -0.590  0.00  0.00    +0.000 HD
ATOM     14  H   UNL     1      -2.598  -2.406   1.165  0.00  0.00    +0.000 HD
ATOM     15  H   UNL     1      -0.961  -4.395   0.654  0.00  0.00    +0.000 HD
ATOM     16  H   UNL     1       3.297  -4.370  -0.292  0.00  0.00    +0.000 HD
ENDROOT
BRANCH  10  17
ATOM     17  C   UNL     1       0.829   0.931  -0.774  0.00  0.00    +0.000 C 
ATOM     18  C   UNL     1       0.722   2.086   0.257  0.00  0.00    +0.000 C 
ATOM     19  C   UNL     1       0.586   3.366  -0.564  0.00  0.00    +0.000 C 
ATOM     20  C   UNL     1       1.286   3.036  -1.874  0.00  0.00    +0.000 C 
ATOM     21  C   UNL     1       0.885   1.594  -2.158  0.00  0.00    +0.000 C 
ATOM     22  H   UNL     1       1.810   0.476  -0.594  0.00  0.00    +0.000 HD
ATOM     23  H   UNL     1       1.642   2.126   0.852  0.00  0.00    +0.000 HD
ATOM     24  H   UNL     1      -0.099   1.980   0.975  0.00  0.00    +0.000 HD
ATOM     25  H   UNL     1       1.028   4.218  -0.041  0.00  0.00    +0.000 HD
ATOM     26  H   UNL     1      -0.473   3.585  -0.746  0.00  0.00    +0.000 HD
ATOM     27  H   UNL     1       0.980   3.710  -2.680  0.00  0.00    +0.000 HD
ATOM     28  H   UNL     1       1.611   1.082  -2.799  0.00  0.00    +0.000 HD
ATOM     29  H   UNL     1      -0.089   1.562  -2.658  0.00  0.00    +0.000 HD
BRANCH  20  30
ATOM     30  O   UNL     1       2.698   3.156  -1.733  0.00  0.00    +0.000 OA
ATOM     31  H   UNL     1       2.989   2.662  -0.949  0.00  0.00    +0.000 HD
ENDBRANCH  20  30
ENDBRANCH  10  17
BRANCH   7  32
ATOM     32  C   UNL     1       4.022  -2.887  -1.528  0.00  0.00    +0.000 A 
ATOM     33  C   UNL     1       5.400  -3.037  -1.320  0.00  0.00    +0.000 A 
ATOM     34  C   UNL     1       6.321  -2.440  -2.185  0.00  0.00    +0.000 A 
ATOM     35  C   UNL     1       5.866  -1.701  -3.271  0.00  0.00    +0.000 A 
ATOM     36  F   UNL     1       6.750  -1.123  -4.095  0.00  0.00    +0.000 F 
ATOM     37  C   UNL     1       4.509  -1.548  -3.509  0.00  0.00    +0.000 A 
ATOM     38  C   UNL     1       3.593  -2.135  -2.634  0.00  0.00    +0.000 A 
ATOM     39  H   UNL     1       5.766  -3.589  -0.458  0.00  0.00    +0.000 HD
ATOM     40  H   UNL     1       7.387  -2.534  -2.011  0.00  0.00    +0.000 HD
ATOM     41  H   UNL     1       4.167  -0.971  -4.362  0.00  0.00    +0.000 HD
ATOM     42  H   UNL     1       2.533  -2.006  -2.839  0.00  0.00    +0.000 HD
ENDBRANCH   7  32
BRANCH   1  46
ATOM     43  C   UNL     1      -4.489   1.389   3.427  0.00  0.00    +0.000 A 
ATOM     44  C   UNL     1      -4.739   1.734   2.099  0.00  0.00    +0.000 A 
ATOM     45  C   UNL     1      -4.049   1.096   1.064  0.00  0.00    +0.000 A 
ATOM     46  C   UNL     1      -3.123   0.089   1.343  0.00  0.00    +0.000 A 
ATOM     47  C   UNL     1      -2.874  -0.257   2.676  0.00  0.00    +0.000 A 
ATOM     48  C   UNL     1      -3.548   0.398   3.709  0.00  0.00    +0.000 A 
ATOM     49  H   UNL     1      -5.451   2.507   1.829  0.00  0.00    +0.000 HD
ATOM     50  H   UNL     1      -4.244   1.396   0.037  0.00  0.00    +0.000 HD
ATOM     51  H   UNL     1      -2.104  -0.978   2.936  0.00  0.00    +0.000 HD
ATOM     52  H   UNL     1      -3.319   0.152   4.743  0.00  0.00    +0.000 HD
BRANCH  43  53
ATOM     53  O   UNL     1      -5.082   1.946   4.525  0.00  0.00    +0.000 OA
BRANCH  53  54
ATOM     54  C   UNL     1      -6.043   2.964   4.278  0.00  0.00    +0.000 C 
ATOM     55  H   UNL     1      -6.441   3.290   5.243  0.00  0.00    +0.000 HD
ATOM     56  H   UNL     1      -6.880   2.581   3.685  0.00  0.00    +0.000 HD
ATOM     57  H   UNL     1      -5.580   3.833   3.796  0.00  0.00    +0.000 HD
ENDBRANCH  53  54
ENDBRANCH  43  53
ENDBRANCH   1  46
TORSDOF 6
