
 OpenBabel01112423023D

 45 47  0  0  1  0  0  0  0  0999 V2000
    1.0018    2.0208    3.2010 C   0  0  0  0  0  0  0  0  0  0  0  0
    2.1664    2.7043    2.7517 O   0  0  0  0  0  0  0  0  0  0  0  0
    3.1882    1.9321    2.2691 C   0  0  0  0  0  0  0  0  0  0  0  0
    3.1908    0.5409    2.1878 C   0  0  0  0  0  0  0  0  0  0  0  0
    4.3005   -0.1252    1.6640 C   0  0  0  0  0  0  0  0  0  0  0  0
    5.4058    0.5948    1.2066 C   0  0  0  0  0  0  0  0  0  0  0  0
    5.4147    1.9963    1.2530 C   0  0  0  0  0  0  0  0  0  0  0  0
    6.5883    2.7681    0.6675 C   0  0  1  0  0  0  0  0  0  0  0  0
    6.1235    3.7358   -0.4262 C   0  0  0  0  0  0  0  0  0  0  0  0
    7.3327    3.4546    1.7144 N   0  0  0  0  0  0  0  0  0  0  0  0
    8.6567    3.7983    1.5503 C   0  0  0  0  0  0  0  0  0  0  0  0
    9.3016    3.5439    0.5373 O   0  0  0  0  0  0  0  0  0  0  0  0
    9.3107    4.5300    2.6752 C   0  0  0  0  0  0  0  0  0  0  0  0
    8.8659    4.4099    3.9940 C   0  0  0  0  0  0  0  0  0  0  0  0
    9.5354    5.0810    5.0277 C   0  0  0  0  0  0  0  0  0  0  0  0
   10.6594    5.8896    4.7793 C   0  0  0  0  0  0  0  0  0  0  0  0
   11.3629    6.5998    5.8732 C   0  0  0  0  0  0  0  0  0  0  0  0
   12.7442    6.8397    5.8262 C   0  0  0  0  0  0  0  0  0  0  0  0
   13.3557    7.5399    6.8575 C   0  0  0  0  0  0  0  0  0  0  0  0
   12.7024    8.0063    7.9369 N   0  0  0  0  0  0  0  0  0  0  0  0
   11.3807    7.7581    7.9823 C   0  0  0  0  0  0  0  0  0  0  0  0
   10.7028    8.2076    9.0480 F   0  0  0  0  0  0  0  0  0  0  0  0
   10.6808    7.0765    7.0000 C   0  0  0  0  0  0  0  0  0  0  0  0
   11.0870    5.9941    3.4419 C   0  0  0  0  0  0  0  0  0  0  0  0
   10.4303    5.3203    2.4064 C   0  0  0  0  0  0  0  0  0  0  0  0
    4.3004    2.6492    1.8107 C   0  0  0  0  0  0  0  0  0  0  0  0
    0.2526    2.7727    3.4668 H   0  0  0  0  0  0  0  0  0  0  0  0
    1.2197    1.4314    4.0978 H   0  0  0  0  0  0  0  0  0  0  0  0
    0.5717    1.3950    2.4115 H   0  0  0  0  0  0  0  0  0  0  0  0
    2.3466   -0.0556    2.5164 H   0  0  0  0  0  0  0  0  0  0  0  0
    4.2956   -1.2107    1.5979 H   0  0  0  0  0  0  0  0  0  0  0  0
    6.2534    0.0511    0.7938 H   0  0  0  0  0  0  0  0  0  0  0  0
    7.2791    2.0574    0.1958 H   0  0  0  0  0  0  0  0  0  0  0  0
    5.4450    4.5030   -0.0371 H   0  0  0  0  0  0  0  0  0  0  0  0
    5.5959    3.1961   -1.2210 H   0  0  0  0  0  0  0  0  0  0  0  0
    6.9717    4.2588   -0.8808 H   0  0  0  0  0  0  0  0  0  0  0  0
    6.8078    3.8229    2.4924 H   0  0  0  0  0  0  0  0  0  0  0  0
    8.0256    3.7729    4.2519 H   0  0  0  0  0  0  0  0  0  0  0  0
    9.1707    4.9362    6.0435 H   0  0  0  0  0  0  0  0  0  0  0  0
   13.3568    6.4854    5.0030 H   0  0  0  0  0  0  0  0  0  0  0  0
   14.4219    7.7471    6.8331 H   0  0  0  0  0  0  0  0  0  0  0  0
    9.6127    6.9473    7.1295 H   0  0  0  0  0  0  0  0  0  0  0  0
   11.9445    6.6134    3.1805 H   0  0  0  0  0  0  0  0  0  0  0  0
   10.8017    5.4178    1.3865 H   0  0  0  0  0  0  0  0  0  0  0  0
    4.2753    3.7350    1.8702 H   0  0  0  0  0  0  0  0  0  0  0  0
  1  2  1  0  0  0  0
  1 27  1  0  0  0  0
  1 28  1  0  0  0  0
  1 29  1  0  0  0  0
  2  3  1  0  0  0  0
  3  4  1  0  0  0  0
  3 26  2  0  0  0  0
  4  5  2  0  0  0  0
  4 30  1  0  0  0  0
  5  6  1  0  0  0  0
  5 31  1  0  0  0  0
  6  7  2  0  0  0  0
  6 32  1  0  0  0  0
  7  8  1  0  0  0  0
  7 26  1  0  0  0  0
  8  9  1  0  0  0  0
  8 10  1  0  0  0  0
  8 33  1  6  0  0  0
  9 34  1  0  0  0  0
  9 35  1  0  0  0  0
  9 36  1  0  0  0  0
 10 11  1  0  0  0  0
 10 37  1  0  0  0  0
 11 12  2  0  0  0  0
 11 13  1  0  0  0  0
 13 14  1  0  0  0  0
 13 25  2  0  0  0  0
 14 15  2  0  0  0  0
 14 38  1  0  0  0  0
 15 16  1  0  0  0  0
 15 39  1  0  0  0  0
 16 17  1  0  0  0  0
 16 24  2  0  0  0  0
 17 18  1  0  0  0  0
 17 23  2  0  0  0  0
 18 19  2  0  0  0  0
 18 40  1  0  0  0  0
 19 20  1  0  0  0  0
 19 41  1  0  0  0  0
 20 21  2  0  0  0  0
 21 22  1  0  0  0  0
 21 23  1  0  0  0  0
 23 42  1  0  0  0  0
 24 25  1  0  0  0  0
 24 43  1  0  0  0  0
 25 44  1  0  0  0  0
 26 45  1  0  0  0  0
M  END
$$$$
