REMARK  Name = 
REMARK  13 active torsions:
REMARK  status: ('A' for Active; 'I' for Inactive)
REMARK    1  A    between atoms: C_2  and  C_37
REMARK    2  A    between atoms: N_3  and  C_4
REMARK    3  A    between atoms: C_13  and  O_14
REMARK    4  A    between atoms: O_14  and  C_15
REMARK    5  A    between atoms: C_15  and  C_17
REMARK    6  A    between atoms: C_19  and  O_20
REMARK    7  A    between atoms: C_21  and  C_22
REMARK    8  A    between atoms: C_22  and  C_24
REMARK    9  A    between atoms: C_25  and  O_26
REMARK   10  A    between atoms: C_30  and  C_31
REMARK   11  A    between atoms: C_31  and  O_33
REMARK   12  A    between atoms: C_34  and  O_35
REMARK   13  A    between atoms: C_40  and  O_41
REMARK                            x       y       z     vdW  Elec       q    Type
REMARK                         _______ _______ _______ _____ _____    ______ ____
ROOT
ATOM      1  C   UNL     1       1.701  -0.876   1.847  0.00  0.00    +0.000 C 
ATOM      2  C   UNL     1       1.659   0.543   1.147  0.00  0.00    +0.000 C 
ATOM      3  C   UNL     1       0.894   0.344  -0.202  0.00  0.00    +0.000 C 
ATOM      4  C   UNL     1       1.727  -0.888  -0.587  0.00  0.00    +0.000 C 
ATOM      5  C   UNL     1       3.088  -0.045  -0.656  0.00  0.00    +0.000 C 
ATOM      6  C   UNL     1       4.197   0.646  -1.480  0.00  0.00    +0.000 C 
ATOM      7  C   UNL     1       3.990   2.168  -1.186  0.00  0.00    +0.000 C 
ATOM      8  C   UNL     1       3.303   2.278   0.175  0.00  0.00    +0.000 C 
ATOM      9  C   UNL     1       3.050   0.842   0.616  0.00  0.00    +0.000 C 
ATOM     10  C   UNL     1       1.250  -1.746   0.668  0.00  0.00    +0.000 C 
ATOM     11  H   UNL     1       0.971  -0.879   2.662  0.00  0.00    +0.000 HD
ATOM     12  H   UNL     1       1.194   1.319   1.758  0.00  0.00    +0.000 HD
ATOM     13  H   UNL     1       0.946   1.188  -0.902  0.00  0.00    +0.000 HD
ATOM     14  H   UNL     1      -0.152   0.150  -0.164  0.00  0.00    +0.000 HD
ATOM     15  H   UNL     1       1.507  -1.412  -1.523  0.00  0.00    +0.000 HD
ATOM     16  H   UNL     1       2.526   0.442  -1.478  0.00  0.00    +0.000 HD
ATOM     17  H   UNL     1       4.116   0.470  -2.564  0.00  0.00    +0.000 HD
ATOM     18  H   UNL     1       5.201   0.337  -1.178  0.00  0.00    +0.000 HD
ATOM     19  H   UNL     1       3.324   2.615  -1.939  0.00  0.00    +0.000 HD
ATOM     20  H   UNL     1       4.925   2.735  -1.216  0.00  0.00    +0.000 HD
ATOM     21  H   UNL     1       2.381   2.871   0.116  0.00  0.00    +0.000 HD
ATOM     22  H   UNL     1       3.947   2.790   0.901  0.00  0.00    +0.000 HD
ATOM     23  H   UNL     1       3.834   0.576   1.330  0.00  0.00    +0.000 HD
ATOM     24  H   UNL     1       1.597  -2.785   0.712  0.00  0.00    +0.000 HD
ENDROOT
BRANCH   1  27
ATOM     25  O   UNL     1       3.005   0.015   4.212  0.00  0.00    +0.000 OA
ATOM     26  C   UNL     1       3.446  -1.000   3.649  0.00  0.00    +0.000 C 
ATOM     27  N   UNL     1       2.960  -1.411   2.425  0.00  0.00    +0.000 N 
ATOM     28  H   UNL     1       3.211  -2.346   2.145  0.00  0.00    +0.000 HD
BRANCH  26  29
ATOM     29  C   UNL     1       4.515  -1.820   4.318  0.00  0.00    +0.000 A 
ATOM     30  C   UNL     1       4.852  -1.496   5.650  0.00  0.00    +0.000 A 
ATOM     31  C   UNL     1       5.853  -2.186   6.343  0.00  0.00    +0.000 A 
ATOM     32  C   UNL     1       6.535  -3.217   5.709  0.00  0.00    +0.000 A 
ATOM     33  C   UNL     1       6.208  -3.578   4.407  0.00  0.00    +0.000 A 
ATOM     34  C   UNL     1       5.204  -2.881   3.708  0.00  0.00    +0.000 A 
ATOM     35  H   UNL     1       4.323  -0.691   6.161  0.00  0.00    +0.000 HD
ATOM     36  H   UNL     1       6.084  -1.907   7.367  0.00  0.00    +0.000 HD
ATOM     37  H   UNL     1       6.747  -4.393   3.927  0.00  0.00    +0.000 HD
ATOM     38  H   UNL     1       5.000  -3.189   2.691  0.00  0.00    +0.000 HD
BRANCH  32  39
ATOM     39  O   UNL     1       7.540  -3.896   6.329  0.00  0.00    +0.000 OA
ATOM     40  H   UNL     1       7.724  -3.473   7.185  0.00  0.00    +0.000 HD
ENDBRANCH  32  39
ENDBRANCH  26  29
ENDBRANCH   1  27
BRANCH  10  41
ATOM     41  O   UNL     1      -0.237  -1.695   0.901  0.00  0.00    +0.000 OA
BRANCH  41  42
ATOM     42  C   UNL     1      -1.113  -2.192   0.009  0.00  0.00    +0.000 C 
ATOM     43  O   UNL     1      -0.962  -3.246  -0.592  0.00  0.00    +0.000 OA
BRANCH  42  44
ATOM     44  C   UNL     1      -2.175  -1.153  -0.358  0.00  0.00    +0.000 A 
ATOM     45  C   UNL     1      -2.419   0.033   0.352  0.00  0.00    +0.000 A 
ATOM     46  C   UNL     1      -3.111   1.101  -0.265  0.00  0.00    +0.000 A 
ATOM     47  C   UNL     1      -3.620   0.982  -1.574  0.00  0.00    +0.000 A 
ATOM     48  C   UNL     1      -3.412  -0.233  -2.245  0.00  0.00    +0.000 A 
ATOM     49  C   UNL     1      -2.727  -1.293  -1.645  0.00  0.00    +0.000 A 
ATOM     50  H   UNL     1      -1.976   0.182   1.339  0.00  0.00    +0.000 HD
ATOM     51  H   UNL     1      -2.542  -2.198  -2.209  0.00  0.00    +0.000 HD
BRANCH  46  52
ATOM     52  O   UNL     1      -3.258   2.287   0.405  0.00  0.00    +0.000 OA
ATOM     53  H   UNL     1      -2.778   2.276   1.249  0.00  0.00    +0.000 HD
ENDBRANCH  46  52
BRANCH  47  54
ATOM     54  C   UNL     1      -4.279   2.158  -2.252  0.00  0.00    +0.000 C 
ATOM     55  O   UNL     1      -3.728   3.249  -2.212  0.00  0.00    +0.000 OA
BRANCH  54  56
ATOM     56  C   UNL     1      -5.486   2.022  -3.142  0.00  0.00    +0.000 A 
ATOM     57  C   UNL     1      -5.577   2.943  -4.218  0.00  0.00    +0.000 A 
ATOM     58  C   UNL     1      -6.618   2.890  -5.147  0.00  0.00    +0.000 A 
ATOM     59  C   UNL     1      -7.610   1.928  -5.032  0.00  0.00    +0.000 A 
ATOM     60  C   UNL     1      -7.558   1.018  -3.977  0.00  0.00    +0.000 A 
ATOM     61  C   UNL     1      -6.503   1.049  -3.034  0.00  0.00    +0.000 A 
ATOM     62  H   UNL     1      -6.658   3.621  -5.954  0.00  0.00    +0.000 HD
ATOM     63  H   UNL     1      -8.432   1.903  -5.744  0.00  0.00    +0.000 HD
ATOM     64  H   UNL     1      -8.376   0.305  -3.877  0.00  0.00    +0.000 HD
BRANCH  57  65
ATOM     65  O   UNL     1      -4.656   3.929  -4.444  0.00  0.00    +0.000 OA
ATOM     66  H   UNL     1      -4.108   4.029  -3.629  0.00  0.00    +0.000 HD
ENDBRANCH  57  65
BRANCH  61  67
ATOM     67  C   UNL     1      -6.578   0.086  -1.914  0.00  0.00    +0.000 C 
ATOM     68  O   UNL     1      -6.316   0.384  -0.764  0.00  0.00    +0.000 OA
BRANCH  67  69
ATOM     69  O   UNL     1      -6.974  -1.152  -2.283  0.00  0.00    +0.000 OA
ATOM     70  H   UNL     1      -7.019  -1.326  -3.242  0.00  0.00    +0.000 HD
ENDBRANCH  67  69
ENDBRANCH  61  67
ENDBRANCH  54  56
ENDBRANCH  47  54
BRANCH  48  71
ATOM     71  O   UNL     1      -3.804  -0.467  -3.539  0.00  0.00    +0.000 OA
ATOM     72  H   UNL     1      -3.774   0.363  -4.047  0.00  0.00    +0.000 HD
ENDBRANCH  48  71
ENDBRANCH  42  44
ENDBRANCH  41  42
ENDBRANCH  10  41
TORSDOF 13
