MODEL 1
REMARK VINA RESULT:   -10.598      0.000      0.000
REMARK INTER + INTRA:         -11.445
REMARK INTER:                 -11.217
REMARK INTRA:                  -0.228
REMARK UNBOUND:                -0.228
REMARK  Name = 
REMARK  1 active torsions:
REMARK  status: ('A' for Active; 'I' for Inactive)
REMARK    1  A    between atoms: C_6  and  C_7
REMARK                            x       y       z     vdW  Elec       q    Type
REMARK                         _______ _______ _______ _____ _____    ______ ____
ROOT
ATOM      1  C   UNL     1      -8.928  -9.373  18.311  0.00  0.00    +0.000 A 
ATOM      2  C   UNL     1      -8.627  -9.984  19.516  0.00  0.00    +0.000 A 
ATOM      3  N   UNL     1      -8.446 -11.323  19.289  0.00  0.00    +0.000 N 
ATOM      4  C   UNL     1      -8.614 -11.607  17.954  0.00  0.00    +0.000 A 
ATOM      5  C   UNL     1      -8.529 -12.832  17.278  0.00  0.00    +0.000 A 
ATOM      6  C   UNL     1      -8.750 -12.819  15.897  0.00  0.00    +0.000 A 
ATOM      7 BR   UNL     1      -8.646 -14.444  14.933  0.00  0.00    +0.000 Br
ATOM      8  C   UNL     1      -9.047 -11.641  15.220  0.00  0.00    +0.000 A 
ATOM      9  C   UNL     1      -9.130 -10.430  15.916  0.00  0.00    +0.000 A 
ATOM     10  C   UNL     1      -8.908 -10.403  17.311  0.00  0.00    +0.000 A 
ATOM     11  H   UNL     1      -8.519  -9.590  20.518  0.00  0.00    +0.000 HD
ATOM     12  H   UNL     1      -8.222 -12.010  19.996  0.00  0.00    +0.000 HD
ATOM     13  H   UNL     1      -8.302 -13.752  17.805  0.00  0.00    +0.000 HD
ATOM     14  H   UNL     1      -9.217 -11.645  14.146  0.00  0.00    +0.000 HD
ATOM     15  H   UNL     1      -9.366  -9.512  15.383  0.00  0.00    +0.000 HD
ENDROOT
BRANCH   1  21
ATOM     16  N   UNL     1     -11.942  -6.014  16.982  0.00  0.00    +0.000 N 
ATOM     17  C   UNL     1     -10.716  -6.345  17.521  0.00  0.00    +0.000 A 
ATOM     18  N   UNL     1      -9.919  -5.340  17.893  0.00  0.00    +0.000 NA
ATOM     19  C   UNL     1      -8.739  -5.686  18.436  0.00  0.00    +0.000 A 
ATOM     20  C   UNL     1      -8.333  -6.986  18.602  0.00  0.00    +0.000 A 
ATOM     21  C   UNL     1      -9.217  -7.948  18.164  0.00  0.00    +0.000 A 
ATOM     22  N   UNL     1     -10.408  -7.639  17.611  0.00  0.00    +0.000 NA
ATOM     23  H   UNL     1     -11.910  -5.074  16.612  0.00  0.00    +0.000 HD
ATOM     24  H   UNL     1     -12.258  -6.749  16.366  0.00  0.00    +0.000 HD
ATOM     25  H   UNL     1      -8.115  -4.857  18.756  0.00  0.00    +0.000 HD
ATOM     26  H   UNL     1      -7.387  -7.221  19.071  0.00  0.00    +0.000 HD
ENDBRANCH   1  21
TORSDOF 1
ENDMDL
MODEL 2
REMARK VINA RESULT:   -10.457      1.073      1.285
REMARK INTER + INTRA:         -11.295
REMARK INTER:                 -11.174
REMARK INTRA:                  -0.122
REMARK UNBOUND:                -0.228
REMARK  Name = 
REMARK  1 active torsions:
REMARK  status: ('A' for Active; 'I' for Inactive)
REMARK    1  A    between atoms: C_6  and  C_7
REMARK                            x       y       z     vdW  Elec       q    Type
REMARK                         _______ _______ _______ _____ _____    ______ ____
ROOT
ATOM      1  C   UNL     1      -9.106  -9.244  17.961  0.00  0.00    +0.000 A 
ATOM      2  C   UNL     1      -8.754  -9.744  19.203  0.00  0.00    +0.000 A 
ATOM      3  N   UNL     1      -8.495 -11.083  19.073  0.00  0.00    +0.000 N 
ATOM      4  C   UNL     1      -8.660 -11.476  17.766  0.00  0.00    +0.000 A 
ATOM      5  C   UNL     1      -8.509 -12.741  17.182  0.00  0.00    +0.000 A 
ATOM      6  C   UNL     1      -8.746 -12.845  15.809  0.00  0.00    +0.000 A 
ATOM      7 BR   UNL     1      -8.555 -14.530  14.967  0.00  0.00    +0.000 Br
ATOM      8  C   UNL     1      -9.122 -11.742  15.050  0.00  0.00    +0.000 A 
ATOM      9  C   UNL     1      -9.270 -10.489  15.655  0.00  0.00    +0.000 A 
ATOM     10  C   UNL     1      -9.034 -10.343  17.041  0.00  0.00    +0.000 A 
ATOM     11  H   UNL     1      -8.659  -9.269  20.170  0.00  0.00    +0.000 HD
ATOM     12  H   UNL     1      -8.221 -11.699  19.826  0.00  0.00    +0.000 HD
ATOM     13  H   UNL     1      -8.221 -13.603  17.773  0.00  0.00    +0.000 HD
ATOM     14  H   UNL     1      -9.304 -11.837  13.982  0.00  0.00    +0.000 HD
ATOM     15  H   UNL     1      -9.567  -9.630  15.059  0.00  0.00    +0.000 HD
ENDROOT
BRANCH   1  21
ATOM     16  N   UNL     1      -8.983  -5.514  15.096  0.00  0.00    +0.000 N 
ATOM     17  C   UNL     1      -9.412  -6.068  16.285  0.00  0.00    +0.000 A 
ATOM     18  N   UNL     1     -10.161  -5.303  17.083  0.00  0.00    +0.000 NA
ATOM     19  C   UNL     1     -10.587  -5.870  18.224  0.00  0.00    +0.000 A 
ATOM     20  C   UNL     1     -10.279  -7.155  18.593  0.00  0.00    +0.000 A 
ATOM     21  C   UNL     1      -9.482  -7.854  17.712  0.00  0.00    +0.000 A 
ATOM     22  N   UNL     1      -9.032  -7.316  16.559  0.00  0.00    +0.000 NA
ATOM     23  H   UNL     1      -8.987  -4.506  15.169  0.00  0.00    +0.000 HD
ATOM     24  H   UNL     1      -8.127  -5.959  14.798  0.00  0.00    +0.000 HD
ATOM     25  H   UNL     1     -11.215  -5.242  18.848  0.00  0.00    +0.000 HD
ATOM     26  H   UNL     1     -10.667  -7.584  19.506  0.00  0.00    +0.000 HD
ENDBRANCH   1  21
TORSDOF 1
ENDMDL
MODEL 3
REMARK VINA RESULT:    -9.601      1.824      2.641
REMARK INTER + INTRA:         -10.390
REMARK INTER:                 -10.361
REMARK INTRA:                  -0.029
REMARK UNBOUND:                -0.228
REMARK  Name = 
REMARK  1 active torsions:
REMARK  status: ('A' for Active; 'I' for Inactive)
REMARK    1  A    between atoms: C_6  and  C_7
REMARK                            x       y       z     vdW  Elec       q    Type
REMARK                         _______ _______ _______ _____ _____    ______ ____
ROOT
ATOM      1  C   UNL     1      -9.062  -8.766  16.847  0.00  0.00    +0.000 A 
ATOM      2  C   UNL     1      -9.452  -8.263  15.618  0.00  0.00    +0.000 A 
ATOM      3  N   UNL     1      -9.528  -9.302  14.729  0.00  0.00    +0.000 N 
ATOM      4  C   UNL     1      -9.204 -10.485  15.348  0.00  0.00    +0.000 A 
ATOM      5  C   UNL     1      -9.143 -11.786  14.828  0.00  0.00    +0.000 A 
ATOM      6  C   UNL     1      -8.779 -12.810  15.706  0.00  0.00    +0.000 A 
ATOM      7 BR   UNL     1      -8.684 -14.587  15.059  0.00  0.00    +0.000 Br
ATOM      8  C   UNL     1      -8.482 -12.554  17.041  0.00  0.00    +0.000 A 
ATOM      9  C   UNL     1      -8.545 -11.246  17.537  0.00  0.00    +0.000 A 
ATOM     10  C   UNL     1      -8.915 -10.185  16.681  0.00  0.00    +0.000 A 
ATOM     11  H   UNL     1      -9.689  -7.258  15.293  0.00  0.00    +0.000 HD
ATOM     12  H   UNL     1      -9.786  -9.218  13.754  0.00  0.00    +0.000 HD
ATOM     13  H   UNL     1      -9.370 -11.987  13.788  0.00  0.00    +0.000 HD
ATOM     14  H   UNL     1      -8.198 -13.360  17.712  0.00  0.00    +0.000 HD
ATOM     15  H   UNL     1      -8.309 -11.050  18.580  0.00  0.00    +0.000 HD
ENDROOT
BRANCH   1  21
ATOM     16  N   UNL     1      -8.468  -4.488  18.711  0.00  0.00    +0.000 N 
ATOM     17  C   UNL     1      -8.575  -5.850  18.907  0.00  0.00    +0.000 A 
ATOM     18  N   UNL     1      -8.507  -6.295  20.164  0.00  0.00    +0.000 NA
ATOM     19  C   UNL     1      -8.635  -7.622  20.333  0.00  0.00    +0.000 A 
ATOM     20  C   UNL     1      -8.811  -8.505  19.298  0.00  0.00    +0.000 A 
ATOM     21  C   UNL     1      -8.844  -7.948  18.038  0.00  0.00    +0.000 A 
ATOM     22  N   UNL     1      -8.715  -6.621  17.828  0.00  0.00    +0.000 NA
ATOM     23  H   UNL     1      -7.994  -4.066  19.496  0.00  0.00    +0.000 HD
ATOM     24  H   UNL     1      -8.105  -4.299  17.788  0.00  0.00    +0.000 HD
ATOM     25  H   UNL     1      -8.603  -7.964  21.363  0.00  0.00    +0.000 HD
ATOM     26  H   UNL     1      -8.940  -9.563  19.480  0.00  0.00    +0.000 HD
ENDBRANCH   1  21
TORSDOF 1
ENDMDL
MODEL 4
REMARK VINA RESULT:    -9.394      1.688      2.331
REMARK INTER + INTRA:         -10.171
REMARK INTER:                  -9.927
REMARK INTRA:                  -0.244
REMARK UNBOUND:                -0.228
REMARK  Name = 
REMARK  1 active torsions:
REMARK  status: ('A' for Active; 'I' for Inactive)
REMARK    1  A    between atoms: C_6  and  C_7
REMARK                            x       y       z     vdW  Elec       q    Type
REMARK                         _______ _______ _______ _____ _____    ______ ____
ROOT
ATOM      1  C   UNL     1      -9.215  -8.844  15.961  0.00  0.00    +0.000 A 
ATOM      2  C   UNL     1      -8.923  -8.684  14.617  0.00  0.00    +0.000 A 
ATOM      3  N   UNL     1      -8.632  -9.914  14.088  0.00  0.00    +0.000 N 
ATOM      4  C   UNL     1      -8.734 -10.886  15.055  0.00  0.00    +0.000 A 
ATOM      5  C   UNL     1      -8.522 -12.269  14.966  0.00  0.00    +0.000 A 
ATOM      6  C   UNL     1      -8.703 -13.021  16.130  0.00  0.00    +0.000 A 
ATOM      7 BR   UNL     1      -8.433 -14.893  16.067  0.00  0.00    +0.000 Br
ATOM      8  C   UNL     1      -9.074 -12.425  17.331  0.00  0.00    +0.000 A 
ATOM      9  C   UNL     1      -9.277 -11.041  17.397  0.00  0.00    +0.000 A 
ATOM     10  C   UNL     1      -9.108 -10.249  16.240  0.00  0.00    +0.000 A 
ATOM     11  H   UNL     1      -8.900  -7.807  13.984  0.00  0.00    +0.000 HD
ATOM     12  H   UNL     1      -8.376 -10.089  13.125  0.00  0.00    +0.000 HD
ATOM     13  H   UNL     1      -8.228 -12.734  14.032  0.00  0.00    +0.000 HD
ATOM     14  H   UNL     1      -9.211 -13.022  18.229  0.00  0.00    +0.000 HD
ATOM     15  H   UNL     1      -9.564 -10.579  18.338  0.00  0.00    +0.000 HD
ENDROOT
BRANCH   1  21
ATOM     16  N   UNL     1     -12.137  -5.337  17.099  0.00  0.00    +0.000 N 
ATOM     17  C   UNL     1     -10.998  -6.060  17.394  0.00  0.00    +0.000 A 
ATOM     18  N   UNL     1     -10.323  -5.718  18.493  0.00  0.00    +0.000 NA
ATOM     19  C   UNL     1      -9.231  -6.450  18.773  0.00  0.00    +0.000 A 
ATOM     20  C   UNL     1      -8.793  -7.487  17.990  0.00  0.00    +0.000 A 
ATOM     21  C   UNL     1      -9.546  -7.745  16.865  0.00  0.00    +0.000 A 
ATOM     22  N   UNL     1     -10.646  -7.030  16.550  0.00  0.00    +0.000 NA
ATOM     23  H   UNL     1     -12.092  -4.433  17.547  0.00  0.00    +0.000 HD
ATOM     24  H   UNL     1     -12.312  -5.360  16.105  0.00  0.00    +0.000 HD
ATOM     25  H   UNL     1      -8.708  -6.174  19.684  0.00  0.00    +0.000 HD
ATOM     26  H   UNL     1      -7.925  -8.070  18.266  0.00  0.00    +0.000 HD
ENDBRANCH   1  21
TORSDOF 1
ENDMDL
MODEL 5
REMARK VINA RESULT:    -9.231      3.289      6.397
REMARK INTER + INTRA:          -9.998
REMARK INTER:                 -10.059
REMARK INTRA:                   0.061
REMARK UNBOUND:                -0.228
REMARK  Name = 
REMARK  1 active torsions:
REMARK  status: ('A' for Active; 'I' for Inactive)
REMARK    1  A    between atoms: C_6  and  C_7
REMARK                            x       y       z     vdW  Elec       q    Type
REMARK                         _______ _______ _______ _____ _____    ______ ____
ROOT
ATOM      1  C   UNL     1      -8.874 -10.822  15.587  0.00  0.00    +0.000 A 
ATOM      2  C   UNL     1      -8.853 -10.312  14.300  0.00  0.00    +0.000 A 
ATOM      3  N   UNL     1      -8.978  -8.950  14.373  0.00  0.00    +0.000 N 
ATOM      4  C   UNL     1      -9.071  -8.548  15.685  0.00  0.00    +0.000 A 
ATOM      5  C   UNL     1      -9.215  -7.262  16.224  0.00  0.00    +0.000 A 
ATOM      6  C   UNL     1      -9.284  -7.155  17.616  0.00  0.00    +0.000 A 
ATOM      7 BR   UNL     1      -9.475  -5.442  18.398  0.00  0.00    +0.000 Br
ATOM      8  C   UNL     1      -9.218  -8.276  18.436  0.00  0.00    +0.000 A 
ATOM      9  C   UNL     1      -9.078  -9.551  17.875  0.00  0.00    +0.000 A 
ATOM     10  C   UNL     1      -9.000  -9.699  16.472  0.00  0.00    +0.000 A 
ATOM     11  H   UNL     1      -8.757 -10.792  13.336  0.00  0.00    +0.000 HD
ATOM     12  H   UNL     1      -8.999  -8.323  13.580  0.00  0.00    +0.000 HD
ATOM     13  H   UNL     1      -9.271  -6.388  15.585  0.00  0.00    +0.000 HD
ATOM     14  H   UNL     1      -9.273  -8.178  19.517  0.00  0.00    +0.000 HD
ATOM     15  H   UNL     1      -9.030 -10.425  18.520  0.00  0.00    +0.000 HD
ENDROOT
BRANCH   1  21
ATOM     16  N   UNL     1      -8.760 -14.189  18.871  0.00  0.00    +0.000 N 
ATOM     17  C   UNL     1      -8.757 -13.853  17.532  0.00  0.00    +0.000 A 
ATOM     18  N   UNL     1      -8.720 -14.855  16.650  0.00  0.00    +0.000 NA
ATOM     19  C   UNL     1      -8.741 -14.506  15.352  0.00  0.00    +0.000 A 
ATOM     20  C   UNL     1      -8.782 -13.206  14.917  0.00  0.00    +0.000 A 
ATOM     21  C   UNL     1      -8.794 -12.246  15.906  0.00  0.00    +0.000 A 
ATOM     22  N   UNL     1      -8.770 -12.558  17.219  0.00  0.00    +0.000 NA
ATOM     23  H   UNL     1      -8.368 -15.112  18.992  0.00  0.00    +0.000 HD
ATOM     24  H   UNL     1      -8.364 -13.436  19.416  0.00  0.00    +0.000 HD
ATOM     25  H   UNL     1      -8.736 -15.334  14.649  0.00  0.00    +0.000 HD
ATOM     26  H   UNL     1      -8.828 -12.969  13.864  0.00  0.00    +0.000 HD
ENDBRANCH   1  21
TORSDOF 1
ENDMDL
MODEL 6
REMARK VINA RESULT:    -9.126      3.108      6.224
REMARK INTER + INTRA:          -9.888
REMARK INTER:                  -9.632
REMARK INTRA:                  -0.255
REMARK UNBOUND:                -0.228
REMARK  Name = 
REMARK  1 active torsions:
REMARK  status: ('A' for Active; 'I' for Inactive)
REMARK    1  A    between atoms: C_6  and  C_7
REMARK                            x       y       z     vdW  Elec       q    Type
REMARK                         _______ _______ _______ _____ _____    ______ ____
ROOT
ATOM      1  C   UNL     1      -9.937  -9.370  16.561  0.00  0.00    +0.000 A 
ATOM      2  C   UNL     1     -11.075  -9.034  15.846  0.00  0.00    +0.000 A 
ATOM      3  N   UNL     1     -11.383  -7.726  16.113  0.00  0.00    +0.000 N 
ATOM      4  C   UNL     1     -10.465  -7.188  16.984  0.00  0.00    +0.000 A 
ATOM      5  C   UNL     1     -10.392  -5.898  17.529  0.00  0.00    +0.000 A 
ATOM      6  C   UNL     1      -9.332  -5.630  18.399  0.00  0.00    +0.000 A 
ATOM      7 BR   UNL     1      -9.182  -3.904  19.162  0.00  0.00    +0.000 Br
ATOM      8  C   UNL     1      -8.389  -6.601  18.718  0.00  0.00    +0.000 A 
ATOM      9  C   UNL     1      -8.484  -7.883  18.164  0.00  0.00    +0.000 A 
ATOM     10  C   UNL     1      -9.539  -8.190  17.277  0.00  0.00    +0.000 A 
ATOM     11  H   UNL     1     -11.694  -9.604  15.167  0.00  0.00    +0.000 HD
ATOM     12  H   UNL     1     -12.171  -7.222  15.729  0.00  0.00    +0.000 HD
ATOM     13  H   UNL     1     -11.129  -5.141  17.285  0.00  0.00    +0.000 HD
ATOM     14  H   UNL     1      -7.570  -6.379  19.397  0.00  0.00    +0.000 HD
ATOM     15  H   UNL     1      -7.747  -8.640  18.419  0.00  0.00    +0.000 HD
ENDROOT
BRANCH   1  21
ATOM     16  N   UNL     1      -8.828 -13.285  18.922  0.00  0.00    +0.000 N 
ATOM     17  C   UNL     1      -8.817 -12.589  17.730  0.00  0.00    +0.000 A 
ATOM     18  N   UNL     1      -8.283 -13.199  16.669  0.00  0.00    +0.000 NA
ATOM     19  C   UNL     1      -8.303 -12.512  15.514  0.00  0.00    +0.000 A 
ATOM     20  C   UNL     1      -8.819 -11.247  15.394  0.00  0.00    +0.000 A 
ATOM     21  C   UNL     1      -9.324 -10.696  16.551  0.00  0.00    +0.000 A 
ATOM     22  N   UNL     1      -9.318 -11.354  17.730  0.00  0.00    +0.000 NA
ATOM     23  H   UNL     1      -8.112 -13.997  18.908  0.00  0.00    +0.000 HD
ATOM     24  H   UNL     1      -8.832 -12.639  19.698  0.00  0.00    +0.000 HD
ATOM     25  H   UNL     1      -7.888 -13.034  14.657  0.00  0.00    +0.000 HD
ATOM     26  H   UNL     1      -8.842 -10.741  14.439  0.00  0.00    +0.000 HD
ENDBRANCH   1  21
TORSDOF 1
ENDMDL
MODEL 7
REMARK VINA RESULT:    -9.005      2.019      2.824
REMARK INTER + INTRA:          -9.759
REMARK INTER:                  -9.486
REMARK INTRA:                  -0.274
REMARK UNBOUND:                -0.228
REMARK  Name = 
REMARK  1 active torsions:
REMARK  status: ('A' for Active; 'I' for Inactive)
REMARK    1  A    between atoms: C_6  and  C_7
REMARK                            x       y       z     vdW  Elec       q    Type
REMARK                         _______ _______ _______ _____ _____    ______ ____
ROOT
ATOM      1  C   UNL     1      -9.406  -7.447  17.897  0.00  0.00    +0.000 A 
ATOM      2  C   UNL     1      -8.890  -7.135  19.144  0.00  0.00    +0.000 A 
ATOM      3  N   UNL     1      -8.506  -8.299  19.756  0.00  0.00    +0.000 N 
ATOM      4  C   UNL     1      -8.749  -9.373  18.934  0.00  0.00    +0.000 A 
ATOM      5  C   UNL     1      -8.521 -10.740  19.149  0.00  0.00    +0.000 A 
ATOM      6  C   UNL     1      -8.871 -11.618  18.119  0.00  0.00    +0.000 A 
ATOM      7 BR   UNL     1      -8.583 -13.474  18.355  0.00  0.00    +0.000 Br
ATOM      8  C   UNL     1      -9.429 -11.159  16.931  0.00  0.00    +0.000 A 
ATOM      9  C   UNL     1      -9.652  -9.791  16.740  0.00  0.00    +0.000 A 
ATOM     10  C   UNL     1      -9.305  -8.872  17.755  0.00  0.00    +0.000 A 
ATOM     11  H   UNL     1      -8.757  -6.190  19.652  0.00  0.00    +0.000 HD
ATOM     12  H   UNL     1      -8.100  -8.365  20.680  0.00  0.00    +0.000 HD
ATOM     13  H   UNL     1      -8.090 -11.100  20.077  0.00  0.00    +0.000 HD
ATOM     14  H   UNL     1      -9.698 -11.853  16.139  0.00  0.00    +0.000 HD
ATOM     15  H   UNL     1     -10.091  -9.437  15.810  0.00  0.00    +0.000 HD
ENDROOT
BRANCH   1  21
ATOM     16  N   UNL     1      -8.874  -4.979  13.927  0.00  0.00    +0.000 N 
ATOM     17  C   UNL     1      -9.658  -5.292  15.019  0.00  0.00    +0.000 A 
ATOM     18  N   UNL     1     -10.851  -4.699  15.108  0.00  0.00    +0.000 NA
ATOM     19  C   UNL     1     -11.606  -5.036  16.168  0.00  0.00    +0.000 A 
ATOM     20  C   UNL     1     -11.204  -5.923  17.134  0.00  0.00    +0.000 A 
ATOM     21  C   UNL     1      -9.947  -6.462  16.963  0.00  0.00    +0.000 A 
ATOM     22  N   UNL     1      -9.159  -6.145  15.914  0.00  0.00    +0.000 NA
ATOM     23  H   UNL     1      -9.154  -4.085  13.551  0.00  0.00    +0.000 HD
ATOM     24  H   UNL     1      -7.899  -5.108  14.154  0.00  0.00    +0.000 HD
ATOM     25  H   UNL     1     -12.582  -4.563  16.210  0.00  0.00    +0.000 HD
ATOM     26  H   UNL     1     -11.854  -6.188  17.955  0.00  0.00    +0.000 HD
ENDBRANCH   1  21
TORSDOF 1
ENDMDL
MODEL 8
REMARK VINA RESULT:    -8.948      3.366      6.021
REMARK INTER + INTRA:          -9.699
REMARK INTER:                  -9.580
REMARK INTRA:                  -0.119
REMARK UNBOUND:                -0.228
REMARK  Name = 
REMARK  1 active torsions:
REMARK  status: ('A' for Active; 'I' for Inactive)
REMARK    1  A    between atoms: C_6  and  C_7
REMARK                            x       y       z     vdW  Elec       q    Type
REMARK                         _______ _______ _______ _____ _____    ______ ____
ROOT
ATOM      1  C   UNL     1      -8.725 -10.986  17.767  0.00  0.00    +0.000 A 
ATOM      2  C   UNL     1      -8.322 -11.120  19.085  0.00  0.00    +0.000 A 
ATOM      3  N   UNL     1      -8.536  -9.929  19.726  0.00  0.00    +0.000 N 
ATOM      4  C   UNL     1      -9.081  -9.012  18.860  0.00  0.00    +0.000 A 
ATOM      5  C   UNL     1      -9.454  -7.678  19.080  0.00  0.00    +0.000 A 
ATOM      6  C   UNL     1      -9.991  -6.976  17.997  0.00  0.00    +0.000 A 
ATOM      7 BR   UNL     1     -10.514  -5.173  18.238  0.00  0.00    +0.000 Br
ATOM      8  C   UNL     1     -10.146  -7.571  16.749  0.00  0.00    +0.000 A 
ATOM      9  C   UNL     1      -9.763  -8.903  16.552  0.00  0.00    +0.000 A 
ATOM     10  C   UNL     1      -9.221  -9.646  17.624  0.00  0.00    +0.000 A 
ATOM     11  H   UNL     1      -7.906 -11.957  19.629  0.00  0.00    +0.000 HD
ATOM     12  H   UNL     1      -8.326  -9.744  20.698  0.00  0.00    +0.000 HD
ATOM     13  H   UNL     1      -9.330  -7.212  20.051  0.00  0.00    +0.000 HD
ATOM     14  H   UNL     1     -10.564  -7.013  15.916  0.00  0.00    +0.000 HD
ATOM     15  H   UNL     1      -9.883  -9.362  15.574  0.00  0.00    +0.000 HD
ENDROOT
BRANCH   1  21
ATOM     16  N   UNL     1      -9.103 -15.555  16.714  0.00  0.00    +0.000 N 
ATOM     17  C   UNL     1      -8.830 -14.271  16.289  0.00  0.00    +0.000 A 
ATOM     18  N   UNL     1      -8.531 -14.103  14.998  0.00  0.00    +0.000 NA
ATOM     19  C   UNL     1      -8.290 -12.841  14.602  0.00  0.00    +0.000 A 
ATOM     20  C   UNL     1      -8.325 -11.761  15.448  0.00  0.00    +0.000 A 
ATOM     21  C   UNL     1      -8.619 -12.044  16.764  0.00  0.00    +0.000 A 
ATOM     22  N   UNL     1      -8.863 -13.298  17.200  0.00  0.00    +0.000 NA
ATOM     23  H   UNL     1      -8.684 -16.220  16.079  0.00  0.00    +0.000 HD
ATOM     24  H   UNL     1      -8.889 -15.646  17.696  0.00  0.00    +0.000 HD
ATOM     25  H   UNL     1      -8.074 -12.720  13.545  0.00  0.00    +0.000 HD
ATOM     26  H   UNL     1      -8.154 -10.759  15.083  0.00  0.00    +0.000 HD
ENDBRANCH   1  21
TORSDOF 1
ENDMDL
MODEL 9
REMARK VINA RESULT:    -8.640      2.111      3.182
REMARK INTER + INTRA:          -9.373
REMARK INTER:                  -9.161
REMARK INTRA:                  -0.212
REMARK UNBOUND:                -0.228
REMARK  Name = 
REMARK  1 active torsions:
REMARK  status: ('A' for Active; 'I' for Inactive)
REMARK    1  A    between atoms: C_6  and  C_7
REMARK                            x       y       z     vdW  Elec       q    Type
REMARK                         _______ _______ _______ _____ _____    ______ ____
ROOT
ATOM      1  C   UNL     1      -9.064  -7.860  17.337  0.00  0.00    +0.000 A 
ATOM      2  C   UNL     1      -9.375  -7.967  15.992  0.00  0.00    +0.000 A 
ATOM      3  N   UNL     1      -9.424  -9.296  15.663  0.00  0.00    +0.000 N 
ATOM      4  C   UNL     1      -9.159 -10.071  16.768  0.00  0.00    +0.000 A 
ATOM      5  C   UNL     1      -9.097 -11.466  16.894  0.00  0.00    +0.000 A 
ATOM      6  C   UNL     1      -8.803 -11.982  18.159  0.00  0.00    +0.000 A 
ATOM      7 BR   UNL     1      -8.710 -13.859  18.387  0.00  0.00    +0.000 Br
ATOM      8  C   UNL     1      -8.575 -11.150  19.250  0.00  0.00    +0.000 A 
ATOM      9  C   UNL     1      -8.638  -9.759  19.099  0.00  0.00    +0.000 A 
ATOM     10  C   UNL     1      -8.938  -9.201  17.837  0.00  0.00    +0.000 A 
ATOM     11  H   UNL     1      -9.572  -7.219  15.237  0.00  0.00    +0.000 HD
ATOM     12  H   UNL     1      -9.625  -9.662  14.743  0.00  0.00    +0.000 HD
ATOM     13  H   UNL     1      -9.270 -12.116  16.044  0.00  0.00    +0.000 HD
ATOM     14  H   UNL     1      -8.347 -11.565  20.228  0.00  0.00    +0.000 HD
ATOM     15  H   UNL     1      -8.456  -9.113  19.953  0.00  0.00    +0.000 HD
ENDROOT
BRANCH   1  21
ATOM     16  N   UNL     1      -6.334  -5.072  19.966  0.00  0.00    +0.000 N 
ATOM     17  C   UNL     1      -7.532  -5.260  19.306  0.00  0.00    +0.000 A 
ATOM     18  N   UNL     1      -8.413  -4.256  19.338  0.00  0.00    +0.000 NA
ATOM     19  C   UNL     1      -9.563  -4.452  18.670  0.00  0.00    +0.000 A 
ATOM     20  C   UNL     1      -9.860  -5.608  17.995  0.00  0.00    +0.000 A 
ATOM     21  C   UNL     1      -8.895  -6.592  18.042  0.00  0.00    +0.000 A 
ATOM     22  N   UNL     1      -7.730  -6.433  18.705  0.00  0.00    +0.000 NA
ATOM     23  H   UNL     1      -6.443  -4.361  20.674  0.00  0.00    +0.000 HD
ATOM     24  H   UNL     1      -5.954  -5.963  20.250  0.00  0.00    +0.000 HD
ATOM     25  H   UNL     1     -10.256  -3.616  18.686  0.00  0.00    +0.000 HD
ATOM     26  H   UNL     1     -10.785  -5.714  17.445  0.00  0.00    +0.000 HD
ENDBRANCH   1  21
TORSDOF 1
ENDMDL
