REMARK  Name = 
REMARK  4 active torsions:
REMARK  status: ('A' for Active; 'I' for Inactive)
REMARK    1  A    between atoms: O_1  and  C_2
REMARK    2  A    between atoms: C_7  and  O_8
REMARK    3  A    between atoms: C_9  and  O_10
REMARK    4  A    between atoms: C_16  and  O_17
REMARK                            x       y       z     vdW  Elec       q    Type
REMARK                         _______ _______ _______ _____ _____    ______ ____
ROOT
ATOM      1  C   UNL     1      -3.333  -0.562  -0.002  0.00  0.00    +0.000 A 
ATOM      2  C   UNL     1      -2.614   0.637  -0.003  0.00  0.00    +0.000 A 
ATOM      3  C   UNL     1      -1.214   0.544  -0.003  0.00  0.00    +0.000 A 
ATOM      4  N   UNL     1      -0.258   1.535  -0.002  0.00  0.00    +0.000 N 
ATOM      5  C   UNL     1       1.011   1.004  -0.001  0.00  0.00    +0.000 A 
ATOM      6  C   UNL     1       2.278   1.604   0.002  0.00  0.00    +0.000 A 
ATOM      7  C   UNL     1       3.403   0.775   0.005  0.00  0.00    +0.000 A 
ATOM      8  C   UNL     1       3.291  -0.605   0.003  0.00  0.00    +0.000 A 
ATOM      9  C   UNL     1       2.024  -1.198  -0.002  0.00  0.00    +0.000 A 
ATOM     10  C   UNL     1       0.865  -0.387  -0.003  0.00  0.00    +0.000 A 
ATOM     11  C   UNL     1      -0.538  -0.675  -0.003  0.00  0.00    +0.000 A 
ATOM     12  C   UNL     1      -1.289  -1.871  -0.003  0.00  0.00    +0.000 A 
ATOM     13  C   UNL     1      -2.684  -1.795  -0.002  0.00  0.00    +0.000 A 
ATOM     14  H   UNL     1      -3.110   1.600  -0.003  0.00  0.00    +0.000 HD
ATOM     15  H   UNL     1      -0.477   2.519  -0.000  0.00  0.00    +0.000 HD
ATOM     16  H   UNL     1       4.184  -1.222   0.004  0.00  0.00    +0.000 HD
ATOM     17  H   UNL     1       1.936  -2.280  -0.003  0.00  0.00    +0.000 HD
ATOM     18  H   UNL     1      -0.776  -2.826  -0.003  0.00  0.00    +0.000 HD
ENDROOT
BRANCH   1  19
ATOM     19  O   UNL     1      -4.702  -0.536  -0.001  0.00  0.00    +0.000 OA
ATOM     20  H   UNL     1      -5.005   0.385  -0.001  0.00  0.00    +0.000 HD
ENDBRANCH   1  19
BRANCH   6  21
ATOM     21  O   UNL     1       2.496   2.964   0.004  0.00  0.00    +0.000 OA
ATOM     22  H   UNL     1       1.636   3.410  -0.009  0.00  0.00    +0.000 HD
ENDBRANCH   6  21
BRANCH   7  23
ATOM     23  O   UNL     1       4.652   1.332   0.011  0.00  0.00    +0.000 OA
ATOM     24  H   UNL     1       4.491   2.296   0.016  0.00  0.00    +0.000 HD
ENDBRANCH   7  23
BRANCH  13  25
ATOM     25  O   UNL     1      -3.431  -2.942  -0.001  0.00  0.00    +0.000 OA
ATOM     26  H   UNL     1      -2.835  -3.707   0.000  0.00  0.00    +0.000 HD
ENDBRANCH  13  25
TORSDOF 4
