
 OpenBabel01112422373D

 41 44  0  0  0  0  0  0  0  0999 V2000
    2.4970   -0.6401    0.6770 O   0  0  0  0  0  0  0  0  0  0  0  0
    2.7604   -0.0139   -0.3540 C   0  0  0  0  0  0  0  0  0  0  0  0
    1.8359   -0.1860   -1.4940 C   0  0  0  0  0  0  0  0  0  0  0  0
    1.2844    0.9223   -2.1465 C   0  0  0  0  0  0  0  0  0  0  0  0
    1.0179    0.8178   -3.5150 C   0  0  0  0  0  0  0  0  0  0  0  0
    1.2799   -0.3801   -4.1960 C   0  0  0  0  0  0  0  0  0  0  0  0
    1.4613   -0.4082   -5.6959 C   0  0  0  0  0  0  0  0  0  0  0  0
    1.4606    0.8334   -6.2572 F   0  0  0  0  0  0  0  0  0  0  0  0
    2.6673   -0.9448   -6.0462 F   0  0  0  0  0  0  0  0  0  0  0  0
    0.5179   -1.1353   -6.3455 F   0  0  0  0  0  0  0  0  0  0  0  0
    1.6025   -1.5384   -3.4544 C   0  0  0  0  0  0  0  0  0  0  0  0
    1.8775   -1.4434   -2.0975 C   0  0  0  0  0  0  0  0  0  0  0  0
    3.9642    0.7229   -0.4639 N   0  0  0  0  0  0  0  0  0  0  0  0
    4.3916    1.4276   -1.6081 C   0  0  0  0  0  0  0  0  0  0  0  0
    4.0856    1.4392   -2.9750 C   0  0  0  0  0  0  0  0  0  0  0  0
    3.9698    2.7174   -3.5134 C   0  0  0  0  0  0  0  0  0  0  0  0
    3.4231    2.9123   -4.7524 O   0  0  0  0  0  0  0  0  0  0  0  0
    4.3050    3.8436   -2.7689 C   0  0  0  0  0  0  0  0  0  0  0  0
    3.8919    5.0742   -3.1918 O   0  0  0  0  0  0  0  0  0  0  0  0
    5.0597    3.7244   -1.6057 C   0  0  0  0  0  0  0  0  0  0  0  0
    5.1771    2.4319   -1.0737 C   0  0  0  0  0  0  0  0  0  0  0  0
    5.9382    1.6800   -0.1765 C   0  0  0  0  0  0  0  0  0  0  0  0
    7.3012    1.5128    0.1649 C   0  0  0  0  0  0  0  0  0  0  0  0
    7.6136    0.7410    1.2879 C   0  0  0  0  0  0  0  0  0  0  0  0
    6.5922    0.3469    2.1420 C   0  0  0  0  0  0  0  0  0  0  0  0
    6.8642   -0.1617    3.3831 O   0  0  0  0  0  0  0  0  0  0  0  0
    5.2476    0.4363    1.7627 C   0  0  0  0  0  0  0  0  0  0  0  0
    4.2660    0.1339    2.6559 O   0  0  0  0  0  0  0  0  0  0  0  0
    4.9829    0.8911    0.4707 C   0  0  0  0  0  0  0  0  0  0  0  0
    1.2627    1.8990   -1.6718 H   0  0  0  0  0  0  0  0  0  0  0  0
    0.7942    1.7290   -4.0750 H   0  0  0  0  0  0  0  0  0  0  0  0
    1.7796   -2.4912   -3.9600 H   0  0  0  0  0  0  0  0  0  0  0  0
    2.2635   -2.2958   -1.5494 H   0  0  0  0  0  0  0  0  0  0  0  0
    3.7643    0.5539   -3.5001 H   0  0  0  0  0  0  0  0  0  0  0  0
    3.5789    2.1076   -5.2801 H   0  0  0  0  0  0  0  0  0  0  0  0
    3.3040    4.8897   -3.9530 H   0  0  0  0  0  0  0  0  0  0  0  0
    5.4106    4.5948   -1.0662 H   0  0  0  0  0  0  0  0  0  0  0  0
    8.0786    1.8790   -0.4978 H   0  0  0  0  0  0  0  0  0  0  0  0
    8.6505    0.5078    1.5003 H   0  0  0  0  0  0  0  0  0  0  0  0
    7.8276   -0.1335    3.5106 H   0  0  0  0  0  0  0  0  0  0  0  0
    4.7240    0.0116    3.5099 H   0  0  0  0  0  0  0  0  0  0  0  0
  1  2  2  0  0  0  0
  2  3  1  0  0  0  0
  2 13  1  0  0  0  0
  3  4  1  0  0  0  0
  3 12  2  0  0  0  0
  4  5  2  0  0  0  0
  4 30  1  0  0  0  0
  5  6  1  0  0  0  0
  5 31  1  0  0  0  0
  6  7  1  0  0  0  0
  6 11  2  0  0  0  0
  7  8  1  0  0  0  0
  7  9  1  0  0  0  0
  7 10  1  0  0  0  0
 11 12  1  0  0  0  0
 11 32  1  0  0  0  0
 12 33  1  0  0  0  0
 13 14  1  0  0  0  0
 13 29  1  0  0  0  0
 14 15  1  0  0  0  0
 14 21  2  0  0  0  0
 15 16  2  0  0  0  0
 15 34  1  0  0  0  0
 16 17  1  0  0  0  0
 16 18  1  0  0  0  0
 17 35  1  0  0  0  0
 18 19  1  0  0  0  0
 18 20  2  0  0  0  0
 19 36  1  0  0  0  0
 20 21  1  0  0  0  0
 20 37  1  0  0  0  0
 21 22  1  0  0  0  0
 22 23  1  0  0  0  0
 22 29  2  0  0  0  0
 23 24  2  0  0  0  0
 23 38  1  0  0  0  0
 24 25  1  0  0  0  0
 24 39  1  0  0  0  0
 25 26  1  0  0  0  0
 25 27  2  0  0  0  0
 26 40  1  0  0  0  0
 27 28  1  0  0  0  0
 27 29  1  0  0  0  0
 28 41  1  0  0  0  0
M  END
$$$$
