
 OpenBabel01112422583D

 69 72  0  0  0  0  0  0  0  0999 V2000
    5.1851   -5.6399    3.2426 C   0  0  0  0  0  0  0  0  0  0  0  0
    5.4136   -4.1539    3.0146 C   0  0  0  0  0  0  0  0  0  0  0  0
    6.8826   -3.8794    2.7246 C   0  0  0  0  0  0  0  0  0  0  0  0
    7.0956   -2.4905    2.4442 O   0  0  0  0  0  0  0  0  0  0  0  0
    7.8292   -1.7841    3.3408 C   0  0  0  0  0  0  0  0  0  0  0  0
    8.1203   -2.1316    4.4732 O   0  0  0  0  0  0  0  0  0  0  0  0
    8.3280   -0.5322    2.7038 C   0  0  0  0  0  0  0  0  0  0  0  0
    8.0257   -0.2376    1.3677 C   0  0  0  0  0  0  0  0  0  0  0  0
    8.5658    0.8895    0.7657 C   0  0  0  0  0  0  0  0  0  0  0  0
    9.3889    1.7396    1.5005 C   0  0  0  0  0  0  0  0  0  0  0  0
    9.6720    1.4971    2.8488 C   0  0  0  0  0  0  0  0  0  0  0  0
   10.4448    2.3820    3.6407 N   0  0  0  0  0  0  0  0  0  0  0  0
   10.8365    3.6607    3.2810 C   0  0  0  0  0  0  0  0  0  0  0  0
   10.6461    4.1653    2.1745 O   0  0  0  0  0  0  0  0  0  0  0  0
   11.6545    4.4328    4.3279 C   0  0  0  0  0  0  0  0  0  0  0  0
   11.1162    4.2083    5.7877 C   0  0  0  0  0  0  0  0  0  0  0  0
   11.1179    2.8490    6.4031 N   0  0  0  0  0  0  0  0  0  0  0  0
   12.4507    2.3254    6.7393 C   0  0  0  0  0  0  0  0  0  0  0  0
   10.3809    2.9222    7.6864 C   0  0  0  0  0  0  0  0  0  0  0  0
   11.4753    5.9731    4.0218 C   0  0  0  0  0  0  0  0  0  0  0  0
   12.3929    6.5363    2.9226 C   0  0  0  0  0  0  0  0  0  0  0  0
   13.7374    6.0921    3.2735 N   0  0  0  0  0  0  0  0  0  0  0  0
   14.8259    6.8993    2.9862 C   0  0  0  0  0  0  0  0  0  0  0  0
   14.6924    7.8887    2.0609 N   0  0  0  0  0  0  0  0  0  0  0  0
   15.7287    8.7106    1.8155 C   0  0  0  0  0  0  0  0  0  0  0  0
   16.9378    8.7105    2.3917 N   0  0  0  0  0  0  0  0  0  0  0  0
   17.0372    7.7425    3.3138 C   0  0  0  0  0  0  0  0  0  0  0  0
   18.1569    7.5417    4.0686 N   0  0  0  0  0  0  0  0  0  0  0  0
   17.9397    6.5238    4.9559 C   0  0  0  0  0  0  0  0  0  0  0  0
   16.6593    6.0411    4.7567 C   0  0  0  0  0  0  0  0  0  0  0  0
   16.0736    4.9499    5.5753 C   0  0  0  0  0  0  0  0  0  0  0  0
   16.0677    6.8146    3.6799 C   0  0  0  0  0  0  0  0  0  0  0  0
   13.8911    4.6678    3.0546 C   0  0  0  0  0  0  0  0  0  0  0  0
   13.1249    3.9896    4.1873 C   0  0  0  0  0  0  0  0  0  0  0  0
    9.1565    0.3358    3.4418 C   0  0  0  0  0  0  0  0  0  0  0  0
    4.1312   -5.8426    3.4537 H   0  0  0  0  0  0  0  0  0  0  0  0
    5.7787   -5.9992    4.0897 H   0  0  0  0  0  0  0  0  0  0  0  0
    5.4721   -6.2186    2.3580 H   0  0  0  0  0  0  0  0  0  0  0  0
    5.0906   -3.5833    3.8926 H   0  0  0  0  0  0  0  0  0  0  0  0
    4.7945   -3.8057    2.1789 H   0  0  0  0  0  0  0  0  0  0  0  0
    7.1822   -4.4204    1.8200 H   0  0  0  0  0  0  0  0  0  0  0  0
    7.5202   -4.2382    3.5396 H   0  0  0  0  0  0  0  0  0  0  0  0
    7.3853   -0.8842    0.7738 H   0  0  0  0  0  0  0  0  0  0  0  0
    8.3521    1.1124   -0.2763 H   0  0  0  0  0  0  0  0  0  0  0  0
    9.7969    2.5939    0.9697 H   0  0  0  0  0  0  0  0  0  0  0  0
   10.5928    2.1240    4.6198 H   0  0  0  0  0  0  0  0  0  0  0  0
   10.0674    4.5352    5.7627 H   0  0  0  0  0  0  0  0  0  0  0  0
   11.6339    4.9008    6.4685 H   0  0  0  0  0  0  0  0  0  0  0  0
   13.0767    2.1571    5.8676 H   0  0  0  0  0  0  0  0  0  0  0  0
   12.3536    1.3302    7.1909 H   0  0  0  0  0  0  0  0  0  0  0  0
   12.9929    2.9686    7.4421 H   0  0  0  0  0  0  0  0  0  0  0  0
    9.3673    3.3099    7.5465 H   0  0  0  0  0  0  0  0  0  0  0  0
   10.8961    3.5627    8.4154 H   0  0  0  0  0  0  0  0  0  0  0  0
   10.2817    1.9229    8.1263 H   0  0  0  0  0  0  0  0  0  0  0  0
   11.6915    6.5459    4.9330 H   0  0  0  0  0  0  0  0  0  0  0  0
   10.4304    6.1933    3.7650 H   0  0  0  0  0  0  0  0  0  0  0  0
   12.2946    7.6286    2.9095 H   0  0  0  0  0  0  0  0  0  0  0  0
   12.1021    6.1806    1.9261 H   0  0  0  0  0  0  0  0  0  0  0  0
   15.5647    9.4751    1.0635 H   0  0  0  0  0  0  0  0  0  0  0  0
   18.9847    8.1097    4.0029 H   0  0  0  0  0  0  0  0  0  0  0  0
   18.7029    6.2336    5.6638 H   0  0  0  0  0  0  0  0  0  0  0  0
   16.7904    4.5820    6.3178 H   0  0  0  0  0  0  0  0  0  0  0  0
   15.8175    4.0851    4.9614 H   0  0  0  0  0  0  0  0  0  0  0  0
   15.1968    5.3064    6.1222 H   0  0  0  0  0  0  0  0  0  0  0  0
   14.9351    4.3398    3.0480 H   0  0  0  0  0  0  0  0  0  0  0  0
   13.4855    4.3659    2.0808 H   0  0  0  0  0  0  0  0  0  0  0  0
   13.6207    4.2361    5.1286 H   0  0  0  0  0  0  0  0  0  0  0  0
   13.2067    2.9129    4.0213 H   0  0  0  0  0  0  0  0  0  0  0  0
    9.3864    0.0985    4.4792 H   0  0  0  0  0  0  0  0  0  0  0  0
  1  2  1  0  0  0  0
  1 36  1  0  0  0  0
  1 37  1  0  0  0  0
  1 38  1  0  0  0  0
  2  3  1  0  0  0  0
  2 39  1  0  0  0  0
  2 40  1  0  0  0  0
  3  4  1  0  0  0  0
  3 41  1  0  0  0  0
  3 42  1  0  0  0  0
  4  5  1  0  0  0  0
  5  6  2  0  0  0  0
  5  7  1  0  0  0  0
  7  8  1  0  0  0  0
  7 35  2  0  0  0  0
  8  9  2  0  0  0  0
  8 43  1  0  0  0  0
  9 10  1  0  0  0  0
  9 44  1  0  0  0  0
 10 11  2  0  0  0  0
 10 45  1  0  0  0  0
 11 12  1  0  0  0  0
 11 35  1  0  0  0  0
 12 13  1  0  0  0  0
 12 46  1  0  0  0  0
 13 14  2  0  0  0  0
 13 15  1  0  0  0  0
 15 16  1  0  0  0  0
 15 20  1  0  0  0  0
 15 34  1  0  0  0  0
 16 17  1  0  0  0  0
 16 47  1  0  0  0  0
 16 48  1  0  0  0  0
 17 18  1  0  0  0  0
 17 19  1  0  0  0  0
 18 49  1  0  0  0  0
 18 50  1  0  0  0  0
 18 51  1  0  0  0  0
 19 52  1  0  0  0  0
 19 53  1  0  0  0  0
 19 54  1  0  0  0  0
 20 21  1  0  0  0  0
 20 55  1  0  0  0  0
 20 56  1  0  0  0  0
 21 22  1  0  0  0  0
 21 57  1  0  0  0  0
 21 58  1  0  0  0  0
 22 23  1  0  0  0  0
 22 33  1  0  0  0  0
 23 24  1  0  0  0  0
 23 32  2  0  0  0  0
 24 25  2  0  0  0  0
 25 26  1  0  0  0  0
 25 59  1  0  0  0  0
 26 27  2  0  0  0  0
 27 28  1  0  0  0  0
 27 32  1  0  0  0  0
 28 29  1  0  0  0  0
 28 60  1  0  0  0  0
 29 30  2  0  0  0  0
 29 61  1  0  0  0  0
 30 31  1  0  0  0  0
 30 32  1  0  0  0  0
 31 62  1  0  0  0  0
 31 63  1  0  0  0  0
 31 64  1  0  0  0  0
 33 34  1  0  0  0  0
 33 65  1  0  0  0  0
 33 66  1  0  0  0  0
 34 67  1  0  0  0  0
 34 68  1  0  0  0  0
 35 69  1  0  0  0  0
M  END
$$$$
