REMARK  Name = 
REMARK  3 active torsions:
REMARK  status: ('A' for Active; 'I' for Inactive)
REMARK    1  A    between atoms: C_1  and  O_2
REMARK    2  A    between atoms: O_2  and  C_3
REMARK    3  A    between atoms: N_22  and  C_23
REMARK                            x       y       z     vdW  Elec       q    Type
REMARK                         _______ _______ _______ _____ _____    ______ ____
ROOT
ATOM      1  C   UNL     1      -2.287   1.206  -1.546  0.00  0.00    +0.000 A 
ATOM      2  C   UNL     1      -1.154   1.625  -0.876  0.00  0.00    +0.000 A 
ATOM      3  C   UNL     1      -0.399   0.687  -0.190  0.00  0.00    +0.000 A 
ATOM      4  C   UNL     1       0.598   1.200   0.648  0.00  0.00    +0.000 A 
ATOM      5  N   UNL     1       1.231   2.420   0.715  0.00  0.00    +0.000 N 
ATOM      6  C   UNL     1       2.376   2.318   1.492  0.00  0.00    +0.000 A 
ATOM      7  C   UNL     1       3.438   3.225   1.599  0.00  0.00    +0.000 A 
ATOM      8  C   UNL     1       4.513   2.863   2.410  0.00  0.00    +0.000 A 
ATOM      9  C   UNL     1       4.508   1.663   3.111  0.00  0.00    +0.000 A 
ATOM     10  C   UNL     1       3.434   0.771   2.998  0.00  0.00    +0.000 A 
ATOM     11  C   UNL     1       2.352   1.084   2.145  0.00  0.00    +0.000 A 
ATOM     12  C   UNL     1       1.215   0.474   1.627  0.00  0.00    +0.000 A 
ATOM     13  C   UNL     1       1.030  -0.935   1.636  0.00  0.00    +0.000 A 
ATOM     14  C   UNL     1       0.402  -1.445   0.448  0.00  0.00    +0.000 A 
ATOM     15  C   UNL     1      -0.573  -0.737  -0.299  0.00  0.00    +0.000 A 
ATOM     16  C   UNL     1      -1.689  -1.161  -1.104  0.00  0.00    +0.000 A 
ATOM     17  C   UNL     1      -2.589  -0.156  -1.626  0.00  0.00    +0.000 A 
ATOM     18  C   UNL     1      -3.760  -0.834  -2.056  0.00  0.00    +0.000 A 
ATOM     19  C   UNL     1      -3.354  -2.094  -2.370  0.00  0.00    +0.000 A 
ATOM     20  N   UNL     1      -2.303  -2.354  -1.514  0.00  0.00    +0.000 N 
ATOM     21  C   UNL     1       1.357  -2.453   0.044  0.00  0.00    +0.000 C 
ATOM     22  O   UNL     1       1.794  -2.779  -1.056  0.00  0.00    +0.000 OA
ATOM     23  N   UNL     1       2.003  -2.806   1.223  0.00  0.00    +0.000 N 
ATOM     24  C   UNL     1       1.814  -1.956   2.250  0.00  0.00    +0.000 C 
ATOM     25  O   UNL     1       2.328  -2.087   3.357  0.00  0.00    +0.000 OA
ATOM     26  H   UNL     1      -0.943   2.687  -0.837  0.00  0.00    +0.000 HD
ATOM     27  H   UNL     1       1.044   3.192   0.096  0.00  0.00    +0.000 HD
ATOM     28  H   UNL     1       3.448   4.157   1.044  0.00  0.00    +0.000 HD
ATOM     29  H   UNL     1       5.368   3.529   2.491  0.00  0.00    +0.000 HD
ATOM     30  H   UNL     1       5.354   1.398   3.741  0.00  0.00    +0.000 HD
ATOM     31  H   UNL     1       3.479  -0.157   3.555  0.00  0.00    +0.000 HD
ATOM     32  H   UNL     1      -4.721  -0.412  -2.304  0.00  0.00    +0.000 HD
ATOM     33  H   UNL     1      -3.860  -2.870  -2.930  0.00  0.00    +0.000 HD
ATOM     34  H   UNL     1       2.873  -3.307   1.206  0.00  0.00    +0.000 HD
ENDROOT
BRANCH  20  35
ATOM     35  C   UNL     1      -2.238  -3.700  -0.993  0.00  0.00    +0.000 C 
ATOM     36  H   UNL     1      -1.272  -3.924  -0.563  0.00  0.00    +0.000 HD
ATOM     37  H   UNL     1      -2.470  -4.395  -1.814  0.00  0.00    +0.000 HD
ATOM     38  H   UNL     1      -3.049  -3.785  -0.257  0.00  0.00    +0.000 HD
ENDBRANCH  20  35
BRANCH   1  39
ATOM     39  O   UNL     1      -3.044   2.256  -2.046  0.00  0.00    +0.000 OA
BRANCH  39  40
ATOM     40  C   UNL     1      -3.888   1.937  -3.144  0.00  0.00    +0.000 C 
ATOM     41  H   UNL     1      -4.069   2.853  -3.708  0.00  0.00    +0.000 HD
ATOM     42  H   UNL     1      -4.858   1.594  -2.773  0.00  0.00    +0.000 HD
ATOM     43  H   UNL     1      -3.437   1.211  -3.830  0.00  0.00    +0.000 HD
ENDBRANCH  39  40
ENDBRANCH   1  39
TORSDOF 3
