REMARK  Name = 
REMARK  7 active torsions:
REMARK  status: ('A' for Active; 'I' for Inactive)
REMARK    1  A    between atoms: N_1  and  C_2
REMARK    2  A    between atoms: C_2  and  C_3
REMARK    3  A    between atoms: C_2  and  C_22
REMARK    4  A    between atoms: C_3  and  O_4
REMARK    5  A    between atoms: O_4  and  C_5
REMARK    6  A    between atoms: C_10  and  C_11
REMARK    7  A    between atoms: C_22  and  C_23
REMARK                            x       y       z     vdW  Elec       q    Type
REMARK                         _______ _______ _______ _____ _____    ______ ____
ROOT
ATOM      1  C   UNL     1       0.928  -0.523  -0.079  0.00  0.00    +0.000 C 
ATOM      2  H   UNL     1       0.542  -1.451  -0.519  0.00  0.00    +0.000 HD
ATOM      3  H   UNL     1       0.590  -0.444   0.963  0.00  0.00    +0.000 HD
ENDROOT
BRANCH   1   4
ATOM      4  C   UNL     1       2.468  -0.550  -0.099  0.00  0.00    +0.000 C 
ATOM      5  H   UNL     1       2.803  -1.417   0.483  0.00  0.00    +0.000 HD
BRANCH   4   6
ATOM      6  N   UNL     1       2.923  -0.759  -1.489  0.00  0.00    +0.000 NA
ATOM      7  H   UNL     1       3.944  -0.720  -1.512  0.00  0.00    +0.000 HD
ATOM      8  H   UNL     1       2.609   0.032  -2.053  0.00  0.00    +0.000 HD
ENDBRANCH   4   6
BRANCH   4   9
ATOM      9  C   UNL     1       3.029   0.737   0.555  0.00  0.00    +0.000 C 
ATOM     10  H   UNL     1       2.661   0.801   1.588  0.00  0.00    +0.000 HD
ATOM     11  H   UNL     1       2.649   1.629   0.043  0.00  0.00    +0.000 HD
BRANCH   9  12
ATOM     12  C   UNL     1       4.526   0.790   0.576  0.00  0.00    +0.000 A 
ATOM     13  C   UNL     1       5.361   0.292   1.557  0.00  0.00    +0.000 A 
ATOM     14  N   UNL     1       6.656   0.517   1.170  0.00  0.00    +0.000 N 
ATOM     15  C   UNL     1       6.685   1.150  -0.051  0.00  0.00    +0.000 A 
ATOM     16  C   UNL     1       7.771   1.551  -0.839  0.00  0.00    +0.000 A 
ATOM     17  C   UNL     1       7.491   2.184  -2.054  0.00  0.00    +0.000 A 
ATOM     18  C   UNL     1       6.180   2.412  -2.462  0.00  0.00    +0.000 A 
ATOM     19  C   UNL     1       5.106   2.010  -1.659  0.00  0.00    +0.000 A 
ATOM     20  C   UNL     1       5.362   1.358  -0.437  0.00  0.00    +0.000 A 
ATOM     21  H   UNL     1       5.146  -0.210   2.492  0.00  0.00    +0.000 HD
ATOM     22  H   UNL     1       7.477   0.244   1.692  0.00  0.00    +0.000 HD
ATOM     23  H   UNL     1       8.795   1.375  -0.527  0.00  0.00    +0.000 HD
ATOM     24  H   UNL     1       8.313   2.501  -2.693  0.00  0.00    +0.000 HD
ATOM     25  H   UNL     1       5.984   2.905  -3.411  0.00  0.00    +0.000 HD
ATOM     26  H   UNL     1       4.089   2.192  -1.990  0.00  0.00    +0.000 HD
ENDBRANCH   9  12
ENDBRANCH   4   9
ENDBRANCH   1   4
BRANCH   1  27
ATOM     27  O   UNL     1       0.459   0.602  -0.836  0.00  0.00    +0.000 OA
BRANCH  27  28
ATOM     28  C   UNL     1      -0.887   0.811  -0.857  0.00  0.00    +0.000 A 
ATOM     29  C   UNL     1      -1.329   1.933  -1.537  0.00  0.00    +0.000 A 
ATOM     30  N   UNL     1      -2.620   2.312  -1.607  0.00  0.00    +0.000 NA
ATOM     31  C   UNL     1      -3.525   1.533  -0.962  0.00  0.00    +0.000 A 
ATOM     32 CL   UNL     1      -5.092   2.252  -1.036  0.00  0.00    +0.000 Cl
ATOM     33  C   UNL     1      -3.223   0.349  -0.270  0.00  0.00    +0.000 A 
ATOM     34  C   UNL     1      -1.853   0.009  -0.252  0.00  0.00    +0.000 A 
ATOM     35  H   UNL     1      -0.628   2.585  -2.050  0.00  0.00    +0.000 HD
ATOM     36  H   UNL     1      -1.551  -0.905   0.249  0.00  0.00    +0.000 HD
BRANCH  33  37
ATOM     37  C   UNL     1      -4.196  -0.529   0.438  0.00  0.00    +0.000 A 
ATOM     38  C   UNL     1      -3.845  -1.183   1.637  0.00  0.00    +0.000 A 
ATOM     39  C   UNL     1      -4.735  -2.030   2.308  0.00  0.00    +0.000 A 
ATOM     40  C   UNL     1      -6.034  -2.213   1.821  0.00  0.00    +0.000 A 
ATOM     41  C   UNL     1      -6.986  -3.007   2.467  0.00  0.00    +0.000 A 
ATOM     42  N   UNL     1      -8.258  -3.177   2.038  0.00  0.00    +0.000 NA
ATOM     43  C   UNL     1      -8.603  -2.526   0.908  0.00  0.00    +0.000 A 
ATOM     44  C   UNL     1      -7.734  -1.732   0.176  0.00  0.00    +0.000 A 
ATOM     45  C   UNL     1      -6.422  -1.571   0.634  0.00  0.00    +0.000 A 
ATOM     46  C   UNL     1      -5.489  -0.776  -0.059  0.00  0.00    +0.000 A 
ATOM     47  H   UNL     1      -2.861  -1.042   2.081  0.00  0.00    +0.000 HD
ATOM     48  H   UNL     1      -4.410  -2.527   3.219  0.00  0.00    +0.000 HD
ATOM     49  H   UNL     1      -6.747  -3.542   3.382  0.00  0.00    +0.000 HD
ATOM     50  H   UNL     1      -9.635  -2.657   0.592  0.00  0.00    +0.000 HD
ATOM     51  H   UNL     1      -8.085  -1.233  -0.721  0.00  0.00    +0.000 HD
ATOM     52  H   UNL     1      -5.798  -0.346  -1.009  0.00  0.00    +0.000 HD
ENDBRANCH  33  37
ENDBRANCH  27  28
ENDBRANCH   1  27
TORSDOF 7
