MODEL 1
REMARK VINA RESULT:    -6.546      0.000      0.000
REMARK INTER + INTRA:          -9.496
REMARK INTER:                  -8.459
REMARK INTRA:                  -1.037
REMARK UNBOUND:                -1.037
REMARK  Name = 
REMARK  7 active torsions:
REMARK  status: ('A' for Active; 'I' for Inactive)
REMARK    1  A    between atoms: C_1  and  O_2
REMARK    2  A    between atoms: O_2  and  C_3
REMARK    3  A    between atoms: C_4  and  N_5
REMARK    4  A    between atoms: N_5  and  C_6
REMARK    5  A    between atoms: C_7  and  C_9
REMARK    6  A    between atoms: C_9  and  N_10
REMARK    7  A    between atoms: C_14  and  C_15
REMARK                            x       y       z     vdW  Elec       q    Type
REMARK                         _______ _______ _______ _____ _____    ______ ____
ROOT
ATOM      1  C   UNL     1     -11.220  -1.934  11.251  0.00  0.00    +0.000 C 
ATOM      2  C   UNL     1      -9.731  -1.500  11.614  0.00  0.00    +0.000 C 
ATOM      3  C   UNL     1      -9.297  -1.767  13.157  0.00  0.00    +0.000 C 
ATOM      4  C   UNL     1      -9.624  -3.341  13.587  0.00  0.00    +0.000 C 
ATOM      5  O   UNL     1     -10.524  -3.725  12.568  0.00  0.00    +0.000 OA
ATOM      6  C   UNL     1     -11.710  -2.830  12.392  0.00  0.00    +0.000 C 
ATOM      7  N   UNL     1     -12.121  -2.006  13.589  0.00  0.00    +0.000 N 
ATOM      8  C   UNL     1     -12.700  -0.709  13.945  0.00  0.00    +0.000 A 
ATOM      9  C   UNL     1     -13.372   0.319  13.293  0.00  0.00    +0.000 A 
ATOM     10  C   UNL     1     -14.078   1.293  14.034  0.00  0.00    +0.000 A 
ATOM     11  C   UNL     1     -14.138   1.303  15.411  0.00  0.00    +0.000 A 
ATOM     12  C   UNL     1     -13.316   0.438  16.110  0.00  0.00    +0.000 A 
ATOM     13  C   UNL     1     -12.518  -0.471  15.406  0.00  0.00    +0.000 A 
ATOM     14  C   UNL     1     -11.537  -1.351  15.854  0.00  0.00    +0.000 A 
ATOM     15  C   UNL     1     -11.393  -1.600  17.220  0.00  0.00    +0.000 A 
ATOM     16  C   UNL     1     -11.877  -2.840  17.651  0.00  0.00    +0.000 A 
ATOM     17  C   UNL     1     -11.918  -3.791  16.555  0.00  0.00    +0.000 A 
ATOM     18  C   UNL     1     -11.113  -4.930  16.744  0.00  0.00    +0.000 A 
ATOM     19  C   UNL     1     -10.957  -5.786  17.847  0.00  0.00    +0.000 A 
ATOM     20  C   UNL     1      -9.704  -6.372  17.926  0.00  0.00    +0.000 A 
ATOM     21  C   UNL     1      -8.914  -6.466  16.787  0.00  0.00    +0.000 A 
ATOM     22  C   UNL     1      -9.414  -6.189  15.503  0.00  0.00    +0.000 A 
ATOM     23  C   UNL     1     -10.197  -5.037  15.589  0.00  0.00    +0.000 A 
ATOM     24  N   UNL     1     -10.285  -3.915  14.766  0.00  0.00    +0.000 N 
ATOM     25  C   UNL     1     -11.472  -3.493  15.250  0.00  0.00    +0.000 A 
ATOM     26  C   UNL     1     -11.701  -2.248  14.844  0.00  0.00    +0.000 A 
ATOM     27  C   UNL     1     -11.796  -2.841  19.077  0.00  0.00    +0.000 C 
ATOM     28  O   UNL     1     -12.307  -3.536  19.953  0.00  0.00    +0.000 OA
ATOM     29  N   UNL     1     -11.028  -1.698  19.368  0.00  0.00    +0.000 N 
ATOM     30  C   UNL     1     -10.525  -0.985  18.214  0.00  0.00    +0.000 C 
ATOM     31  H   UNL     1     -11.101  -2.542  10.343  0.00  0.00    +0.000 HD
ATOM     32  H   UNL     1      -9.131  -2.308  11.166  0.00  0.00    +0.000 HD
ATOM     33  H   UNL     1      -9.752  -1.023  13.813  0.00  0.00    +0.000 HD
ATOM     34  H   UNL     1      -8.218  -1.598  13.266  0.00  0.00    +0.000 HD
ATOM     35  H   UNL     1      -8.686  -3.889  13.501  0.00  0.00    +0.000 HD
ATOM     36  H   UNL     1     -13.393   0.422  12.218  0.00  0.00    +0.000 HD
ATOM     37  H   UNL     1     -14.632   2.066  13.499  0.00  0.00    +0.000 HD
ATOM     38  H   UNL     1     -14.768   1.983  15.965  0.00  0.00    +0.000 HD
ATOM     39  H   UNL     1     -13.303   0.445  17.205  0.00  0.00    +0.000 HD
ATOM     40  H   UNL     1     -11.625  -5.739  18.702  0.00  0.00    +0.000 HD
ATOM     41  H   UNL     1      -9.324  -6.642  18.902  0.00  0.00    +0.000 HD
ATOM     42  H   UNL     1      -7.856  -6.691  16.883  0.00  0.00    +0.000 HD
ATOM     43  H   UNL     1     -10.035  -7.059  15.177  0.00  0.00    +0.000 HD
ATOM     44  H   UNL     1     -10.983  -1.340  20.310  0.00  0.00    +0.000 HD
ATOM     45  H   UNL     1      -9.484  -1.314  18.052  0.00  0.00    +0.000 HD
ATOM     46  H   UNL     1     -10.581   0.097  18.303  0.00  0.00    +0.000 HD
ENDROOT
BRANCH   6  47
ATOM     47  C   UNL     1     -12.602  -3.999  11.905  0.00  0.00    +0.000 C 
ATOM     48  H   UNL     1     -13.673  -3.743  11.984  0.00  0.00    +0.000 HD
ATOM     49  H   UNL     1     -12.512  -4.838  12.621  0.00  0.00    +0.000 HD
ATOM     50  H   UNL     1     -12.423  -4.377  10.907  0.00  0.00    +0.000 HD
ENDBRANCH   6  47
BRANCH   2  51
ATOM     51  N   UNL     1      -9.227  -0.385  10.758  0.00  0.00    +0.000 N 
ATOM     52  C   UNL     1      -9.204   0.997  10.987  0.00  0.00    +0.000 C 
ATOM     53  O   UNL     1      -8.454   1.734  10.318  0.00  0.00    +0.000 OA
BRANCH  51  54
ATOM     54  C   UNL     1      -8.665  -0.752   9.458  0.00  0.00    +0.000 C 
ATOM     55  H   UNL     1      -8.367   0.134   8.883  0.00  0.00    +0.000 HD
ATOM     56  H   UNL     1      -9.397  -1.293   8.855  0.00  0.00    +0.000 HD
ATOM     57  H   UNL     1      -7.785  -1.384   9.611  0.00  0.00    +0.000 HD
ENDBRANCH  51  54
BRANCH  52  58
ATOM     58  C   UNL     1     -10.112   1.618  12.019  0.00  0.00    +0.000 C 
ATOM     59  H   UNL     1      -9.597   2.367  12.624  0.00  0.00    +0.000 HD
ATOM     60  H   UNL     1     -10.413   0.807  12.692  0.00  0.00    +0.000 HD
BRANCH  58  61
ATOM     61  N   UNL     1     -11.306   2.155  11.349  0.00  0.00    +0.000 NA
ATOM     62  H   UNL     1     -11.509   1.526  10.563  0.00  0.00    +0.000 HD
ATOM     63  H   UNL     1     -12.094   2.043  11.985  0.00  0.00    +0.000 HD
ENDBRANCH  58  61
ENDBRANCH  52  58
ENDBRANCH   2  51
BRANCH   1  64
ATOM     64  O   UNL     1     -12.137  -0.906  10.857  0.00  0.00    +0.000 OA
BRANCH  64  65
ATOM     65  C   UNL     1     -12.576  -1.035   9.491  0.00  0.00    +0.000 C 
ATOM     66  H   UNL     1     -12.580  -2.079   9.172  0.00  0.00    +0.000 HD
ATOM     67  H   UNL     1     -11.916  -0.457   8.842  0.00  0.00    +0.000 HD
ATOM     68  H   UNL     1     -13.573  -0.603   9.350  0.00  0.00    +0.000 HD
ENDBRANCH  64  65
ENDBRANCH   1  64
TORSDOF 7
ENDMDL
MODEL 2
REMARK VINA RESULT:    -6.507      4.588      6.630
REMARK INTER + INTRA:          -9.446
REMARK INTER:                  -8.416
REMARK INTRA:                  -1.030
REMARK UNBOUND:                -1.037
REMARK  Name = 
REMARK  7 active torsions:
REMARK  status: ('A' for Active; 'I' for Inactive)
REMARK    1  A    between atoms: C_1  and  O_2
REMARK    2  A    between atoms: O_2  and  C_3
REMARK    3  A    between atoms: C_4  and  N_5
REMARK    4  A    between atoms: N_5  and  C_6
REMARK    5  A    between atoms: C_7  and  C_9
REMARK    6  A    between atoms: C_9  and  N_10
REMARK    7  A    between atoms: C_14  and  C_15
REMARK                            x       y       z     vdW  Elec       q    Type
REMARK                         _______ _______ _______ _____ _____    ______ ____
ROOT
ATOM      1  C   UNL     1     -11.265  -0.308  17.586  0.00  0.00    +0.000 C 
ATOM      2  C   UNL     1      -9.851   0.413  17.442  0.00  0.00    +0.000 C 
ATOM      3  C   UNL     1      -8.914   0.351  18.769  0.00  0.00    +0.000 C 
ATOM      4  C   UNL     1      -8.778  -1.216  19.310  0.00  0.00    +0.000 C 
ATOM      5  O   UNL     1      -9.858  -1.835  18.643  0.00  0.00    +0.000 OA
ATOM      6  C   UNL     1     -11.190  -1.182  18.841  0.00  0.00    +0.000 C 
ATOM      7  N   UNL     1     -11.359  -0.351  20.090  0.00  0.00    +0.000 N 
ATOM      8  C   UNL     1     -12.038   0.846  20.590  0.00  0.00    +0.000 A 
ATOM      9  C   UNL     1     -13.066   1.683  20.169  0.00  0.00    +0.000 A 
ATOM     10  C   UNL     1     -13.680   2.571  21.080  0.00  0.00    +0.000 A 
ATOM     11  C   UNL     1     -13.308   2.680  22.402  0.00  0.00    +0.000 A 
ATOM     12  C   UNL     1     -12.158   2.034  22.815  0.00  0.00    +0.000 A 
ATOM     13  C   UNL     1     -11.458   1.228  21.910  0.00  0.00    +0.000 A 
ATOM     14  C   UNL     1     -10.236   0.577  22.034  0.00  0.00    +0.000 A 
ATOM     15  C   UNL     1      -9.627   0.467  23.286  0.00  0.00    +0.000 A 
ATOM     16  C   UNL     1      -9.702  -0.801  23.873  0.00  0.00    +0.000 A 
ATOM     17  C   UNL     1      -9.897  -1.829  22.866  0.00  0.00    +0.000 A 
ATOM     18  C   UNL     1      -8.868  -2.787  22.808  0.00  0.00    +0.000 A 
ATOM     19  C   UNL     1      -8.212  -3.511  23.818  0.00  0.00    +0.000 A 
ATOM     20  C   UNL     1      -6.908  -3.856  23.501  0.00  0.00    +0.000 A 
ATOM     21  C   UNL     1      -6.511  -3.899  22.170  0.00  0.00    +0.000 A 
ATOM     22  C   UNL     1      -7.431  -3.818  21.110  0.00  0.00    +0.000 A 
ATOM     23  C   UNL     1      -8.355  -2.822  21.422  0.00  0.00    +0.000 A 
ATOM     24  N   UNL     1      -8.913  -1.803  20.650  0.00  0.00    +0.000 N 
ATOM     25  C   UNL     1      -9.947  -1.562  21.482  0.00  0.00    +0.000 A 
ATOM     26  C   UNL     1     -10.529  -0.413  21.148  0.00  0.00    +0.000 A 
ATOM     27  C   UNL     1      -9.181  -0.674  25.197  0.00  0.00    +0.000 C 
ATOM     28  O   UNL     1      -9.247  -1.376  26.204  0.00  0.00    +0.000 OA
ATOM     29  N   UNL     1      -8.598   0.607  25.204  0.00  0.00    +0.000 N 
ATOM     30  C   UNL     1      -8.629   1.304  23.936  0.00  0.00    +0.000 C 
ATOM     31  H   UNL     1     -11.319  -0.955  16.699  0.00  0.00    +0.000 HD
ATOM     32  H   UNL     1      -9.275  -0.309  16.841  0.00  0.00    +0.000 HD
ATOM     33  H   UNL     1      -9.276   1.052  19.522  0.00  0.00    +0.000 HD
ATOM     34  H   UNL     1      -7.909   0.718  18.521  0.00  0.00    +0.000 HD
ATOM     35  H   UNL     1      -7.825  -1.593  18.937  0.00  0.00    +0.000 HD
ATOM     36  H   UNL     1     -13.441   1.693  19.156  0.00  0.00    +0.000 HD
ATOM     37  H   UNL     1     -14.513   3.188  20.737  0.00  0.00    +0.000 HD
ATOM     38  H   UNL     1     -13.853   3.279  23.117  0.00  0.00    +0.000 HD
ATOM     39  H   UNL     1     -11.805   2.131  23.848  0.00  0.00    +0.000 HD
ATOM     40  H   UNL     1      -8.575  -3.515  24.841  0.00  0.00    +0.000 HD
ATOM     41  H   UNL     1      -6.198  -3.975  24.308  0.00  0.00    +0.000 HD
ATOM     42  H   UNL     1      -5.454  -3.923  21.925  0.00  0.00    +0.000 HD
ATOM     43  H   UNL     1      -7.941  -4.808  21.017  0.00  0.00    +0.000 HD
ATOM     44  H   UNL     1      -8.331   1.042  26.075  0.00  0.00    +0.000 HD
ATOM     45  H   UNL     1      -7.648   1.154  23.454  0.00  0.00    +0.000 HD
ATOM     46  H   UNL     1      -8.863   2.363  24.018  0.00  0.00    +0.000 HD
ENDROOT
BRANCH   6  47
ATOM     47  C   UNL     1     -11.944  -2.527  18.689  0.00  0.00    +0.000 C 
ATOM     48  H   UNL     1     -11.837  -2.930  17.666  0.00  0.00    +0.000 HD
ATOM     49  H   UNL     1     -13.032  -2.334  18.748  0.00  0.00    +0.000 HD
ATOM     50  H   UNL     1     -11.695  -3.317  19.385  0.00  0.00    +0.000 HD
ENDBRANCH   6  47
BRANCH   2  51
ATOM     51  N   UNL     1      -9.866   1.527  16.449  0.00  0.00    +0.000 N 
ATOM     52  C   UNL     1     -10.037   2.906  16.634  0.00  0.00    +0.000 C 
ATOM     53  O   UNL     1      -9.692   3.708  15.744  0.00  0.00    +0.000 OA
BRANCH  51  54
ATOM     54  C   UNL     1      -9.684   1.163  15.044  0.00  0.00    +0.000 C 
ATOM     55  H   UNL     1     -10.023   1.963  14.374  0.00  0.00    +0.000 HD
ATOM     56  H   UNL     1     -10.262   0.270  14.794  0.00  0.00    +0.000 HD
ATOM     57  H   UNL     1      -8.623   0.972  14.855  0.00  0.00    +0.000 HD
ENDBRANCH  51  54
BRANCH  52  58
ATOM     58  C   UNL     1     -10.674   3.438  17.893  0.00  0.00    +0.000 C 
ATOM     59  H   UNL     1     -10.145   4.309  18.286  0.00  0.00    +0.000 HD
ATOM     60  H   UNL     1     -10.589   2.640  18.641  0.00  0.00    +0.000 HD
BRANCH  58  61
ATOM     61  N   UNL     1     -12.097   3.707  17.636  0.00  0.00    +0.000 NA
ATOM     62  H   UNL     1     -12.490   2.848  17.236  0.00  0.00    +0.000 HD
ATOM     63  H   UNL     1     -12.559   3.812  18.538  0.00  0.00    +0.000 HD
ENDBRANCH  58  61
ENDBRANCH  52  58
ENDBRANCH   2  51
BRANCH   1  64
ATOM     64  O   UNL     1     -12.440   0.506  17.490  0.00  0.00    +0.000 OA
BRANCH  64  65
ATOM     65  C   UNL     1     -13.200   0.259  16.290  0.00  0.00    +0.000 C 
ATOM     66  H   UNL     1     -13.927  -0.542  16.438  0.00  0.00    +0.000 HD
ATOM     67  H   UNL     1     -12.519  -0.011  15.480  0.00  0.00    +0.000 HD
ATOM     68  H   UNL     1     -13.712   1.165  15.949  0.00  0.00    +0.000 HD
ENDBRANCH  64  65
ENDBRANCH   1  64
TORSDOF 7
ENDMDL
MODEL 3
REMARK VINA RESULT:    -6.234      4.715      7.986
REMARK INTER + INTRA:          -9.092
REMARK INTER:                  -8.698
REMARK INTRA:                  -0.394
REMARK UNBOUND:                -1.037
REMARK  Name = 
REMARK  7 active torsions:
REMARK  status: ('A' for Active; 'I' for Inactive)
REMARK    1  A    between atoms: C_1  and  O_2
REMARK    2  A    between atoms: O_2  and  C_3
REMARK    3  A    between atoms: C_4  and  N_5
REMARK    4  A    between atoms: N_5  and  C_6
REMARK    5  A    between atoms: C_7  and  C_9
REMARK    6  A    between atoms: C_9  and  N_10
REMARK    7  A    between atoms: C_14  and  C_15
REMARK                            x       y       z     vdW  Elec       q    Type
REMARK                         _______ _______ _______ _____ _____    ______ ____
ROOT
ATOM      1  C   UNL     1     -11.485   2.388  17.910  0.00  0.00    +0.000 C 
ATOM      2  C   UNL     1     -12.810   2.684  18.743  0.00  0.00    +0.000 C 
ATOM      3  C   UNL     1     -12.838   2.042  20.236  0.00  0.00    +0.000 C 
ATOM      4  C   UNL     1     -11.458   2.453  21.069  0.00  0.00    +0.000 C 
ATOM      5  O   UNL     1     -10.611   2.866  20.016  0.00  0.00    +0.000 OA
ATOM      6  C   UNL     1     -10.442   1.875  18.907  0.00  0.00    +0.000 C 
ATOM      7  N   UNL     1     -10.686   0.425  19.250  0.00  0.00    +0.000 N 
ATOM      8  C   UNL     1     -11.198  -0.820  18.673  0.00  0.00    +0.000 A 
ATOM      9  C   UNL     1     -11.506  -1.303  17.407  0.00  0.00    +0.000 A 
ATOM     10  C   UNL     1     -11.678  -2.690  17.194  0.00  0.00    +0.000 A 
ATOM     11  C   UNL     1     -11.571  -3.629  18.196  0.00  0.00    +0.000 A 
ATOM     12  C   UNL     1     -11.482  -3.188  19.503  0.00  0.00    +0.000 A 
ATOM     13  C   UNL     1     -11.419  -1.814  19.763  0.00  0.00    +0.000 A 
ATOM     14  C   UNL     1     -11.444  -1.117  20.966  0.00  0.00    +0.000 A 
ATOM     15  C   UNL     1     -11.293  -1.802  22.174  0.00  0.00    +0.000 A 
ATOM     16  C   UNL     1     -10.042  -1.657  22.786  0.00  0.00    +0.000 A 
ATOM     17  C   UNL     1      -9.388  -0.437  22.347  0.00  0.00    +0.000 A 
ATOM     18  C   UNL     1      -9.118   0.480  23.380  0.00  0.00    +0.000 A 
ATOM     19  C   UNL     1      -8.553   0.306  24.654  0.00  0.00    +0.000 A 
ATOM     20  C   UNL     1      -8.996   1.225  25.592  0.00  0.00    +0.000 A 
ATOM     21  C   UNL     1      -9.536   2.434  25.170  0.00  0.00    +0.000 A 
ATOM     22  C   UNL     1      -9.456   2.866  23.835  0.00  0.00    +0.000 A 
ATOM     23  C   UNL     1      -9.737   1.772  23.015  0.00  0.00    +0.000 A 
ATOM     24  N   UNL     1     -10.525   1.651  21.871  0.00  0.00    +0.000 N 
ATOM     25  C   UNL     1      -9.980   0.487  21.461  0.00  0.00    +0.000 A 
ATOM     26  C   UNL     1     -10.738  -0.048  20.508  0.00  0.00    +0.000 A 
ATOM     27  C   UNL     1     -10.023  -2.551  23.901  0.00  0.00    +0.000 C 
ATOM     28  O   UNL     1      -9.124  -3.009  24.602  0.00  0.00    +0.000 OA
ATOM     29  N   UNL     1     -11.362  -2.969  24.014  0.00  0.00    +0.000 N 
ATOM     30  C   UNL     1     -12.284  -2.342  23.093  0.00  0.00    +0.000 C 
ATOM     31  H   UNL     1     -11.179   3.379  17.546  0.00  0.00    +0.000 HD
ATOM     32  H   UNL     1     -12.669   3.732  19.052  0.00  0.00    +0.000 HD
ATOM     33  H   UNL     1     -13.023   0.969  20.184  0.00  0.00    +0.000 HD
ATOM     34  H   UNL     1     -13.702   2.438  20.785  0.00  0.00    +0.000 HD
ATOM     35  H   UNL     1     -11.719   3.297  21.709  0.00  0.00    +0.000 HD
ATOM     36  H   UNL     1     -11.621  -0.665  16.543  0.00  0.00    +0.000 HD
ATOM     37  H   UNL     1     -11.877  -3.049  16.184  0.00  0.00    +0.000 HD
ATOM     38  H   UNL     1     -11.594  -4.692  18.007  0.00  0.00    +0.000 HD
ATOM     39  H   UNL     1     -11.439  -3.904  20.332  0.00  0.00    +0.000 HD
ATOM     40  H   UNL     1      -8.079  -0.627  24.943  0.00  0.00    +0.000 HD
ATOM     41  H   UNL     1      -9.014   0.929  26.632  0.00  0.00    +0.000 HD
ATOM     42  H   UNL     1     -10.102   3.043  25.868  0.00  0.00    +0.000 HD
ATOM     43  H   UNL     1      -8.417   3.234  23.651  0.00  0.00    +0.000 HD
ATOM     44  H   UNL     1     -11.601  -3.761  24.594  0.00  0.00    +0.000 HD
ATOM     45  H   UNL     1     -12.778  -1.515  23.632  0.00  0.00    +0.000 HD
ATOM     46  H   UNL     1     -13.019  -3.022  22.669  0.00  0.00    +0.000 HD
ENDROOT
BRANCH   6  47
ATOM     47  C   UNL     1      -9.008   2.373  18.595  0.00  0.00    +0.000 C 
ATOM     48  H   UNL     1      -8.542   1.769  17.797  0.00  0.00    +0.000 HD
ATOM     49  H   UNL     1      -8.358   2.154  19.462  0.00  0.00    +0.000 HD
ATOM     50  H   UNL     1      -8.892   3.417  18.331  0.00  0.00    +0.000 HD
ENDBRANCH   6  47
BRANCH   2  51
ATOM     51  N   UNL     1     -14.006   2.896  17.874  0.00  0.00    +0.000 N 
ATOM     52  C   UNL     1     -14.664   4.078  17.509  0.00  0.00    +0.000 C 
ATOM     53  O   UNL     1     -15.429   4.094  16.525  0.00  0.00    +0.000 OA
BRANCH  51  54
ATOM     54  C   UNL     1     -14.625   1.702  17.298  0.00  0.00    +0.000 C 
ATOM     55  H   UNL     1     -15.607   1.502  17.747  0.00  0.00    +0.000 HD
ATOM     56  H   UNL     1     -14.007   0.819  17.473  0.00  0.00    +0.000 HD
ATOM     57  H   UNL     1     -14.754   1.847  16.221  0.00  0.00    +0.000 HD
ENDBRANCH  51  54
BRANCH  52  58
ATOM     58  C   UNL     1     -14.488   5.337  18.321  0.00  0.00    +0.000 C 
ATOM     59  H   UNL     1     -13.436   5.577  18.486  0.00  0.00    +0.000 HD
ATOM     60  H   UNL     1     -14.934   5.134  19.302  0.00  0.00    +0.000 HD
BRANCH  58  61
ATOM     61  N   UNL     1     -15.225   6.434  17.676  0.00  0.00    +0.000 NA
ATOM     62  H   UNL     1     -14.876   6.494  16.712  0.00  0.00    +0.000 HD
ATOM     63  H   UNL     1     -16.196   6.142  17.586  0.00  0.00    +0.000 HD
ENDBRANCH  58  61
ENDBRANCH  52  58
ENDBRANCH   2  51
BRANCH   1  64
ATOM     64  O   UNL     1     -11.609   1.607  16.715  0.00  0.00    +0.000 OA
BRANCH  64  65
ATOM     65  C   UNL     1     -11.221   2.327  15.529  0.00  0.00    +0.000 C 
ATOM     66  H   UNL     1     -10.294   2.883  15.686  0.00  0.00    +0.000 HD
ATOM     67  H   UNL     1     -12.018   3.018  15.247  0.00  0.00    +0.000 HD
ATOM     68  H   UNL     1     -11.106   1.652  14.673  0.00  0.00    +0.000 HD
ENDBRANCH  64  65
ENDBRANCH   1  64
TORSDOF 7
ENDMDL
MODEL 4
REMARK VINA RESULT:    -6.140      3.610      5.669
REMARK INTER + INTRA:          -8.971
REMARK INTER:                  -8.536
REMARK INTRA:                  -0.435
REMARK UNBOUND:                -1.037
REMARK  Name = 
REMARK  7 active torsions:
REMARK  status: ('A' for Active; 'I' for Inactive)
REMARK    1  A    between atoms: C_1  and  O_2
REMARK    2  A    between atoms: O_2  and  C_3
REMARK    3  A    between atoms: C_4  and  N_5
REMARK    4  A    between atoms: N_5  and  C_6
REMARK    5  A    between atoms: C_7  and  C_9
REMARK    6  A    between atoms: C_9  and  N_10
REMARK    7  A    between atoms: C_14  and  C_15
REMARK                            x       y       z     vdW  Elec       q    Type
REMARK                         _______ _______ _______ _____ _____    ______ ____
ROOT
ATOM      1  C   UNL     1     -10.923  -1.486  16.164  0.00  0.00    +0.000 C 
ATOM      2  C   UNL     1      -9.505  -0.796  15.942  0.00  0.00    +0.000 C 
ATOM      3  C   UNL     1      -8.929   0.016  17.227  0.00  0.00    +0.000 C 
ATOM      4  C   UNL     1      -8.963  -0.948  18.583  0.00  0.00    +0.000 C 
ATOM      5  O   UNL     1      -9.854  -1.966  18.178  0.00  0.00    +0.000 OA
ATOM      6  C   UNL     1     -11.180  -1.491  17.674  0.00  0.00    +0.000 C 
ATOM      7  N   UNL     1     -11.639  -0.134  18.150  0.00  0.00    +0.000 N 
ATOM      8  C   UNL     1     -12.399   1.040  17.712  0.00  0.00    +0.000 A 
ATOM      9  C   UNL     1     -13.273   1.359  16.679  0.00  0.00    +0.000 A 
ATOM     10  C   UNL     1     -14.078   2.517  16.758  0.00  0.00    +0.000 A 
ATOM     11  C   UNL     1     -14.045   3.393  17.821  0.00  0.00    +0.000 A 
ATOM     12  C   UNL     1     -13.047   3.242  18.765  0.00  0.00    +0.000 A 
ATOM     13  C   UNL     1     -12.159   2.165  18.661  0.00  0.00    +0.000 A 
ATOM     14  C   UNL     1     -11.019   1.857  19.396  0.00  0.00    +0.000 A 
ATOM     15  C   UNL     1     -10.743   2.545  20.580  0.00  0.00    +0.000 A 
ATOM     16  C   UNL     1     -10.986   1.824  21.755  0.00  0.00    +0.000 A 
ATOM     17  C   UNL     1     -10.944   0.395  21.506  0.00  0.00    +0.000 A 
ATOM     18  C   UNL     1      -9.951  -0.292  22.230  0.00  0.00    +0.000 A 
ATOM     19  C   UNL     1      -9.582  -0.236  23.584  0.00  0.00    +0.000 A 
ATOM     20  C   UNL     1      -8.247  -0.530  23.812  0.00  0.00    +0.000 A 
ATOM     21  C   UNL     1      -7.531  -1.258  22.869  0.00  0.00    +0.000 A 
ATOM     22  C   UNL     1      -8.156  -1.902  21.787  0.00  0.00    +0.000 A 
ATOM     23  C   UNL     1      -9.110  -1.029  21.264  0.00  0.00    +0.000 A 
ATOM     24  N   UNL     1      -9.438  -0.697  19.950  0.00  0.00    +0.000 N 
ATOM     25  C   UNL     1     -10.642  -0.167  20.247  0.00  0.00    +0.000 A 
ATOM     26  C   UNL     1     -11.101   0.513  19.200  0.00  0.00    +0.000 A 
ATOM     27  C   UNL     1     -10.810   2.736  22.841  0.00  0.00    +0.000 C 
ATOM     28  O   UNL     1     -11.138   2.715  24.025  0.00  0.00    +0.000 OA
ATOM     29  N   UNL     1     -10.223   3.863  22.237  0.00  0.00    +0.000 N 
ATOM     30  C   UNL     1      -9.923   3.722  20.828  0.00  0.00    +0.000 C 
ATOM     31  H   UNL     1     -10.767  -2.519  15.822  0.00  0.00    +0.000 HD
ATOM     32  H   UNL     1      -8.811  -1.649  16.003  0.00  0.00    +0.000 HD
ATOM     33  H   UNL     1      -9.454   0.965  17.343  0.00  0.00    +0.000 HD
ATOM     34  H   UNL     1      -7.888   0.306  17.037  0.00  0.00    +0.000 HD
ATOM     35  H   UNL     1      -7.954  -1.344  18.709  0.00  0.00    +0.000 HD
ATOM     36  H   UNL     1     -13.384   0.753  15.792  0.00  0.00    +0.000 HD
ATOM     37  H   UNL     1     -14.787   2.724  15.955  0.00  0.00    +0.000 HD
ATOM     38  H   UNL     1     -14.740   4.213  17.926  0.00  0.00    +0.000 HD
ATOM     39  H   UNL     1     -12.960   3.944  19.602  0.00  0.00    +0.000 HD
ATOM     40  H   UNL     1     -10.189   0.286  24.317  0.00  0.00    +0.000 HD
ATOM     41  H   UNL     1      -7.762  -0.085  24.671  0.00  0.00    +0.000 HD
ATOM     42  H   UNL     1      -6.447  -1.280  22.917  0.00  0.00    +0.000 HD
ATOM     43  H   UNL     1      -8.646  -2.830  22.172  0.00  0.00    +0.000 HD
ATOM     44  H   UNL     1     -10.173   4.740  22.734  0.00  0.00    +0.000 HD
ATOM     45  H   UNL     1      -8.856   3.454  20.744  0.00  0.00    +0.000 HD
ATOM     46  H   UNL     1     -10.150   4.605  20.236  0.00  0.00    +0.000 HD
ENDROOT
BRANCH   6  47
ATOM     47  C   UNL     1     -11.898  -2.774  18.162  0.00  0.00    +0.000 C 
ATOM     48  H   UNL     1     -12.729  -2.530  18.848  0.00  0.00    +0.000 HD
ATOM     49  H   UNL     1     -11.212  -3.337  18.823  0.00  0.00    +0.000 HD
ATOM     50  H   UNL     1     -12.279  -3.448  17.406  0.00  0.00    +0.000 HD
ENDBRANCH   6  47
BRANCH   2  51
ATOM     51  N   UNL     1      -9.250  -0.440  14.514  0.00  0.00    +0.000 N 
ATOM     52  C   UNL     1      -9.354  -1.217  13.352  0.00  0.00    +0.000 C 
ATOM     53  O   UNL     1      -9.424  -0.671  12.234  0.00  0.00    +0.000 OA
BRANCH  51  54
ATOM     54  C   UNL     1      -8.812   0.929  14.242  0.00  0.00    +0.000 C 
ATOM     55  H   UNL     1      -9.631   1.647  14.375  0.00  0.00    +0.000 HD
ATOM     56  H   UNL     1      -8.462   1.030  13.213  0.00  0.00    +0.000 HD
ATOM     57  H   UNL     1      -8.000   1.191  14.928  0.00  0.00    +0.000 HD
ENDBRANCH  51  54
BRANCH  52  58
ATOM     58  C   UNL     1      -9.343  -2.723  13.433  0.00  0.00    +0.000 C 
ATOM     59  H   UNL     1     -10.016  -3.179  12.704  0.00  0.00    +0.000 HD
ATOM     60  H   UNL     1      -9.721  -2.979  14.430  0.00  0.00    +0.000 HD
BRANCH  58  61
ATOM     61  N   UNL     1      -7.959  -3.202  13.305  0.00  0.00    +0.000 NA
ATOM     62  H   UNL     1      -7.980  -3.985  12.641  0.00  0.00    +0.000 HD
ATOM     63  H   UNL     1      -7.422  -2.474  12.837  0.00  0.00    +0.000 HD
ENDBRANCH  58  61
ENDBRANCH  52  58
ENDBRANCH   2  51
BRANCH   1  64
ATOM     64  O   UNL     1     -12.022  -1.023  15.369  0.00  0.00    +0.000 OA
BRANCH  64  65
ATOM     65  C   UNL     1     -12.633  -2.070  14.590  0.00  0.00    +0.000 C 
ATOM     66  H   UNL     1     -12.086  -2.246  13.661  0.00  0.00    +0.000 HD
ATOM     67  H   UNL     1     -13.664  -1.796  14.360  0.00  0.00    +0.000 HD
ATOM     68  H   UNL     1     -12.701  -3.003  15.160  0.00  0.00    +0.000 HD
ENDBRANCH  64  65
ENDBRANCH   1  64
TORSDOF 7
ENDMDL
MODEL 5
REMARK VINA RESULT:    -6.126      3.226      6.069
REMARK INTER + INTRA:          -8.953
REMARK INTER:                  -7.966
REMARK INTRA:                  -0.987
REMARK UNBOUND:                -1.037
REMARK  Name = 
REMARK  7 active torsions:
REMARK  status: ('A' for Active; 'I' for Inactive)
REMARK    1  A    between atoms: C_1  and  O_2
REMARK    2  A    between atoms: O_2  and  C_3
REMARK    3  A    between atoms: C_4  and  N_5
REMARK    4  A    between atoms: N_5  and  C_6
REMARK    5  A    between atoms: C_7  and  C_9
REMARK    6  A    between atoms: C_9  and  N_10
REMARK    7  A    between atoms: C_14  and  C_15
REMARK                            x       y       z     vdW  Elec       q    Type
REMARK                         _______ _______ _______ _____ _____    ______ ____
ROOT
ATOM      1  C   UNL     1     -10.828   1.259  17.152  0.00  0.00    +0.000 C 
ATOM      2  C   UNL     1     -12.156   0.929  17.966  0.00  0.00    +0.000 C 
ATOM      3  C   UNL     1     -12.104  -0.445  18.833  0.00  0.00    +0.000 C 
ATOM      4  C   UNL     1     -10.745  -0.473  19.792  0.00  0.00    +0.000 C 
ATOM      5  O   UNL     1      -9.954   0.526  19.183  0.00  0.00    +0.000 OA
ATOM      6  C   UNL     1      -9.728   0.354  17.714  0.00  0.00    +0.000 C 
ATOM      7  N   UNL     1      -9.849  -1.049  17.169  0.00  0.00    +0.000 N 
ATOM      8  C   UNL     1     -10.271  -1.784  15.975  0.00  0.00    +0.000 A 
ATOM      9  C   UNL     1     -10.564  -1.488  14.648  0.00  0.00    +0.000 A 
ATOM     10  C   UNL     1     -10.628  -2.519  13.684  0.00  0.00    +0.000 A 
ATOM     11  C   UNL     1     -10.427  -3.849  13.982  0.00  0.00    +0.000 A 
ATOM     12  C   UNL     1     -10.348  -4.220  15.312  0.00  0.00    +0.000 A 
ATOM     13  C   UNL     1     -10.390  -3.233  16.304  0.00  0.00    +0.000 A 
ATOM     14  C   UNL     1     -10.447  -3.345  17.690  0.00  0.00    +0.000 A 
ATOM     15  C   UNL     1     -10.219  -4.579  18.301  0.00  0.00    +0.000 A 
ATOM     16  C   UNL     1      -8.972  -4.710  18.925  0.00  0.00    +0.000 A 
ATOM     17  C   UNL     1      -8.426  -3.410  19.273  0.00  0.00    +0.000 A 
ATOM     18  C   UNL     1      -8.211  -3.221  20.651  0.00  0.00    +0.000 A 
ATOM     19  C   UNL     1      -7.609  -4.041  21.619  0.00  0.00    +0.000 A 
ATOM     20  C   UNL     1      -8.106  -3.852  22.899  0.00  0.00    +0.000 A 
ATOM     21  C   UNL     1      -8.749  -2.662  23.219  0.00  0.00    +0.000 A 
ATOM     22  C   UNL     1      -8.730  -1.546  22.364  0.00  0.00    +0.000 A 
ATOM     23  C   UNL     1      -8.937  -2.002  21.062  0.00  0.00    +0.000 A 
ATOM     24  N   UNL     1      -9.735  -1.514  20.028  0.00  0.00    +0.000 N 
ATOM     25  C   UNL     1      -9.108  -2.195  19.048  0.00  0.00    +0.000 A 
ATOM     26  C   UNL     1      -9.838  -2.154  17.937  0.00  0.00    +0.000 A 
ATOM     27  C   UNL     1      -8.860  -6.073  19.339  0.00  0.00    +0.000 C 
ATOM     28  O   UNL     1      -7.914  -6.777  19.684  0.00  0.00    +0.000 OA
ATOM     29  N   UNL     1     -10.159  -6.584  19.157  0.00  0.00    +0.000 N 
ATOM     30  C   UNL     1     -11.146  -5.618  18.725  0.00  0.00    +0.000 C 
ATOM     31  H   UNL     1     -10.609   2.302  17.421  0.00  0.00    +0.000 HD
ATOM     32  H   UNL     1     -12.093   1.625  18.818  0.00  0.00    +0.000 HD
ATOM     33  H   UNL     1     -12.204  -1.311  18.177  0.00  0.00    +0.000 HD
ATOM     34  H   UNL     1     -12.986  -0.497  19.484  0.00  0.00    +0.000 HD
ATOM     35  H   UNL     1     -11.060  -0.163  20.789  0.00  0.00    +0.000 HD
ATOM     36  H   UNL     1     -10.746  -0.483  14.294  0.00  0.00    +0.000 HD
ATOM     37  H   UNL     1     -10.817  -2.257  12.642  0.00  0.00    +0.000 HD
ATOM     38  H   UNL     1     -10.368  -4.616  13.224  0.00  0.00    +0.000 HD
ATOM     39  H   UNL     1     -10.232  -5.272  15.591  0.00  0.00    +0.000 HD
ATOM     40  H   UNL     1      -7.057  -4.934  21.343  0.00  0.00    +0.000 HD
ATOM     41  H   UNL     1      -8.080  -4.684  23.588  0.00  0.00    +0.000 HD
ATOM     42  H   UNL     1      -9.349  -2.601  24.121  0.00  0.00    +0.000 HD
ATOM     43  H   UNL     1      -7.727  -1.059  22.452  0.00  0.00    +0.000 HD
ATOM     44  H   UNL     1     -10.322  -7.579  19.180  0.00  0.00    +0.000 HD
ATOM     45  H   UNL     1     -11.693  -5.283  19.623  0.00  0.00    +0.000 HD
ATOM     46  H   UNL     1     -11.832  -5.993  17.969  0.00  0.00    +0.000 HD
ENDROOT
BRANCH   6  47
ATOM     47  C   UNL     1      -8.345   1.050  17.780  0.00  0.00    +0.000 C 
ATOM     48  H   UNL     1      -7.571   0.363  18.167  0.00  0.00    +0.000 HD
ATOM     49  H   UNL     1      -8.375   1.829  18.565  0.00  0.00    +0.000 HD
ATOM     50  H   UNL     1      -7.969   1.494  16.868  0.00  0.00    +0.000 HD
ENDBRANCH   6  47
BRANCH   2  51
ATOM     51  N   UNL     1     -13.382   1.503  17.335  0.00  0.00    +0.000 N 
ATOM     52  C   UNL     1     -14.297   0.929  16.442  0.00  0.00    +0.000 C 
ATOM     53  O   UNL     1     -15.424   1.436  16.284  0.00  0.00    +0.000 OA
BRANCH  51  54
ATOM     54  C   UNL     1     -13.711   2.888  17.671  0.00  0.00    +0.000 C 
ATOM     55  H   UNL     1     -14.476   3.294  16.997  0.00  0.00    +0.000 HD
ATOM     56  H   UNL     1     -12.833   3.531  17.582  0.00  0.00    +0.000 HD
ATOM     57  H   UNL     1     -14.088   2.930  18.697  0.00  0.00    +0.000 HD
ENDBRANCH  51  54
BRANCH  52  58
ATOM     58  C   UNL     1     -13.920  -0.286  15.632  0.00  0.00    +0.000 C 
ATOM     59  H   UNL     1     -14.655  -1.088  15.725  0.00  0.00    +0.000 HD
ATOM     60  H   UNL     1     -12.978  -0.657  16.055  0.00  0.00    +0.000 HD
BRANCH  58  61
ATOM     61  N   UNL     1     -13.695   0.118  14.236  0.00  0.00    +0.000 NA
ATOM     62  H   UNL     1     -14.468   0.744  13.983  0.00  0.00    +0.000 HD
ATOM     63  H   UNL     1     -12.863   0.705  14.214  0.00  0.00    +0.000 HD
ENDBRANCH  58  61
ENDBRANCH  52  58
ENDBRANCH   2  51
BRANCH   1  64
ATOM     64  O   UNL     1     -10.912   1.284  15.721  0.00  0.00    +0.000 OA
BRANCH  64  65
ATOM     65  C   UNL     1     -10.681   2.594  15.167  0.00  0.00    +0.000 C 
ATOM     66  H   UNL     1     -10.504   3.333  15.951  0.00  0.00    +0.000 HD
ATOM     67  H   UNL     1     -11.546   2.894  14.572  0.00  0.00    +0.000 HD
ATOM     68  H   UNL     1      -9.837   2.588  14.468  0.00  0.00    +0.000 HD
ENDBRANCH  64  65
ENDBRANCH   1  64
TORSDOF 7
ENDMDL
MODEL 6
REMARK VINA RESULT:    -6.033      3.722      6.717
REMARK INTER + INTRA:          -8.833
REMARK INTER:                  -7.946
REMARK INTRA:                  -0.887
REMARK UNBOUND:                -1.037
REMARK  Name = 
REMARK  7 active torsions:
REMARK  status: ('A' for Active; 'I' for Inactive)
REMARK    1  A    between atoms: C_1  and  O_2
REMARK    2  A    between atoms: O_2  and  C_3
REMARK    3  A    between atoms: C_4  and  N_5
REMARK    4  A    between atoms: N_5  and  C_6
REMARK    5  A    between atoms: C_7  and  C_9
REMARK    6  A    between atoms: C_9  and  N_10
REMARK    7  A    between atoms: C_14  and  C_15
REMARK                            x       y       z     vdW  Elec       q    Type
REMARK                         _______ _______ _______ _____ _____    ______ ____
ROOT
ATOM      1  C   UNL     1     -11.817   3.582  17.596  0.00  0.00    +0.000 C 
ATOM      2  C   UNL     1     -13.195   3.073  18.210  0.00  0.00    +0.000 C 
ATOM      3  C   UNL     1     -13.129   1.614  18.924  0.00  0.00    +0.000 C 
ATOM      4  C   UNL     1     -11.883   1.565  20.026  0.00  0.00    +0.000 C 
ATOM      5  O   UNL     1     -11.112   2.678  19.623  0.00  0.00    +0.000 OA
ATOM      6  C   UNL     1     -10.716   2.692  18.181  0.00  0.00    +0.000 C 
ATOM      7  N   UNL     1     -10.668   1.358  17.477  0.00  0.00    +0.000 N 
ATOM      8  C   UNL     1     -10.900   0.740  16.169  0.00  0.00    +0.000 A 
ATOM      9  C   UNL     1     -11.071   1.168  14.858  0.00  0.00    +0.000 A 
ATOM     10  C   UNL     1     -10.949   0.254  13.787  0.00  0.00    +0.000 A 
ATOM     11  C   UNL     1     -10.678  -1.085  13.961  0.00  0.00    +0.000 A 
ATOM     12  C   UNL     1     -10.714  -1.602  15.243  0.00  0.00    +0.000 A 
ATOM     13  C   UNL     1     -10.940  -0.743  16.324  0.00  0.00    +0.000 A 
ATOM     14  C   UNL     1     -11.137  -1.018  17.674  0.00  0.00    +0.000 A 
ATOM     15  C   UNL     1     -10.879  -2.297  18.171  0.00  0.00    +0.000 A 
ATOM     16  C   UNL     1      -9.701  -2.417  18.917  0.00  0.00    +0.000 A 
ATOM     17  C   UNL     1      -9.299  -1.133  19.464  0.00  0.00    +0.000 A 
ATOM     18  C   UNL     1      -9.248  -1.091  20.870  0.00  0.00    +0.000 A 
ATOM     19  C   UNL     1      -8.692  -1.977  21.807  0.00  0.00    +0.000 A 
ATOM     20  C   UNL     1      -9.337  -1.971  23.034  0.00  0.00    +0.000 A 
ATOM     21  C   UNL     1     -10.101  -0.871  23.404  0.00  0.00    +0.000 A 
ATOM     22  C   UNL     1     -10.078   0.335  22.682  0.00  0.00    +0.000 A 
ATOM     23  C   UNL     1     -10.108   0.021  21.324  0.00  0.00    +0.000 A 
ATOM     24  N   UNL     1     -10.826   0.572  20.263  0.00  0.00    +0.000 N 
ATOM     25  C   UNL     1     -10.045   0.052  19.294  0.00  0.00    +0.000 A 
ATOM     26  C   UNL     1     -10.653   0.174  18.117  0.00  0.00    +0.000 A 
ATOM     27  C   UNL     1      -9.528  -3.809  19.192  0.00  0.00    +0.000 C 
ATOM     28  O   UNL     1      -8.571  -4.484  19.566  0.00  0.00    +0.000 OA
ATOM     29  N   UNL     1     -10.755  -4.379  18.806  0.00  0.00    +0.000 N 
ATOM     30  C   UNL     1     -11.762  -3.437  18.369  0.00  0.00    +0.000 C 
ATOM     31  H   UNL     1     -11.711   4.599  18.000  0.00  0.00    +0.000 HD
ATOM     32  H   UNL     1     -13.279   3.668  19.134  0.00  0.00    +0.000 HD
ATOM     33  H   UNL     1     -13.089   0.826  18.172  0.00  0.00    +0.000 HD
ATOM     34  H   UNL     1     -14.069   1.429  19.460  0.00  0.00    +0.000 HD
ATOM     35  H   UNL     1     -12.327   1.736  21.007  0.00  0.00    +0.000 HD
ATOM     36  H   UNL     1     -11.292   2.193  14.595  0.00  0.00    +0.000 HD
ATOM     37  H   UNL     1     -11.046   0.622  12.765  0.00  0.00    +0.000 HD
ATOM     38  H   UNL     1     -10.478  -1.754  13.136  0.00  0.00    +0.000 HD
ATOM     39  H   UNL     1     -10.547  -2.670  15.418  0.00  0.00    +0.000 HD
ATOM     40  H   UNL     1      -8.045  -2.794  21.502  0.00  0.00    +0.000 HD
ATOM     41  H   UNL     1      -9.320  -2.875  23.627  0.00  0.00    +0.000 HD
ATOM     42  H   UNL     1     -10.798  -0.955  24.232  0.00  0.00    +0.000 HD
ATOM     43  H   UNL     1      -9.132   0.873  22.937  0.00  0.00    +0.000 HD
ATOM     44  H   UNL     1     -10.841  -5.379  18.702  0.00  0.00    +0.000 HD
ATOM     45  H   UNL     1     -12.428  -3.245  19.229  0.00  0.00    +0.000 HD
ATOM     46  H   UNL     1     -12.331  -3.766  17.504  0.00  0.00    +0.000 HD
ENDROOT
BRANCH   6  47
ATOM     47  C   UNL     1      -9.408   3.466  18.481  0.00  0.00    +0.000 C 
ATOM     48  H   UNL     1      -9.399   4.446  17.973  0.00  0.00    +0.000 HD
ATOM     49  H   UNL     1      -8.565   2.944  17.990  0.00  0.00    +0.000 HD
ATOM     50  H   UNL     1      -9.155   3.627  19.521  0.00  0.00    +0.000 HD
ENDBRANCH   6  47
BRANCH   2  51
ATOM     51  N   UNL     1     -14.387   3.635  17.507  0.00  0.00    +0.000 N 
ATOM     52  C   UNL     1     -15.210   3.070  16.524  0.00  0.00    +0.000 C 
ATOM     53  O   UNL     1     -16.338   3.548  16.297  0.00  0.00    +0.000 OA
BRANCH  51  54
ATOM     54  C   UNL     1     -14.788   4.994  17.870  0.00  0.00    +0.000 C 
ATOM     55  H   UNL     1     -14.202   5.745  17.326  0.00  0.00    +0.000 HD
ATOM     56  H   UNL     1     -14.632   5.176  18.936  0.00  0.00    +0.000 HD
ATOM     57  H   UNL     1     -15.847   5.133  17.631  0.00  0.00    +0.000 HD
ENDBRANCH  51  54
BRANCH  52  58
ATOM     58  C   UNL     1     -14.730   1.903  15.699  0.00  0.00    +0.000 C 
ATOM     59  H   UNL     1     -13.642   1.810  15.710  0.00  0.00    +0.000 HD
ATOM     60  H   UNL     1     -15.028   2.113  14.665  0.00  0.00    +0.000 HD
BRANCH  58  61
ATOM     61  N   UNL     1     -15.406   0.679  16.156  0.00  0.00    +0.000 NA
ATOM     62  H   UNL     1     -14.939   0.393  17.023  0.00  0.00    +0.000 HD
ATOM     63  H   UNL     1     -16.351   0.936  16.438  0.00  0.00    +0.000 HD
ENDBRANCH  58  61
ENDBRANCH  52  58
ENDBRANCH   2  51
BRANCH   1  64
ATOM     64  O   UNL     1     -11.748   3.768  16.176  0.00  0.00    +0.000 OA
BRANCH  64  65
ATOM     65  C   UNL     1     -11.503   5.137  15.798  0.00  0.00    +0.000 C 
ATOM     66  H   UNL     1     -12.432   5.652  15.543  0.00  0.00    +0.000 HD
ATOM     67  H   UNL     1     -10.825   5.161  14.943  0.00  0.00    +0.000 HD
ATOM     68  H   UNL     1     -10.985   5.683  16.594  0.00  0.00    +0.000 HD
ENDBRANCH  64  65
ENDBRANCH   1  64
TORSDOF 7
ENDMDL
MODEL 7
REMARK VINA RESULT:    -5.934      3.610      6.106
REMARK INTER + INTRA:          -8.705
REMARK INTER:                  -7.848
REMARK INTRA:                  -0.857
REMARK UNBOUND:                -1.037
REMARK  Name = 
REMARK  7 active torsions:
REMARK  status: ('A' for Active; 'I' for Inactive)
REMARK    1  A    between atoms: C_1  and  O_2
REMARK    2  A    between atoms: O_2  and  C_3
REMARK    3  A    between atoms: C_4  and  N_5
REMARK    4  A    between atoms: N_5  and  C_6
REMARK    5  A    between atoms: C_7  and  C_9
REMARK    6  A    between atoms: C_9  and  N_10
REMARK    7  A    between atoms: C_14  and  C_15
REMARK                            x       y       z     vdW  Elec       q    Type
REMARK                         _______ _______ _______ _____ _____    ______ ____
ROOT
ATOM      1  C   UNL     1     -11.832   2.561  17.547  0.00  0.00    +0.000 C 
ATOM      2  C   UNL     1     -10.253   2.617  17.349  0.00  0.00    +0.000 C 
ATOM      3  C   UNL     1      -9.528   1.169  17.215  0.00  0.00    +0.000 C 
ATOM      4  C   UNL     1     -10.284   0.248  16.053  0.00  0.00    +0.000 C 
ATOM      5  O   UNL     1     -11.513   0.930  15.915  0.00  0.00    +0.000 OA
ATOM      6  C   UNL     1     -12.273   1.139  17.187  0.00  0.00    +0.000 C 
ATOM      7  N   UNL     1     -11.983   0.180  18.317  0.00  0.00    +0.000 N 
ATOM      8  C   UNL     1     -11.905   0.117  19.778  0.00  0.00    +0.000 A 
ATOM      9  C   UNL     1     -12.297   0.907  20.853  0.00  0.00    +0.000 A 
ATOM     10  C   UNL     1     -12.342   0.365  22.157  0.00  0.00    +0.000 A 
ATOM     11  C   UNL     1     -11.996  -0.936  22.450  0.00  0.00    +0.000 A 
ATOM     12  C   UNL     1     -11.396  -1.695  21.462  0.00  0.00    +0.000 A 
ATOM     13  C   UNL     1     -11.235  -1.153  20.182  0.00  0.00    +0.000 A 
ATOM     14  C   UNL     1     -10.573  -1.650  19.064  0.00  0.00    +0.000 A 
ATOM     15  C   UNL     1     -10.147  -2.980  19.039  0.00  0.00    +0.000 A 
ATOM     16  C   UNL     1     -10.916  -3.834  18.239  0.00  0.00    +0.000 A 
ATOM     17  C   UNL     1     -11.624  -3.088  17.214  0.00  0.00    +0.000 A 
ATOM     18  C   UNL     1     -11.287  -3.450  15.896  0.00  0.00    +0.000 A 
ATOM     19  C   UNL     1     -11.154  -4.707  15.282  0.00  0.00    +0.000 A 
ATOM     20  C   UNL     1     -10.247  -4.724  14.235  0.00  0.00    +0.000 A 
ATOM     21  C   UNL     1      -9.913  -3.537  13.593  0.00  0.00    +0.000 A 
ATOM     22  C   UNL     1     -10.618  -2.341  13.814  0.00  0.00    +0.000 A 
ATOM     23  C   UNL     1     -10.851  -2.230  15.186  0.00  0.00    +0.000 A 
ATOM     24  N   UNL     1     -10.744  -1.147  16.057  0.00  0.00    +0.000 N 
ATOM     25  C   UNL     1     -11.492  -1.694  17.036  0.00  0.00    +0.000 A 
ATOM     26  C   UNL     1     -11.344  -0.993  18.157  0.00  0.00    +0.000 A 
ATOM     27  C   UNL     1     -10.436  -5.159  18.471  0.00  0.00    +0.000 C 
ATOM     28  O   UNL     1     -10.896  -6.277  18.247  0.00  0.00    +0.000 OA
ATOM     29  N   UNL     1      -9.247  -4.960  19.197  0.00  0.00    +0.000 N 
ATOM     30  C   UNL     1      -8.867  -3.578  19.389  0.00  0.00    +0.000 C 
ATOM     31  H   UNL     1     -12.215   3.260  16.790  0.00  0.00    +0.000 HD
ATOM     32  H   UNL     1     -10.155   2.912  16.292  0.00  0.00    +0.000 HD
ATOM     33  H   UNL     1      -9.462   0.686  18.191  0.00  0.00    +0.000 HD
ATOM     34  H   UNL     1      -8.482   1.312  16.913  0.00  0.00    +0.000 HD
ATOM     35  H   UNL     1      -9.687   0.340  15.145  0.00  0.00    +0.000 HD
ATOM     36  H   UNL     1     -12.586   1.942  20.750  0.00  0.00    +0.000 HD
ATOM     37  H   UNL     1     -12.694   0.991  22.978  0.00  0.00    +0.000 HD
ATOM     38  H   UNL     1     -12.138  -1.374  23.427  0.00  0.00    +0.000 HD
ATOM     39  H   UNL     1     -11.068  -2.719  21.668  0.00  0.00    +0.000 HD
ATOM     40  H   UNL     1     -11.480  -5.617  15.776  0.00  0.00    +0.000 HD
ATOM     41  H   UNL     1      -9.734  -5.650  14.015  0.00  0.00    +0.000 HD
ATOM     42  H   UNL     1      -9.037  -3.500  12.953  0.00  0.00    +0.000 HD
ATOM     43  H   UNL     1     -11.585  -2.401  13.258  0.00  0.00    +0.000 HD
ATOM     44  H   UNL     1      -8.803  -5.734  19.669  0.00  0.00    +0.000 HD
ATOM     45  H   UNL     1      -8.119  -3.331  18.615  0.00  0.00    +0.000 HD
ATOM     46  H   UNL     1      -8.484  -3.357  20.382  0.00  0.00    +0.000 HD
ENDROOT
BRANCH   6  47
ATOM     47  C   UNL     1     -13.638   1.095  16.455  0.00  0.00    +0.000 C 
ATOM     48  H   UNL     1     -14.098   0.094  16.531  0.00  0.00    +0.000 HD
ATOM     49  H   UNL     1     -13.462   1.187  15.367  0.00  0.00    +0.000 HD
ATOM     50  H   UNL     1     -14.381   1.825  16.747  0.00  0.00    +0.000 HD
ENDBRANCH   6  47
BRANCH   2  51
ATOM     51  N   UNL     1      -9.635   3.837  17.949  0.00  0.00    +0.000 N 
ATOM     52  C   UNL     1      -9.182   4.077  19.253  0.00  0.00    +0.000 C 
ATOM     53  O   UNL     1      -8.403   5.022  19.485  0.00  0.00    +0.000 OA
BRANCH  51  54
ATOM     54  C   UNL     1      -9.466   4.994  17.069  0.00  0.00    +0.000 C 
ATOM     55  H   UNL     1      -8.968   4.716  16.132  0.00  0.00    +0.000 HD
ATOM     56  H   UNL     1      -8.850   5.759  17.545  0.00  0.00    +0.000 HD
ATOM     57  H   UNL     1     -10.449   5.414  16.834  0.00  0.00    +0.000 HD
ENDBRANCH  51  54
BRANCH  52  58
ATOM     58  C   UNL     1      -9.658   3.222  20.401  0.00  0.00    +0.000 C 
ATOM     59  H   UNL     1      -8.830   2.837  21.000  0.00  0.00    +0.000 HD
ATOM     60  H   UNL     1     -10.163   2.358  19.951  0.00  0.00    +0.000 HD
BRANCH  58  61
ATOM     61  N   UNL     1     -10.629   3.985  21.200  0.00  0.00    +0.000 NA
ATOM     62  H   UNL     1     -11.335   4.338  20.543  0.00  0.00    +0.000 HD
ATOM     63  H   UNL     1     -11.129   3.324  21.792  0.00  0.00    +0.000 HD
ENDBRANCH  58  61
ENDBRANCH  52  58
ENDBRANCH   2  51
BRANCH   1  64
ATOM     64  O   UNL     1     -12.368   3.063  18.779  0.00  0.00    +0.000 OA
BRANCH  64  65
ATOM     65  C   UNL     1     -13.228   4.205  18.595  0.00  0.00    +0.000 C 
ATOM     66  H   UNL     1     -13.184   4.574  17.569  0.00  0.00    +0.000 HD
ATOM     67  H   UNL     1     -12.928   4.998  19.282  0.00  0.00    +0.000 HD
ATOM     68  H   UNL     1     -14.265   3.969  18.859  0.00  0.00    +0.000 HD
ENDBRANCH  64  65
ENDBRANCH   1  64
TORSDOF 7
ENDMDL
MODEL 8
REMARK VINA RESULT:    -5.733      3.410      6.165
REMARK INTER + INTRA:          -8.445
REMARK INTER:                  -7.809
REMARK INTRA:                  -0.636
REMARK UNBOUND:                -1.037
REMARK  Name = 
REMARK  7 active torsions:
REMARK  status: ('A' for Active; 'I' for Inactive)
REMARK    1  A    between atoms: C_1  and  O_2
REMARK    2  A    between atoms: O_2  and  C_3
REMARK    3  A    between atoms: C_4  and  N_5
REMARK    4  A    between atoms: N_5  and  C_6
REMARK    5  A    between atoms: C_7  and  C_9
REMARK    6  A    between atoms: C_9  and  N_10
REMARK    7  A    between atoms: C_14  and  C_15
REMARK                            x       y       z     vdW  Elec       q    Type
REMARK                         _______ _______ _______ _____ _____    ______ ____
ROOT
ATOM      1  C   UNL     1     -13.010   2.945  15.569  0.00  0.00    +0.000 C 
ATOM      2  C   UNL     1     -14.270   2.542  16.457  0.00  0.00    +0.000 C 
ATOM      3  C   UNL     1     -14.005   1.336  17.514  0.00  0.00    +0.000 C 
ATOM      4  C   UNL     1     -12.655   1.657  18.432  0.00  0.00    +0.000 C 
ATOM      5  O   UNL     1     -12.029   2.663  17.663  0.00  0.00    +0.000 OA
ATOM      6  C   UNL     1     -11.783   2.311  16.230  0.00  0.00    +0.000 C 
ATOM      7  N   UNL     1     -11.688   0.841  15.899  0.00  0.00    +0.000 N 
ATOM      8  C   UNL     1     -11.995  -0.118  14.835  0.00  0.00    +0.000 A 
ATOM      9  C   UNL     1     -12.334  -0.070  13.488  0.00  0.00    +0.000 A 
ATOM     10  C   UNL     1     -12.241  -1.230  12.687  0.00  0.00    +0.000 A 
ATOM     11  C   UNL     1     -11.837  -2.455  13.170  0.00  0.00    +0.000 A 
ATOM     12  C   UNL     1     -11.699  -2.609  14.537  0.00  0.00    +0.000 A 
ATOM     13  C   UNL     1     -11.889  -1.504  15.376  0.00  0.00    +0.000 A 
ATOM     14  C   UNL     1     -11.925  -1.416  16.764  0.00  0.00    +0.000 A 
ATOM     15  C   UNL     1     -11.507  -2.497  17.543  0.00  0.00    +0.000 A 
ATOM     16  C   UNL     1     -10.254  -2.343  18.148  0.00  0.00    +0.000 A 
ATOM     17  C   UNL     1      -9.914  -0.939  18.288  0.00  0.00    +0.000 A 
ATOM     18  C   UNL     1      -9.726  -0.517  19.617  0.00  0.00    +0.000 A 
ATOM     19  C   UNL     1      -9.002  -1.084  20.680  0.00  0.00    +0.000 A 
ATOM     20  C   UNL     1      -9.519  -0.784  21.930  0.00  0.00    +0.000 A 
ATOM     21  C   UNL     1     -10.336   0.328  22.089  0.00  0.00    +0.000 A 
ATOM     22  C   UNL     1     -10.492   1.295  21.081  0.00  0.00    +0.000 A 
ATOM     23  C   UNL     1     -10.630   0.625  19.865  0.00  0.00    +0.000 A 
ATOM     24  N   UNL     1     -11.497   0.828  18.791  0.00  0.00    +0.000 N 
ATOM     25  C   UNL     1     -10.774   0.112  17.905  0.00  0.00    +0.000 A 
ATOM     26  C   UNL     1     -11.505  -0.123  16.819  0.00  0.00    +0.000 A 
ATOM     27  C   UNL     1      -9.932  -3.597  18.753  0.00  0.00    +0.000 C 
ATOM     28  O   UNL     1      -8.888  -4.090  19.173  0.00  0.00    +0.000 OA
ATOM     29  N   UNL     1     -11.137  -4.320  18.681  0.00  0.00    +0.000 N 
ATOM     30  C   UNL     1     -12.262  -3.590  18.137  0.00  0.00    +0.000 C 
ATOM     31  H   UNL     1     -12.954   4.037  15.678  0.00  0.00    +0.000 HD
ATOM     32  H   UNL     1     -14.313   3.357  17.196  0.00  0.00    +0.000 HD
ATOM     33  H   UNL     1     -13.972   0.377  16.994  0.00  0.00    +0.000 HD
ATOM     34  H   UNL     1     -14.866   1.247  18.188  0.00  0.00    +0.000 HD
ATOM     35  H   UNL     1     -13.011   2.060  19.380  0.00  0.00    +0.000 HD
ATOM     36  H   UNL     1     -12.669   0.831  12.996  0.00  0.00    +0.000 HD
ATOM     37  H   UNL     1     -12.471  -1.158  11.623  0.00  0.00    +0.000 HD
ATOM     38  H   UNL     1     -11.663  -3.309  12.532  0.00  0.00    +0.000 HD
ATOM     39  H   UNL     1     -11.421  -3.579  14.964  0.00  0.00    +0.000 HD
ATOM     40  H   UNL     1      -8.320  -1.913  20.523  0.00  0.00    +0.000 HD
ATOM     41  H   UNL     1      -9.364  -1.492  22.733  0.00  0.00    +0.000 HD
ATOM     42  H   UNL     1     -10.936   0.431  22.988  0.00  0.00    +0.000 HD
ATOM     43  H   UNL     1      -9.576   1.936  21.070  0.00  0.00    +0.000 HD
ATOM     44  H   UNL     1     -11.146  -5.315  18.853  0.00  0.00    +0.000 HD
ATOM     45  H   UNL     1     -12.852  -3.213  18.990  0.00  0.00    +0.000 HD
ATOM     46  H   UNL     1     -12.884  -4.173  17.463  0.00  0.00    +0.000 HD
ENDROOT
BRANCH   6  47
ATOM     47  C   UNL     1     -10.524   3.211  16.158  0.00  0.00    +0.000 C 
ATOM     48  H   UNL     1     -10.757   4.248  16.459  0.00  0.00    +0.000 HD
ATOM     49  H   UNL     1     -10.236   3.337  15.098  0.00  0.00    +0.000 HD
ATOM     50  H   UNL     1      -9.653   2.892  16.716  0.00  0.00    +0.000 HD
ENDBRANCH   6  47
BRANCH   2  51
ATOM     51  N   UNL     1     -15.571   2.823  15.780  0.00  0.00    +0.000 N 
ATOM     52  C   UNL     1     -16.275   4.026  15.629  0.00  0.00    +0.000 C 
ATOM     53  O   UNL     1     -17.163   4.130  14.762  0.00  0.00    +0.000 OA
BRANCH  51  54
ATOM     54  C   UNL     1     -16.258   1.685  15.170  0.00  0.00    +0.000 C 
ATOM     55  H   UNL     1     -15.547   0.923  14.827  0.00  0.00    +0.000 HD
ATOM     56  H   UNL     1     -16.836   1.999  14.298  0.00  0.00    +0.000 HD
ATOM     57  H   UNL     1     -16.930   1.233  15.906  0.00  0.00    +0.000 HD
ENDBRANCH  51  54
BRANCH  52  58
ATOM     58  C   UNL     1     -15.995   5.197  16.538  0.00  0.00    +0.000 C 
ATOM     59  H   UNL     1     -15.124   5.770  16.215  0.00  0.00    +0.000 HD
ATOM     60  H   UNL     1     -15.760   4.773  17.522  0.00  0.00    +0.000 HD
BRANCH  58  61
ATOM     61  N   UNL     1     -17.208   6.022  16.647  0.00  0.00    +0.000 NA
ATOM     62  H   UNL     1     -17.077   6.820  16.014  0.00  0.00    +0.000 HD
ATOM     63  H   UNL     1     -17.979   5.492  16.245  0.00  0.00    +0.000 HD
ENDBRANCH  58  61
ENDBRANCH  52  58
ENDBRANCH   2  51
BRANCH   1  64
ATOM     64  O   UNL     1     -13.102   2.745  14.153  0.00  0.00    +0.000 OA
BRANCH  64  65
ATOM     65  C   UNL     1     -13.077   3.978  13.407  0.00  0.00    +0.000 C 
ATOM     66  H   UNL     1     -13.458   4.810  14.003  0.00  0.00    +0.000 HD
ATOM     67  H   UNL     1     -13.681   3.868  12.504  0.00  0.00    +0.000 HD
ATOM     68  H   UNL     1     -12.066   4.210  13.054  0.00  0.00    +0.000 HD
ENDBRANCH  64  65
ENDBRANCH   1  64
TORSDOF 7
ENDMDL
MODEL 9
REMARK VINA RESULT:    -5.659      7.966     12.234
REMARK INTER + INTRA:          -8.349
REMARK INTER:                  -7.937
REMARK INTRA:                  -0.412
REMARK UNBOUND:                -1.037
REMARK  Name = 
REMARK  7 active torsions:
REMARK  status: ('A' for Active; 'I' for Inactive)
REMARK    1  A    between atoms: C_1  and  O_2
REMARK    2  A    between atoms: O_2  and  C_3
REMARK    3  A    between atoms: C_4  and  N_5
REMARK    4  A    between atoms: N_5  and  C_6
REMARK    5  A    between atoms: C_7  and  C_9
REMARK    6  A    between atoms: C_9  and  N_10
REMARK    7  A    between atoms: C_14  and  C_15
REMARK                            x       y       z     vdW  Elec       q    Type
REMARK                         _______ _______ _______ _____ _____    ______ ____
ROOT
ATOM      1  C   UNL     1     -17.056   3.530  11.779  0.00  0.00    +0.000 C 
ATOM      2  C   UNL     1     -17.551   2.077  12.202  0.00  0.00    +0.000 C 
ATOM      3  C   UNL     1     -18.326   1.250  11.036  0.00  0.00    +0.000 C 
ATOM      4  C   UNL     1     -17.422   1.234   9.640  0.00  0.00    +0.000 C 
ATOM      5  O   UNL     1     -16.513   2.287   9.885  0.00  0.00    +0.000 OA
ATOM      6  C   UNL     1     -17.136   3.597  10.251  0.00  0.00    +0.000 C 
ATOM      7  N   UNL     1     -18.557   3.823   9.793  0.00  0.00    +0.000 N 
ATOM      8  C   UNL     1     -19.802   4.481  10.196  0.00  0.00    +0.000 A 
ATOM      9  C   UNL     1     -20.194   5.431  11.132  0.00  0.00    +0.000 A 
ATOM     10  C   UNL     1     -21.448   6.071  11.016  0.00  0.00    +0.000 A 
ATOM     11  C   UNL     1     -22.349   5.800  10.010  0.00  0.00    +0.000 A 
ATOM     12  C   UNL     1     -22.104   4.718   9.184  0.00  0.00    +0.000 A 
ATOM     13  C   UNL     1     -20.919   3.989   9.339  0.00  0.00    +0.000 A 
ATOM     14  C   UNL     1     -20.493   2.813   8.730  0.00  0.00    +0.000 A 
ATOM     15  C   UNL     1     -21.181   2.311   7.623  0.00  0.00    +0.000 A 
ATOM     16  C   UNL     1     -20.539   2.493   6.392  0.00  0.00    +0.000 A 
ATOM     17  C   UNL     1     -19.107   2.658   6.573  0.00  0.00    +0.000 A 
ATOM     18  C   UNL     1     -18.325   1.675   5.939  0.00  0.00    +0.000 A 
ATOM     19  C   UNL     1     -18.380   1.137   4.642  0.00  0.00    +0.000 A 
ATOM     20  C   UNL     1     -17.926  -0.170   4.560  0.00  0.00    +0.000 A 
ATOM     21  C   UNL     1     -17.080  -0.668   5.543  0.00  0.00    +0.000 A 
ATOM     22  C   UNL     1     -16.484   0.160   6.510  0.00  0.00    +0.000 A 
ATOM     23  C   UNL     1     -17.453   1.058   6.959  0.00  0.00    +0.000 A 
ATOM     24  N   UNL     1     -17.778   1.503   8.240  0.00  0.00    +0.000 N 
ATOM     25  C   UNL     1     -18.469   2.586   7.830  0.00  0.00    +0.000 A 
ATOM     26  C   UNL     1     -19.165   3.084   8.847  0.00  0.00    +0.000 A 
ATOM     27  C   UNL     1     -21.457   2.073   5.382  0.00  0.00    +0.000 C 
ATOM     28  O   UNL     1     -21.519   2.252   4.168  0.00  0.00    +0.000 OA
ATOM     29  N   UNL     1     -22.478   1.431   6.107  0.00  0.00    +0.000 N 
ATOM     30  C   UNL     1     -22.251   1.329   7.532  0.00  0.00    +0.000 C 
ATOM     31  H   UNL     1     -16.001   3.546  12.085  0.00  0.00    +0.000 HD
ATOM     32  H   UNL     1     -16.618   1.491  12.181  0.00  0.00    +0.000 HD
ATOM     33  H   UNL     1     -19.338   1.637  10.907  0.00  0.00    +0.000 HD
ATOM     34  H   UNL     1     -18.474   0.213  11.363  0.00  0.00    +0.000 HD
ATOM     35  H   UNL     1     -16.905   0.275   9.614  0.00  0.00    +0.000 HD
ATOM     36  H   UNL     1     -19.578   5.724  11.969  0.00  0.00    +0.000 HD
ATOM     37  H   UNL     1     -21.716   6.843  11.739  0.00  0.00    +0.000 HD
ATOM     38  H   UNL     1     -23.255   6.370   9.864  0.00  0.00    +0.000 HD
ATOM     39  H   UNL     1     -22.818   4.444   8.399  0.00  0.00    +0.000 HD
ATOM     40  H   UNL     1     -19.000   1.580   3.869  0.00  0.00    +0.000 HD
ATOM     41  H   UNL     1     -18.334  -0.807   3.788  0.00  0.00    +0.000 HD
ATOM     42  H   UNL     1     -16.921  -1.739   5.624  0.00  0.00    +0.000 HD
ATOM     43  H   UNL     1     -15.640   0.709   6.024  0.00  0.00    +0.000 HD
ATOM     44  H   UNL     1     -23.358   1.213   5.663  0.00  0.00    +0.000 HD
ATOM     45  H   UNL     1     -21.846   0.321   7.729  0.00  0.00    +0.000 HD
ATOM     46  H   UNL     1     -23.135   1.517   8.136  0.00  0.00    +0.000 HD
ENDROOT
BRANCH   6  47
ATOM     47  C   UNL     1     -15.973   4.401   9.618  0.00  0.00    +0.000 C 
ATOM     48  H   UNL     1     -16.329   5.365   9.213  0.00  0.00    +0.000 HD
ATOM     49  H   UNL     1     -15.634   3.878   8.704  0.00  0.00    +0.000 HD
ATOM     50  H   UNL     1     -15.111   4.601  10.241  0.00  0.00    +0.000 HD
ENDBRANCH   6  47
BRANCH   2  51
ATOM     51  N   UNL     1     -17.822   1.959  13.666  0.00  0.00    +0.000 N 
ATOM     52  C   UNL     1     -18.988   1.583  14.346  0.00  0.00    +0.000 C 
ATOM     53  O   UNL     1     -18.933   1.224  15.538  0.00  0.00    +0.000 OA
BRANCH  51  54
ATOM     54  C   UNL     1     -16.721   2.288  14.571  0.00  0.00    +0.000 C 
ATOM     55  H   UNL     1     -15.999   2.965  14.095  0.00  0.00    +0.000 HD
ATOM     56  H   UNL     1     -16.173   1.389  14.862  0.00  0.00    +0.000 HD
ATOM     57  H   UNL     1     -17.122   2.774  15.465  0.00  0.00    +0.000 HD
ENDBRANCH  51  54
BRANCH  52  58
ATOM     58  C   UNL     1     -20.330   1.642  13.660  0.00  0.00    +0.000 C 
ATOM     59  H   UNL     1     -20.247   1.496  12.581  0.00  0.00    +0.000 HD
ATOM     60  H   UNL     1     -20.713   2.657  13.822  0.00  0.00    +0.000 HD
BRANCH  58  61
ATOM     61  N   UNL     1     -21.239   0.677  14.294  0.00  0.00    +0.000 NA
ATOM     62  H   UNL     1     -20.759   0.328  15.132  0.00  0.00    +0.000 HD
ATOM     63  H   UNL     1     -22.042   1.195  14.649  0.00  0.00    +0.000 HD
ENDBRANCH  58  61
ENDBRANCH  52  58
ENDBRANCH   2  51
BRANCH   1  64
ATOM     64  O   UNL     1     -17.628   4.654  12.461  0.00  0.00    +0.000 OA
BRANCH  64  65
ATOM     65  C   UNL     1     -16.638   5.579  12.950  0.00  0.00    +0.000 C 
ATOM     66  H   UNL     1     -16.369   5.362  13.986  0.00  0.00    +0.000 HD
ATOM     67  H   UNL     1     -17.026   6.597  12.879  0.00  0.00    +0.000 HD
ATOM     68  H   UNL     1     -15.738   5.567  12.325  0.00  0.00    +0.000 HD
ENDBRANCH  64  65
ENDBRANCH   1  64
TORSDOF 7
ENDMDL
