REMARK  Name = 
REMARK  5 active torsions:
REMARK  status: ('A' for Active; 'I' for Inactive)
REMARK    1  A    between atoms: C_1  and  N_2
REMARK    2  A    between atoms: N_2  and  C_3
REMARK    3  A    between atoms: C_3  and  C_4
REMARK    4  A    between atoms: C_3  and  C_11
REMARK    5  A    between atoms: C_14  and  C_15
REMARK                            x       y       z     vdW  Elec       q    Type
REMARK                         _______ _______ _______ _____ _____    ______ ____
ROOT
ATOM      1  C   UNL     1      -1.030  -0.068  -0.209  0.00  0.00    +0.000 A 
ATOM      2  C   UNL     1      -0.355   1.020  -0.776  0.00  0.00    +0.000 A 
ATOM      3  C   UNL     1       1.040   1.094  -0.728  0.00  0.00    +0.000 A 
ATOM      4  C   UNL     1       1.815   0.080  -0.137  0.00  0.00    +0.000 A 
ATOM      5  C   UNL     1       1.124  -0.981   0.470  0.00  0.00    +0.000 A 
ATOM      6  C   UNL     1      -0.274  -1.053   0.443  0.00  0.00    +0.000 A 
ATOM      7  H   UNL     1      -0.903   1.814  -1.279  0.00  0.00    +0.000 HD
ATOM      8  H   UNL     1       1.520   1.960  -1.183  0.00  0.00    +0.000 HD
ATOM      9  H   UNL     1       1.678  -1.787   0.950  0.00  0.00    +0.000 HD
ATOM     10  H   UNL     1      -0.766  -1.902   0.911  0.00  0.00    +0.000 HD
ENDROOT
BRANCH   4  11
ATOM     11  C   UNL     1       3.285   0.105  -0.168  0.00  0.00    +0.000 A 
ATOM     12  N   UNL     1       3.977  -0.533   0.821  0.00  0.00    +0.000 NA
ATOM     13  C   UNL     1       5.329  -0.516   0.778  0.00  0.00    +0.000 A 
ATOM     14  N   UNL     1       6.124   0.054  -0.147  0.00  0.00    +0.000 NA
ATOM     15  C   UNL     1       5.394   0.649  -1.101  0.00  0.00    +0.000 A 
ATOM     16  N   UNL     1       5.868   1.311  -2.196  0.00  0.00    +0.000 N 
ATOM     17  C   UNL     1       4.791   1.751  -2.912  0.00  0.00    +0.000 A 
ATOM     18  N   UNL     1       3.656   1.418  -2.339  0.00  0.00    +0.000 NA
ATOM     19  C   UNL     1       4.014   0.726  -1.196  0.00  0.00    +0.000 A 
ATOM     20  H   UNL     1       5.835  -1.027   1.592  0.00  0.00    +0.000 HD
ATOM     21  H   UNL     1       6.842   1.439  -2.423  0.00  0.00    +0.000 HD
ATOM     22  H   UNL     1       4.892   2.306  -3.836  0.00  0.00    +0.000 HD
ENDBRANCH   4  11
BRANCH   1  23
ATOM     23  C   UNL     1      -2.550  -0.182  -0.343  0.00  0.00    +0.000 C 
ATOM     24  H   UNL     1      -2.922   0.658  -0.947  0.00  0.00    +0.000 HD
BRANCH  23  25
ATOM     25  C   UNL     1      -3.252  -0.038   1.020  0.00  0.00    +0.000 A 
ATOM     26  C   UNL     1      -4.180  -0.980   1.503  0.00  0.00    +0.000 A 
ATOM     27  C   UNL     1      -4.769  -0.834   2.764  0.00  0.00    +0.000 A 
ATOM     28  C   UNL     1      -4.443   0.259   3.560  0.00  0.00    +0.000 A 
ATOM     29 CL   UNL     1      -5.141   0.418   5.125  0.00  0.00    +0.000 Cl
ATOM     30  C   UNL     1      -3.555   1.223   3.096  0.00  0.00    +0.000 A 
ATOM     31  C   UNL     1      -2.977   1.083   1.829  0.00  0.00    +0.000 A 
ATOM     32  H   UNL     1      -4.460  -1.843   0.904  0.00  0.00    +0.000 HD
ATOM     33  H   UNL     1      -5.478  -1.579   3.115  0.00  0.00    +0.000 HD
ATOM     34  H   UNL     1      -3.301   2.081   3.712  0.00  0.00    +0.000 HD
ATOM     35  H   UNL     1      -2.291   1.855   1.485  0.00  0.00    +0.000 HD
ENDBRANCH  23  25
BRANCH  23  36
ATOM     36  N   UNL     1      -2.941  -1.421  -1.053  0.00  0.00    +0.000 NA
ATOM     37  H   UNL     1      -2.638  -2.214  -0.493  0.00  0.00    +0.000 HD
BRANCH  36  38
ATOM     38  C   UNL     1      -2.351  -1.546  -2.382  0.00  0.00    +0.000 C 
ATOM     39  H   UNL     1      -2.763  -2.435  -2.870  0.00  0.00    +0.000 HD
ATOM     40  H   UNL     1      -1.265  -1.684  -2.342  0.00  0.00    +0.000 HD
ATOM     41  H   UNL     1      -2.581  -0.684  -3.015  0.00  0.00    +0.000 HD
ENDBRANCH  36  38
ENDBRANCH  23  36
ENDBRANCH   1  23
TORSDOF 5
