REMARK  Name = 
REMARK  9 active torsions:
REMARK  status: ('A' for Active; 'I' for Inactive)
REMARK    1  A    between atoms: N_1  and  C_2
REMARK    2  A    between atoms: C_2  and  C_3
REMARK    3  A    between atoms: C_3  and  C_4
REMARK    4  A    between atoms: C_4  and  C_5
REMARK    5  A    between atoms: C_5  and  C_6
REMARK    6  A    between atoms: C_6  and  C_7
REMARK    7  A    between atoms: C_7  and  N_8
REMARK    8  A    between atoms: N_8  and  C_9
REMARK    9  A    between atoms: C_10  and  C_11
REMARK                            x       y       z     vdW  Elec       q    Type
REMARK                         _______ _______ _______ _____ _____    ______ ____
ROOT
ATOM      1  N   UNL     1       2.104  -0.483   0.081  0.00  0.00    +0.000 N 
ATOM      2  H   UNL     1       2.676  -1.039  -0.563  0.00  0.00    +0.000 HD
ENDROOT
BRANCH   1   3
ATOM      3  C   UNL     1       2.732   0.736   0.308  0.00  0.00    +0.000 C 
ATOM      4  C   UNL     1       2.493   1.728   1.178  0.00  0.00    +0.000 C 
ATOM      5  C   UNL     1       3.439   2.830   0.898  0.00  0.00    +0.000 C 
ATOM      6  O   UNL     1       3.471   3.923   1.430  0.00  0.00    +0.000 OA
ATOM      7  N   UNL     1       4.265   2.398  -0.080  0.00  0.00    +0.000 N 
ATOM      8  C   UNL     1       3.909   1.165  -0.498  0.00  0.00    +0.000 C 
ATOM      9  O   UNL     1       4.422   0.502  -1.382  0.00  0.00    +0.000 OA
ATOM     10  H   UNL     1       5.016   2.941  -0.469  0.00  0.00    +0.000 HD
BRANCH   4  11
ATOM     11  C   UNL     1       1.536   1.716   2.208  0.00  0.00    +0.000 A 
ATOM     12  C   UNL     1       0.754   2.689   2.790  0.00  0.00    +0.000 A 
ATOM     13  C   UNL     1       0.050   2.099   3.873  0.00  0.00    +0.000 A 
ATOM     14  C   UNL     1      -0.860   2.596   4.825  0.00  0.00    +0.000 A 
ATOM     15  C   UNL     1      -1.369   1.731   5.796  0.00  0.00    +0.000 A 
ATOM     16  C   UNL     1      -0.979   0.393   5.834  0.00  0.00    +0.000 A 
ATOM     17  C   UNL     1      -0.072  -0.122   4.901  0.00  0.00    +0.000 A 
ATOM     18  C   UNL     1       0.419   0.756   3.927  0.00  0.00    +0.000 A 
ATOM     19  N   UNL     1       1.301   0.541   2.893  0.00  0.00    +0.000 N 
ATOM     20  H   UNL     1       0.713   3.727   2.487  0.00  0.00    +0.000 HD
ATOM     21  H   UNL     1      -1.153   3.640   4.806  0.00  0.00    +0.000 HD
ATOM     22  H   UNL     1      -2.073   2.111   6.531  0.00  0.00    +0.000 HD
ATOM     23  H   UNL     1      -1.385  -0.260   6.602  0.00  0.00    +0.000 HD
ATOM     24  H   UNL     1       0.237  -1.162   4.941  0.00  0.00    +0.000 HD
ATOM     25  H   UNL     1       1.735  -0.347   2.678  0.00  0.00    +0.000 HD
ENDBRANCH   4  11
ENDBRANCH   1   3
BRANCH   1  26
ATOM     26  C   UNL     1       0.686  -0.506  -0.301  0.00  0.00    +0.000 C 
ATOM     27  H   UNL     1       0.120  -1.041   0.469  0.00  0.00    +0.000 HD
ATOM     28  H   UNL     1       0.278   0.512  -0.358  0.00  0.00    +0.000 HD
BRANCH  26  29
ATOM     29  C   UNL     1       0.501  -1.189  -1.655  0.00  0.00    +0.000 C 
ATOM     30  H   UNL     1       1.086  -0.666  -2.423  0.00  0.00    +0.000 HD
ATOM     31  H   UNL     1       0.883  -2.217  -1.611  0.00  0.00    +0.000 HD
BRANCH  29  32
ATOM     32  C   UNL     1      -0.977  -1.198  -2.042  0.00  0.00    +0.000 C 
ATOM     33  H   UNL     1      -1.554  -1.715  -1.266  0.00  0.00    +0.000 HD
ATOM     34  H   UNL     1      -1.350  -0.167  -2.087  0.00  0.00    +0.000 HD
BRANCH  32  35
ATOM     35  C   UNL     1      -1.207  -1.880  -3.388  0.00  0.00    +0.000 C 
ATOM     36  H   UNL     1      -0.636  -1.362  -4.167  0.00  0.00    +0.000 HD
ATOM     37  H   UNL     1      -0.839  -2.912  -3.345  0.00  0.00    +0.000 HD
BRANCH  35  38
ATOM     38  C   UNL     1      -2.693  -1.879  -3.752  0.00  0.00    +0.000 C 
ATOM     39  H   UNL     1      -3.263  -2.393  -2.967  0.00  0.00    +0.000 HD
ATOM     40  H   UNL     1      -3.060  -0.845  -3.790  0.00  0.00    +0.000 HD
BRANCH  38  41
ATOM     41  C   UNL     1      -2.925  -2.565  -5.095  0.00  0.00    +0.000 C 
ATOM     42  H   UNL     1      -2.363  -2.052  -5.883  0.00  0.00    +0.000 HD
ATOM     43  H   UNL     1      -2.572  -3.601  -5.053  0.00  0.00    +0.000 HD
BRANCH  41  44
ATOM     44  N   UNL     1      -4.343  -2.558  -5.428  0.00  0.00    +0.000 NA
ATOM     45  H   UNL     1      -4.476  -2.976  -6.348  0.00  0.00    +0.000 HD
ATOM     46  H   UNL     1      -4.675  -1.597  -5.502  0.00  0.00    +0.000 HD
ENDBRANCH  41  44
ENDBRANCH  38  41
ENDBRANCH  35  38
ENDBRANCH  32  35
ENDBRANCH  29  32
ENDBRANCH  26  29
ENDBRANCH   1  26
TORSDOF 9
