
 OpenBabel01112423013D

 72 79  0  0  1  0  0  0  0  0999 V2000
    3.2021   -3.4154   -0.8560 C   0  0  0  0  0  0  0  0  0  0  0  0
    1.8548   -3.0776   -1.1250 O   0  0  0  0  0  0  0  0  0  0  0  0
    1.5886   -1.8024   -1.7283 C   0  0  2  0  0  0  0  0  0  0  0  0
    2.1870   -0.5424   -1.0017 C   0  0  2  0  0  0  0  0  0  0  0  0
    2.3696   -0.5565    0.4579 N   0  0  0  0  0  0  0  0  0  0  0  0
    3.3448    0.3605    1.0419 C   0  0  0  0  0  0  0  0  0  0  0  0
    1.6906   -1.4575    1.2511 C   0  0  0  0  0  0  0  0  0  0  0  0
    0.5707   -1.8770    0.9924 O   0  0  0  0  0  0  0  0  0  0  0  0
    2.4276   -2.0051    2.4395 C   0  0  0  0  0  0  0  0  0  0  0  0
    1.6220   -1.6901    3.6767 C   0  0  0  0  0  0  0  0  0  0  0  0
    2.3563   -2.2233    4.8580 C   0  0  0  0  0  0  0  0  0  0  0  0
    3.3940   -1.7741    5.3143 O   0  0  0  0  0  0  0  0  0  0  0  0
    1.8084   -3.3474    5.3471 O   0  0  0  0  0  0  0  0  0  0  0  0
    1.5922    0.7725   -1.5035 C   0  0  0  0  0  0  0  0  0  0  0  0
    0.0906    0.7203   -1.6479 C   0  0  1  0  0  0  0  0  0  0  0  0
   -0.2473   -0.3149   -2.5638 O   0  0  0  0  0  0  0  0  0  0  0  0
    0.0722   -1.6694   -2.1544 C   0  0  1  0  0  0  0  0  0  0  0  0
   -0.1101   -2.4411   -3.4904 C   0  0  0  0  0  0  0  0  0  0  0  0
   -0.9561   -2.1288   -1.2224 N   0  0  0  0  0  0  0  0  0  0  0  0
   -1.5651   -3.4100   -1.0762 C   0  0  0  0  0  0  0  0  0  0  0  0
   -1.0464   -4.7155   -1.1332 C   0  0  0  0  0  0  0  0  0  0  0  0
   -1.9478   -5.7905   -1.2067 C   0  0  0  0  0  0  0  0  0  0  0  0
   -3.3195   -5.5819   -1.3063 C   0  0  0  0  0  0  0  0  0  0  0  0
   -3.8449   -4.3222   -1.0526 C   0  0  0  0  0  0  0  0  0  0  0  0
   -2.9666   -3.2567   -0.7719 C   0  0  0  0  0  0  0  0  0  0  0  0
   -3.1243   -1.9768   -0.2540 C   0  0  0  0  0  0  0  0  0  0  0  0
   -4.1153   -1.5580    0.6435 C   0  0  0  0  0  0  0  0  0  0  0  0
   -4.0616   -0.1822    0.9735 C   0  0  0  0  0  0  0  0  0  0  0  0
   -2.9181    0.4616    0.4244 C   0  0  0  0  0  0  0  0  0  0  0  0
   -2.4263    1.7307    0.7901 C   0  0  0  0  0  0  0  0  0  0  0  0
   -2.9731    2.8584    1.4343 C   0  0  0  0  0  0  0  0  0  0  0  0
   -2.1537    3.9258    1.7998 C   0  0  0  0  0  0  0  0  0  0  0  0
   -0.7837    3.8691    1.5817 C   0  0  0  0  0  0  0  0  0  0  0  0
   -0.2065    2.8107    0.8723 C   0  0  0  0  0  0  0  0  0  0  0  0
   -1.0309    1.7749    0.3988 C   0  0  0  0  0  0  0  0  0  0  0  0
   -0.7149    0.6823   -0.4407 N   0  0  0  0  0  0  0  0  0  0  0  0
   -1.8354   -0.0510   -0.2827 C   0  0  0  0  0  0  0  0  0  0  0  0
   -1.9334   -1.3780   -0.6589 C   0  0  0  0  0  0  0  0  0  0  0  0
   -4.9893    0.0938    2.0091 C   0  0  0  0  0  0  0  0  0  0  0  0
   -5.3672    1.1124    2.5702 O   0  0  0  0  0  0  0  0  0  0  0  0
   -5.4120   -1.1789    2.4077 N   0  0  0  0  0  0  0  0  0  0  0  0
   -4.9016   -2.2983    1.6200 C   0  0  0  0  0  0  0  0  0  0  0  0
    3.6560   -3.8779   -1.7344 H   0  0  0  0  0  0  0  0  0  0  0  0
    3.8065   -2.5681   -0.5284 H   0  0  0  0  0  0  0  0  0  0  0  0
    3.1960   -4.1514   -0.0451 H   0  0  0  0  0  0  0  0  0  0  0  0
    2.1422   -1.8184   -2.6814 H   0  0  0  0  0  0  0  0  0  0  0  0
    3.2323   -0.5159   -1.3488 H   0  0  0  0  0  0  0  0  0  0  0  0
    3.0556    0.5993    2.0700 H   0  0  0  0  0  0  0  0  0  0  0  0
    3.3887    1.2976    0.4834 H   0  0  0  0  0  0  0  0  0  0  0  0
    4.3315   -0.1073    1.0291 H   0  0  0  0  0  0  0  0  0  0  0  0
    2.5194   -3.0898    2.2933 H   0  0  0  0  0  0  0  0  0  0  0  0
    3.4549   -1.6379    2.5097 H   0  0  0  0  0  0  0  0  0  0  0  0
    1.4779   -0.6111    3.7972 H   0  0  0  0  0  0  0  0  0  0  0  0
    0.6222   -2.1362    3.6203 H   0  0  0  0  0  0  0  0  0  0  0  0
    2.4164   -3.6238    6.0622 H   0  0  0  0  0  0  0  0  0  0  0  0
    2.0005    0.9509   -2.5085 H   0  0  0  0  0  0  0  0  0  0  0  0
    1.8864    1.6324   -0.9040 H   0  0  0  0  0  0  0  0  0  0  0  0
   -0.2207    1.6441   -2.1458 H   0  0  0  0  0  0  0  0  0  0  0  0
   -1.1503   -2.3841   -3.8373 H   0  0  0  0  0  0  0  0  0  0  0  0
    0.4905   -1.9813   -4.2851 H   0  0  0  0  0  0  0  0  0  0  0  0
    0.1747   -3.4940   -3.4156 H   0  0  0  0  0  0  0  0  0  0  0  0
    0.0224   -4.8969   -1.0801 H   0  0  0  0  0  0  0  0  0  0  0  0
   -1.5695   -6.8093   -1.2168 H   0  0  0  0  0  0  0  0  0  0  0  0
   -3.9917   -6.4051   -1.5281 H   0  0  0  0  0  0  0  0  0  0  0  0
   -4.9164   -4.1460   -1.0902 H   0  0  0  0  0  0  0  0  0  0  0  0
   -4.0387    2.9108    1.6393 H   0  0  0  0  0  0  0  0  0  0  0  0
   -2.5965    4.7914    2.2851 H   0  0  0  0  0  0  0  0  0  0  0  0
   -0.1534    4.6717    1.9548 H   0  0  0  0  0  0  0  0  0  0  0  0
    0.8684    2.7868    0.7290 H   0  0  0  0  0  0  0  0  0  0  0  0
   -5.6753   -1.2703    3.3793 H   0  0  0  0  0  0  0  0  0  0  0  0
   -5.7260   -2.8703    1.1978 H   0  0  0  0  0  0  0  0  0  0  0  0
   -4.2666   -2.9113    2.2695 H   0  0  0  0  0  0  0  0  0  0  0  0
  1  2  1  0  0  0  0
  1 43  1  0  0  0  0
  1 44  1  0  0  0  0
  1 45  1  0  0  0  0
  2  3  1  0  0  0  0
  3  4  1  0  0  0  0
  3 17  1  0  0  0  0
  3 46  1  6  0  0  0
  4  5  1  0  0  0  0
  4 14  1  0  0  0  0
  4 47  1  6  0  0  0
  5  6  1  0  0  0  0
  5  7  1  0  0  0  0
  6 48  1  0  0  0  0
  6 49  1  0  0  0  0
  6 50  1  0  0  0  0
  7  8  2  0  0  0  0
  7  9  1  0  0  0  0
  9 10  1  0  0  0  0
  9 51  1  0  0  0  0
  9 52  1  0  0  0  0
 10 11  1  0  0  0  0
 10 53  1  0  0  0  0
 10 54  1  0  0  0  0
 11 12  2  0  0  0  0
 11 13  1  0  0  0  0
 13 55  1  0  0  0  0
 14 15  1  0  0  0  0
 14 56  1  0  0  0  0
 14 57  1  0  0  0  0
 15 16  1  0  0  0  0
 15 36  1  0  0  0  0
 15 58  1  6  0  0  0
 16 17  1  0  0  0  0
 17 18  1  6  0  0  0
 17 19  1  0  0  0  0
 18 59  1  0  0  0  0
 18 60  1  0  0  0  0
 18 61  1  0  0  0  0
 19 20  1  0  0  0  0
 19 38  1  0  0  0  0
 20 21  1  0  0  0  0
 20 25  2  0  0  0  0
 21 22  2  0  0  0  0
 21 62  1  0  0  0  0
 22 23  1  0  0  0  0
 22 63  1  0  0  0  0
 23 24  2  0  0  0  0
 23 64  1  0  0  0  0
 24 25  1  0  0  0  0
 24 65  1  0  0  0  0
 25 26  1  0  0  0  0
 26 27  1  0  0  0  0
 26 38  2  0  0  0  0
 27 28  2  0  0  0  0
 27 42  1  0  0  0  0
 28 29  1  0  0  0  0
 28 39  1  0  0  0  0
 29 30  1  0  0  0  0
 29 37  2  0  0  0  0
 30 31  1  0  0  0  0
 30 35  2  0  0  0  0
 31 32  2  0  0  0  0
 31 66  1  0  0  0  0
 32 33  1  0  0  0  0
 32 67  1  0  0  0  0
 33 34  2  0  0  0  0
 33 68  1  0  0  0  0
 34 35  1  0  0  0  0
 34 69  1  0  0  0  0
 35 36  1  0  0  0  0
 36 37  1  0  0  0  0
 37 38  1  0  0  0  0
 39 40  2  0  0  0  0
 39 41  1  0  0  0  0
 41 42  1  0  0  0  0
 41 70  1  0  0  0  0
 42 71  1  0  0  0  0
 42 72  1  0  0  0  0
M  END
$$$$
