REMARK  Name = 
REMARK  8 active torsions:
REMARK  status: ('A' for Active; 'I' for Inactive)
REMARK    1  A    between atoms: C_1  and  C_2
REMARK    2  A    between atoms: C_8  and  C_9
REMARK    3  A    between atoms: C_13  and  O_14
REMARK    4  A    between atoms: O_14  and  C_15
REMARK    5  A    between atoms: C_15  and  C_16
REMARK    6  A    between atoms: C_16  and  N_17
REMARK    7  A    between atoms: C_16  and  C_18
REMARK    8  A    between atoms: C_18  and  C_19
REMARK                            x       y       z     vdW  Elec       q    Type
REMARK                         _______ _______ _______ _____ _____    ______ ____
ROOT
ATOM      1  C   UNL     1       1.857   1.475   2.307  0.00  0.00    +0.000 A 
ATOM      2  C   UNL     1       2.351   0.645   3.312  0.00  0.00    +0.000 A 
ATOM      3  N   UNL     1       2.164  -0.700   3.369  0.00  0.00    +0.000 NA
ATOM      4  C   UNL     1       1.451  -1.261   2.364  0.00  0.00    +0.000 A 
ATOM      5  C   UNL     1       0.931  -0.546   1.299  0.00  0.00    +0.000 A 
ATOM      6  C   UNL     1       1.153   0.829   1.279  0.00  0.00    +0.000 A 
ATOM      7  H   UNL     1       2.923   1.056   4.142  0.00  0.00    +0.000 HD
ATOM      8  H   UNL     1       1.321  -2.333   2.466  0.00  0.00    +0.000 HD
ATOM      9  H   UNL     1       0.766   1.395   0.434  0.00  0.00    +0.000 HD
ENDROOT
BRANCH   1  16
ATOM     10  C   UNL     1       0.725   6.351   1.375  0.00  0.00    +0.000 A 
ATOM     11  N   UNL     1       1.430   7.445   1.688  0.00  0.00    +0.000 NA
ATOM     12  N   UNL     1       2.513   6.960   2.323  0.00  0.00    +0.000 N 
ATOM     13  C   UNL     1       2.532   5.598   2.433  0.00  0.00    +0.000 A 
ATOM     14  C   UNL     1       3.433   4.716   3.003  0.00  0.00    +0.000 A 
ATOM     15  N   UNL     1       3.168   3.386   2.946  0.00  0.00    +0.000 NA
ATOM     16  C   UNL     1       2.042   2.935   2.332  0.00  0.00    +0.000 A 
ATOM     17  C   UNL     1       1.104   3.797   1.760  0.00  0.00    +0.000 A 
ATOM     18  C   UNL     1       1.370   5.167   1.813  0.00  0.00    +0.000 A 
ATOM     19  H   UNL     1       3.204   7.621   2.659  0.00  0.00    +0.000 HD
ATOM     20  H   UNL     1       4.348   5.019   3.497  0.00  0.00    +0.000 HD
ATOM     21  H   UNL     1       0.193   3.436   1.298  0.00  0.00    +0.000 HD
BRANCH  10  22
ATOM     22  C   UNL     1      -0.568   6.453   0.653  0.00  0.00    +0.000 C 
ATOM     23  H   UNL     1      -0.830   7.492   0.433  0.00  0.00    +0.000 HD
ATOM     24  H   UNL     1      -1.373   6.019   1.256  0.00  0.00    +0.000 HD
ATOM     25  H   UNL     1      -0.518   5.907  -0.294  0.00  0.00    +0.000 HD
ENDBRANCH  10  22
ENDBRANCH   1  16
BRANCH   5  26
ATOM     26  O   UNL     1       0.209  -1.016   0.245  0.00  0.00    +0.000 OA
BRANCH  26  27
ATOM     27  C   UNL     1      -0.082  -2.415   0.211  0.00  0.00    +0.000 C 
ATOM     28  H   UNL     1      -0.683  -2.690   1.086  0.00  0.00    +0.000 HD
ATOM     29  H   UNL     1       0.851  -2.993   0.206  0.00  0.00    +0.000 HD
BRANCH  27  30
ATOM     30  C   UNL     1      -0.885  -2.698  -1.082  0.00  0.00    +0.000 C 
ATOM     31  H   UNL     1      -1.776  -2.058  -1.076  0.00  0.00    +0.000 HD
BRANCH  30  32
ATOM     32  N   UNL     1      -0.099  -2.311  -2.273  0.00  0.00    +0.000 NA
ATOM     33  H   UNL     1       0.794  -2.801  -2.276  0.00  0.00    +0.000 HD
ATOM     34  H   UNL     1       0.139  -1.321  -2.177  0.00  0.00    +0.000 HD
ENDBRANCH  30  32
BRANCH  30  35
ATOM     35  C   UNL     1      -1.305  -4.182  -1.132  0.00  0.00    +0.000 C 
ATOM     36  H   UNL     1      -1.918  -4.419  -0.253  0.00  0.00    +0.000 HD
ATOM     37  H   UNL     1      -0.408  -4.811  -1.049  0.00  0.00    +0.000 HD
BRANCH  35  38
ATOM     38  C   UNL     1      -2.086  -4.585  -2.362  0.00  0.00    +0.000 A 
ATOM     39  C   UNL     1      -1.585  -5.570  -3.229  0.00  0.00    +0.000 A 
ATOM     40  C   UNL     1      -2.301  -5.952  -4.368  0.00  0.00    +0.000 A 
ATOM     41  C   UNL     1      -3.526  -5.352  -4.657  0.00  0.00    +0.000 A 
ATOM     42  C   UNL     1      -4.030  -4.381  -3.799  0.00  0.00    +0.000 A 
ATOM     43  F   UNL     1      -5.213  -3.814  -4.076  0.00  0.00    +0.000 F 
ATOM     44  C   UNL     1      -3.324  -4.005  -2.659  0.00  0.00    +0.000 A 
ATOM     45  F   UNL     1      -3.849  -3.090  -1.831  0.00  0.00    +0.000 F 
ATOM     46  H   UNL     1      -0.627  -6.045  -3.026  0.00  0.00    +0.000 HD
ATOM     47  H   UNL     1      -1.899  -6.715  -5.031  0.00  0.00    +0.000 HD
ATOM     48  H   UNL     1      -4.089  -5.636  -5.540  0.00  0.00    +0.000 HD
ENDBRANCH  35  38
ENDBRANCH  30  35
ENDBRANCH  27  30
ENDBRANCH  26  27
ENDBRANCH   5  26
TORSDOF 8
