REMARK  Name = 
REMARK  6 active torsions:
REMARK  status: ('A' for Active; 'I' for Inactive)
REMARK    1  A    between atoms: C_1  and  O_2
REMARK    2  A    between atoms: O_2  and  C_3
REMARK    3  A    between atoms: N_17  and  C_18
REMARK    4  A    between atoms: N_21  and  C_22
REMARK    5  A    between atoms: C_22  and  C_23
REMARK    6  A    between atoms: C_23  and  O_24
REMARK                            x       y       z     vdW  Elec       q    Type
REMARK                         _______ _______ _______ _____ _____    ______ ____
ROOT
ATOM      1  C   UNL     1      -2.713   0.829  -3.738  0.00  0.00    +0.000 A 
ATOM      2  C   UNL     1      -3.095  -0.423  -3.278  0.00  0.00    +0.000 A 
ATOM      3  C   UNL     1      -2.514  -0.960  -2.126  0.00  0.00    +0.000 A 
ATOM      4  C   UNL     1      -1.560  -0.214  -1.401  0.00  0.00    +0.000 A 
ATOM      5  C   UNL     1      -0.895  -0.317  -0.187  0.00  0.00    +0.000 A 
ATOM      6  C   UNL     1      -0.980  -1.433   0.675  0.00  0.00    +0.000 A 
ATOM      7  C   UNL     1      -0.566  -1.229   2.004  0.00  0.00    +0.000 A 
ATOM      8  C   UNL     1       0.374  -0.270   2.377  0.00  0.00    +0.000 A 
ATOM      9  C   UNL     1       0.671   0.708   1.349  0.00  0.00    +0.000 A 
ATOM     10  C   UNL     1       1.878   1.393   1.416  0.00  0.00    +0.000 A 
ATOM     11  C   UNL     1       2.925   0.809   2.121  0.00  0.00    +0.000 A 
ATOM     12  C   UNL     1       2.688  -0.433   2.730  0.00  0.00    +0.000 A 
ATOM     13  C   UNL     1       2.735  -1.830   2.250  0.00  0.00    +0.000 A 
ATOM     14  C   UNL     1       2.129  -2.600   3.238  0.00  0.00    +0.000 A 
ATOM     15  N   UNL     1       1.783  -1.634   4.184  0.00  0.00    +0.000 N 
ATOM     16  C   UNL     1       1.413  -0.546   3.342  0.00  0.00    +0.000 A 
ATOM     17  C   UNL     1      -0.094   0.750   0.145  0.00  0.00    +0.000 A 
ATOM     18  N   UNL     1      -0.134   1.527  -1.027  0.00  0.00    +0.000 N 
ATOM     19  C   UNL     1      -1.126   1.030  -1.901  0.00  0.00    +0.000 A 
ATOM     20  C   UNL     1      -1.688   1.542  -3.097  0.00  0.00    +0.000 A 
ATOM     21  C   UNL     1      -0.993  -2.407   2.716  0.00  0.00    +0.000 C 
ATOM     22  O   UNL     1      -1.557  -2.558   3.764  0.00  0.00    +0.000 OA
ATOM     23  N   UNL     1      -0.892  -3.377   1.733  0.00  0.00    +0.000 N 
ATOM     24  C   UNL     1      -1.198  -2.836   0.497  0.00  0.00    +0.000 C 
ATOM     25  O   UNL     1      -1.425  -3.532  -0.484  0.00  0.00    +0.000 OA
ATOM     26  H   UNL     1      -3.841  -1.008  -3.800  0.00  0.00    +0.000 HD
ATOM     27  H   UNL     1      -2.851  -1.932  -1.776  0.00  0.00    +0.000 HD
ATOM     28  H   UNL     1       2.118   2.258   0.822  0.00  0.00    +0.000 HD
ATOM     29  H   UNL     1       3.892   1.286   2.185  0.00  0.00    +0.000 HD
ATOM     30  H   UNL     1       3.035  -2.180   1.273  0.00  0.00    +0.000 HD
ATOM     31  H   UNL     1       1.927  -3.650   3.417  0.00  0.00    +0.000 HD
ATOM     32  H   UNL     1      -1.391   2.493  -3.524  0.00  0.00    +0.000 HD
ATOM     33  H   UNL     1       0.084  -3.651   1.677  0.00  0.00    +0.000 HD
ENDROOT
BRANCH  15  34
ATOM     34  C   UNL     1       2.747  -1.497   5.304  0.00  0.00    +0.000 C 
ATOM     35  H   UNL     1       2.693  -2.400   5.915  0.00  0.00    +0.000 HD
ATOM     36  H   UNL     1       2.538  -0.594   5.878  0.00  0.00    +0.000 HD
ATOM     37  H   UNL     1       3.765  -1.433   4.883  0.00  0.00    +0.000 HD
ENDBRANCH  15  34
BRANCH  18  38
ATOM     38  C   UNL     1       0.623   2.759  -1.226  0.00  0.00    +0.000 C 
ATOM     39  H   UNL     1       0.726   3.241  -0.249  0.00  0.00    +0.000 HD
ATOM     40  H   UNL     1       0.013   3.440  -1.831  0.00  0.00    +0.000 HD
BRANCH  38  41
ATOM     41  C   UNL     1       2.011   2.675  -1.870  0.00  0.00    +0.000 C 
ATOM     42  H   UNL     1       1.974   2.266  -2.886  0.00  0.00    +0.000 HD
ATOM     43  H   UNL     1       2.703   2.067  -1.276  0.00  0.00    +0.000 HD
BRANCH  41  44
ATOM     44  O   UNL     1       2.596   3.980  -1.949  0.00  0.00    +0.000 OA
ATOM     45  H   UNL     1       2.277   4.405  -2.765  0.00  0.00    +0.000 HD
ENDBRANCH  41  44
ENDBRANCH  38  41
ENDBRANCH  18  38
BRANCH   1  46
ATOM     46  O   UNL     1      -3.262   1.437  -4.839  0.00  0.00    +0.000 OA
BRANCH  46  47
ATOM     47  C   UNL     1      -4.616   1.070  -5.099  0.00  0.00    +0.000 C 
ATOM     48  H   UNL     1      -4.976   1.682  -5.932  0.00  0.00    +0.000 HD
ATOM     49  H   UNL     1      -5.253   1.273  -4.230  0.00  0.00    +0.000 HD
ATOM     50  H   UNL     1      -4.697   0.025  -5.406  0.00  0.00    +0.000 HD
ENDBRANCH  46  47
ENDBRANCH   1  46
TORSDOF 6
