MODEL 1
REMARK VINA RESULT:    -9.853      0.000      0.000
REMARK INTER + INTRA:         -12.919
REMARK INTER:                 -12.446
REMARK INTRA:                  -0.473
REMARK UNBOUND:                -0.473
REMARK  Name = 
REMARK  5 active torsions:
REMARK  status: ('A' for Active; 'I' for Inactive)
REMARK    1  A    between atoms: C_1  and  S_2
REMARK    2  A    between atoms: S_2  and  C_4
REMARK    3  A    between atoms: C_7  and  C_8
REMARK    4  A    between atoms: C_10  and  C_11
REMARK    5  A    between atoms: C_18  and  C_19
REMARK                            x       y       z     vdW  Elec       q    Type
REMARK                         _______ _______ _______ _____ _____    ______ ____
ROOT
ATOM      1  C   UNL     1      -9.331  -8.442  16.881  0.00  0.00    +0.000 A 
ATOM      2  N   UNL     1     -10.082  -7.627  16.161  0.00  0.00    +0.000 NA
ATOM      3  C   UNL     1     -10.016  -6.396  16.772  0.00  0.00    +0.000 A 
ATOM      4  C   UNL     1      -9.126  -6.422  17.847  0.00  0.00    +0.000 A 
ATOM      5  N   UNL     1      -8.741  -7.745  17.909  0.00  0.00    +0.000 N 
ATOM      6  H   UNL     1      -8.081  -8.136  18.559  0.00  0.00    +0.000 HD
ENDROOT
BRANCH   3   7
ATOM      7  C   UNL     1     -10.747  -5.239  16.265  0.00  0.00    +0.000 A 
ATOM      8  C   UNL     1     -11.809  -4.670  16.989  0.00  0.00    +0.000 A 
ATOM      9  C   UNL     1     -12.316  -3.416  16.645  0.00  0.00    +0.000 A 
ATOM     10  C   UNL     1     -11.853  -2.789  15.500  0.00  0.00    +0.000 A 
ATOM     11  F   UNL     1     -12.330  -1.581  15.175  0.00  0.00    +0.000 F 
ATOM     12  C   UNL     1     -10.902  -3.395  14.693  0.00  0.00    +0.000 A 
ATOM     13  C   UNL     1     -10.337  -4.617  15.079  0.00  0.00    +0.000 A 
ATOM     14  H   UNL     1     -12.196  -5.159  17.880  0.00  0.00    +0.000 HD
ATOM     15  H   UNL     1     -13.049  -2.926  17.281  0.00  0.00    +0.000 HD
ATOM     16  H   UNL     1     -10.577  -2.900  13.781  0.00  0.00    +0.000 HD
ATOM     17  H   UNL     1      -9.553  -5.065  14.469  0.00  0.00    +0.000 HD
ENDBRANCH   3   7
BRANCH   1  21
ATOM     18  C   UNL     1      -8.657 -12.619  16.173  0.00  0.00    +0.000 A 
ATOM     19  C   UNL     1      -8.663 -12.101  17.464  0.00  0.00    +0.000 A 
ATOM     20  C   UNL     1      -8.876 -10.738  17.688  0.00  0.00    +0.000 A 
ATOM     21  C   UNL     1      -9.087  -9.859  16.611  0.00  0.00    +0.000 A 
ATOM     22  C   UNL     1      -9.049 -10.383  15.311  0.00  0.00    +0.000 A 
ATOM     23  C   UNL     1      -8.834 -11.745  15.095  0.00  0.00    +0.000 A 
ATOM     24  H   UNL     1      -8.503 -12.747  18.335  0.00  0.00    +0.000 HD
ATOM     25  H   UNL     1      -8.882 -10.349  18.705  0.00  0.00    +0.000 HD
ATOM     26  H   UNL     1      -9.160  -9.733  14.443  0.00  0.00    +0.000 HD
ATOM     27  H   UNL     1      -8.797 -12.127  14.072  0.00  0.00    +0.000 HD
BRANCH  18  28
ATOM     28  S   UNL     1      -8.371 -14.383  15.897  0.00  0.00    +0.000 S 
ATOM     29  O   UNL     1      -9.230 -14.799  14.649  0.00  0.00    +0.000 OA
BRANCH  28  30
ATOM     30  C   UNL     1      -9.222 -15.004  17.370  0.00  0.00    +0.000 C 
ATOM     31  H   UNL     1      -9.744 -14.170  17.846  0.00  0.00    +0.000 HD
ATOM     32  H   UNL     1      -8.497 -15.425  18.072  0.00  0.00    +0.000 HD
ATOM     33  H   UNL     1      -9.955 -15.762  17.086  0.00  0.00    +0.000 HD
ENDBRANCH  28  30
ENDBRANCH  18  28
ENDBRANCH   1  21
BRANCH   4  34
ATOM     34  C   UNL     1      -8.643  -5.397  18.786  0.00  0.00    +0.000 A 
ATOM     35  C   UNL     1      -7.619  -5.674  19.692  0.00  0.00    +0.000 A 
ATOM     36  C   UNL     1      -7.336  -4.744  20.682  0.00  0.00    +0.000 A 
ATOM     37  N   UNL     1      -8.005  -3.579  20.840  0.00  0.00    +0.000 NA
ATOM     38  C   UNL     1      -8.958  -3.310  19.932  0.00  0.00    +0.000 A 
ATOM     39  C   UNL     1      -9.262  -4.146  18.871  0.00  0.00    +0.000 A 
ATOM     40  H   UNL     1      -7.071  -6.608  19.681  0.00  0.00    +0.000 HD
ATOM     41  H   UNL     1      -6.554  -4.921  21.414  0.00  0.00    +0.000 HD
ATOM     42  H   UNL     1      -9.516  -2.390  20.091  0.00  0.00    +0.000 HD
ATOM     43  H   UNL     1     -10.035  -3.840  18.171  0.00  0.00    +0.000 HD
ENDBRANCH   4  34
TORSDOF 5
ENDMDL
MODEL 2
REMARK VINA RESULT:    -9.689      1.855      3.856
REMARK INTER + INTRA:         -12.711
REMARK INTER:                 -11.768
REMARK INTRA:                  -0.943
REMARK UNBOUND:                -0.473
REMARK  Name = 
REMARK  5 active torsions:
REMARK  status: ('A' for Active; 'I' for Inactive)
REMARK    1  A    between atoms: C_1  and  S_2
REMARK    2  A    between atoms: S_2  and  C_4
REMARK    3  A    between atoms: C_7  and  C_8
REMARK    4  A    between atoms: C_10  and  C_11
REMARK    5  A    between atoms: C_18  and  C_19
REMARK                            x       y       z     vdW  Elec       q    Type
REMARK                         _______ _______ _______ _____ _____    ______ ____
ROOT
ATOM      1  C   UNL     1      -9.524  -7.945  16.431  0.00  0.00    +0.000 A 
ATOM      2  N   UNL     1      -9.692  -7.236  17.534  0.00  0.00    +0.000 NA
ATOM      3  C   UNL     1      -9.944  -5.945  17.130  0.00  0.00    +0.000 A 
ATOM      4  C   UNL     1     -10.029  -5.866  15.739  0.00  0.00    +0.000 A 
ATOM      5  N   UNL     1      -9.718  -7.146  15.329  0.00  0.00    +0.000 N 
ATOM      6  H   UNL     1      -9.699  -7.471  14.378  0.00  0.00    +0.000 HD
ENDROOT
BRANCH   3   7
ATOM      7  C   UNL     1     -10.161  -4.863  18.086  0.00  0.00    +0.000 A 
ATOM      8  C   UNL     1      -9.103  -4.336  18.847  0.00  0.00    +0.000 A 
ATOM      9  C   UNL     1      -9.253  -3.137  19.543  0.00  0.00    +0.000 A 
ATOM     10  C   UNL     1     -10.498  -2.530  19.587  0.00  0.00    +0.000 A 
ATOM     11  F   UNL     1     -10.641  -1.373  20.244  0.00  0.00    +0.000 F 
ATOM     12  C   UNL     1     -11.591  -3.104  18.956  0.00  0.00    +0.000 A 
ATOM     13  C   UNL     1     -11.424  -4.267  18.193  0.00  0.00    +0.000 A 
ATOM     14  H   UNL     1      -8.125  -4.812  18.838  0.00  0.00    +0.000 HD
ATOM     15  H   UNL     1      -8.398  -2.670  20.025  0.00  0.00    +0.000 HD
ATOM     16  H   UNL     1     -12.566  -2.629  19.031  0.00  0.00    +0.000 HD
ATOM     17  H   UNL     1     -12.274  -4.687  17.657  0.00  0.00    +0.000 HD
ENDBRANCH   3   7
BRANCH   1  21
ATOM     18  C   UNL     1      -8.648 -12.134  16.141  0.00  0.00    +0.000 A 
ATOM     19  C   UNL     1      -8.744 -11.340  15.003  0.00  0.00    +0.000 A 
ATOM     20  C   UNL     1      -9.037  -9.977  15.103  0.00  0.00    +0.000 A 
ATOM     21  C   UNL     1      -9.243  -9.379  16.359  0.00  0.00    +0.000 A 
ATOM     22  C   UNL     1      -9.175 -10.193  17.499  0.00  0.00    +0.000 A 
ATOM     23  C   UNL     1      -8.884 -11.553  17.391  0.00  0.00    +0.000 A 
ATOM     24  H   UNL     1      -8.591 -11.761  14.003  0.00  0.00    +0.000 HD
ATOM     25  H   UNL     1      -9.104  -9.368  14.203  0.00  0.00    +0.000 HD
ATOM     26  H   UNL     1      -9.374  -9.784  18.490  0.00  0.00    +0.000 HD
ATOM     27  H   UNL     1      -8.849 -12.168  18.294  0.00  0.00    +0.000 HD
BRANCH  18  28
ATOM     28  S   UNL     1      -8.278 -13.899  15.995  0.00  0.00    +0.000 S 
ATOM     29  O   UNL     1      -9.235 -14.480  14.892  0.00  0.00    +0.000 OA
BRANCH  28  30
ATOM     30  C   UNL     1      -8.930 -14.420  17.603  0.00  0.00    +0.000 C 
ATOM     31  H   UNL     1      -9.565 -13.622  17.994  0.00  0.00    +0.000 HD
ATOM     32  H   UNL     1      -8.106 -14.602  18.299  0.00  0.00    +0.000 HD
ATOM     33  H   UNL     1      -9.531 -15.324  17.487  0.00  0.00    +0.000 HD
ENDBRANCH  28  30
ENDBRANCH  18  28
ENDBRANCH   1  21
BRANCH   4  34
ATOM     34  C   UNL     1     -10.330  -4.770  14.803  0.00  0.00    +0.000 A 
ATOM     35  C   UNL     1      -9.318  -4.150  14.070  0.00  0.00    +0.000 A 
ATOM     36  C   UNL     1      -9.624  -3.001  13.355  0.00  0.00    +0.000 A 
ATOM     37  N   UNL     1     -10.846  -2.425  13.334  0.00  0.00    +0.000 NA
ATOM     38  C   UNL     1     -11.817  -3.060  14.011  0.00  0.00    +0.000 A 
ATOM     39  C   UNL     1     -11.622  -4.247  14.696  0.00  0.00    +0.000 A 
ATOM     40  H   UNL     1      -8.295  -4.506  14.077  0.00  0.00    +0.000 HD
ATOM     41  H   UNL     1      -8.866  -2.480  12.778  0.00  0.00    +0.000 HD
ATOM     42  H   UNL     1     -12.787  -2.568  14.020  0.00  0.00    +0.000 HD
ATOM     43  H   UNL     1     -12.469  -4.704  15.200  0.00  0.00    +0.000 HD
ENDBRANCH   4  34
TORSDOF 5
ENDMDL
MODEL 3
REMARK VINA RESULT:    -9.587      1.929      4.054
REMARK INTER + INTRA:         -12.583
REMARK INTER:                 -12.232
REMARK INTRA:                  -0.350
REMARK UNBOUND:                -0.473
REMARK  Name = 
REMARK  5 active torsions:
REMARK  status: ('A' for Active; 'I' for Inactive)
REMARK    1  A    between atoms: C_1  and  S_2
REMARK    2  A    between atoms: S_2  and  C_4
REMARK    3  A    between atoms: C_7  and  C_8
REMARK    4  A    between atoms: C_10  and  C_11
REMARK    5  A    between atoms: C_18  and  C_19
REMARK                            x       y       z     vdW  Elec       q    Type
REMARK                         _______ _______ _______ _____ _____    ______ ____
ROOT
ATOM      1  C   UNL     1      -9.075  -8.408  17.126  0.00  0.00    +0.000 A 
ATOM      2  N   UNL     1      -8.476  -7.733  18.091  0.00  0.00    +0.000 NA
ATOM      3  C   UNL     1      -8.901  -6.429  17.974  0.00  0.00    +0.000 A 
ATOM      4  C   UNL     1      -9.862  -6.308  16.969  0.00  0.00    +0.000 A 
ATOM      5  N   UNL     1      -9.918  -7.575  16.428  0.00  0.00    +0.000 N 
ATOM      6  H   UNL     1     -10.525  -7.870  15.683  0.00  0.00    +0.000 HD
ENDROOT
BRANCH   3   7
ATOM      7  C   UNL     1      -8.426  -5.376  18.868  0.00  0.00    +0.000 A 
ATOM      8  C   UNL     1      -9.152  -4.186  19.045  0.00  0.00    +0.000 A 
ATOM      9  C   UNL     1      -8.849  -3.315  20.092  0.00  0.00    +0.000 A 
ATOM     10  C   UNL     1      -7.740  -3.566  20.882  0.00  0.00    +0.000 A 
ATOM     11  F   UNL     1      -7.454  -2.738  21.895  0.00  0.00    +0.000 F 
ATOM     12  C   UNL     1      -6.928  -4.664  20.639  0.00  0.00    +0.000 A 
ATOM     13  C   UNL     1      -7.275  -5.579  19.639  0.00  0.00    +0.000 A 
ATOM     14  H   UNL     1     -10.014  -3.966  18.420  0.00  0.00    +0.000 HD
ATOM     15  H   UNL     1      -9.490  -2.462  20.300  0.00  0.00    +0.000 HD
ATOM     16  H   UNL     1      -6.043  -4.823  21.251  0.00  0.00    +0.000 HD
ATOM     17  H   UNL     1      -6.663  -6.467  19.485  0.00  0.00    +0.000 HD
ENDBRANCH   3   7
BRANCH   1  21
ATOM     18  C   UNL     1      -8.629 -12.586  16.260  0.00  0.00    +0.000 A 
ATOM     19  C   UNL     1      -8.761 -11.650  15.238  0.00  0.00    +0.000 A 
ATOM     20  C   UNL     1      -8.914 -10.291  15.527  0.00  0.00    +0.000 A 
ATOM     21  C   UNL     1      -8.939  -9.840  16.858  0.00  0.00    +0.000 A 
ATOM     22  C   UNL     1      -8.836 -10.792  17.882  0.00  0.00    +0.000 A 
ATOM     23  C   UNL     1      -8.686 -12.147  17.587  0.00  0.00    +0.000 A 
ATOM     24  H   UNL     1      -8.748 -11.955  14.186  0.00  0.00    +0.000 HD
ATOM     25  H   UNL     1      -9.011  -9.571  14.716  0.00  0.00    +0.000 HD
ATOM     26  H   UNL     1      -8.898 -10.495  18.930  0.00  0.00    +0.000 HD
ATOM     27  H   UNL     1      -8.620 -12.871  18.403  0.00  0.00    +0.000 HD
BRANCH  18  28
ATOM     28  S   UNL     1      -8.443 -14.342  15.872  0.00  0.00    +0.000 S 
ATOM     29  O   UNL     1      -9.416 -14.655  14.678  0.00  0.00    +0.000 OA
BRANCH  28  30
ATOM     30  C   UNL     1      -9.203 -15.008  17.375  0.00  0.00    +0.000 C 
ATOM     31  H   UNL     1      -9.366 -14.184  18.075  0.00  0.00    +0.000 HD
ATOM     32  H   UNL     1      -8.540 -15.747  17.833  0.00  0.00    +0.000 HD
ATOM     33  H   UNL     1     -10.166 -15.463  17.137  0.00  0.00    +0.000 HD
ENDBRANCH  28  30
ENDBRANCH  18  28
ENDBRANCH   1  21
BRANCH   4  34
ATOM     34  C   UNL     1     -10.672  -5.183  16.473  0.00  0.00    +0.000 A 
ATOM     35  C   UNL     1     -10.371  -4.554  15.265  0.00  0.00    +0.000 A 
ATOM     36  C   UNL     1     -11.038  -3.382  14.941  0.00  0.00    +0.000 A 
ATOM     37  N   UNL     1     -11.961  -2.792  15.732  0.00  0.00    +0.000 NA
ATOM     38  C   UNL     1     -12.270  -3.434  16.871  0.00  0.00    +0.000 A 
ATOM     39  C   UNL     1     -11.706  -4.642  17.245  0.00  0.00    +0.000 A 
ATOM     40  H   UNL     1      -9.602  -4.922  14.596  0.00  0.00    +0.000 HD
ATOM     41  H   UNL     1     -10.829  -2.855  14.015  0.00  0.00    +0.000 HD
ATOM     42  H   UNL     1     -12.983  -2.931  17.520  0.00  0.00    +0.000 HD
ATOM     43  H   UNL     1     -12.029  -5.103  18.175  0.00  0.00    +0.000 HD
ENDBRANCH   4  34
TORSDOF 5
ENDMDL
MODEL 4
REMARK VINA RESULT:    -9.364      1.396      1.901
REMARK INTER + INTRA:         -12.301
REMARK INTER:                 -11.373
REMARK INTRA:                  -0.928
REMARK UNBOUND:                -0.473
REMARK  Name = 
REMARK  5 active torsions:
REMARK  status: ('A' for Active; 'I' for Inactive)
REMARK    1  A    between atoms: C_1  and  S_2
REMARK    2  A    between atoms: S_2  and  C_4
REMARK    3  A    between atoms: C_7  and  C_8
REMARK    4  A    between atoms: C_10  and  C_11
REMARK    5  A    between atoms: C_18  and  C_19
REMARK                            x       y       z     vdW  Elec       q    Type
REMARK                         _______ _______ _______ _____ _____    ______ ____
ROOT
ATOM      1  C   UNL     1      -9.584  -7.941  16.688  0.00  0.00    +0.000 A 
ATOM      2  N   UNL     1      -9.755  -7.236  15.582  0.00  0.00    +0.000 NA
ATOM      3  C   UNL     1     -10.053  -5.953  15.982  0.00  0.00    +0.000 A 
ATOM      4  C   UNL     1      -9.972  -5.834  17.370  0.00  0.00    +0.000 A 
ATOM      5  N   UNL     1      -9.712  -7.123  17.785  0.00  0.00    +0.000 N 
ATOM      6  H   UNL     1      -9.569  -7.417  18.736  0.00  0.00    +0.000 HD
ENDROOT
BRANCH   3   7
ATOM      7  C   UNL     1     -10.330  -4.888  15.023  0.00  0.00    +0.000 A 
ATOM      8  C   UNL     1     -11.590  -4.268  14.962  0.00  0.00    +0.000 A 
ATOM      9  C   UNL     1     -11.769  -3.081  14.251  0.00  0.00    +0.000 A 
ATOM     10  C   UNL     1     -10.723  -2.582  13.493  0.00  0.00    +0.000 A 
ATOM     11  F   UNL     1     -10.888  -1.437  12.819  0.00  0.00    +0.000 F 
ATOM     12  C   UNL     1      -9.510  -3.252  13.428  0.00  0.00    +0.000 A 
ATOM     13  C   UNL     1      -9.305  -4.400  14.202  0.00  0.00    +0.000 A 
ATOM     14  H   UNL     1     -12.427  -4.659  15.538  0.00  0.00    +0.000 HD
ATOM     15  H   UNL     1     -12.710  -2.541  14.311  0.00  0.00    +0.000 HD
ATOM     16  H   UNL     1      -8.713  -2.860  12.800  0.00  0.00    +0.000 HD
ATOM     17  H   UNL     1      -8.334  -4.894  14.188  0.00  0.00    +0.000 HD
ENDBRANCH   3   7
BRANCH   1  21
ATOM     18  C   UNL     1      -8.614 -12.107  17.001  0.00  0.00    +0.000 A 
ATOM     19  C   UNL     1      -8.593 -11.279  18.118  0.00  0.00    +0.000 A 
ATOM     20  C   UNL     1      -8.903  -9.920  18.008  0.00  0.00    +0.000 A 
ATOM     21  C   UNL     1      -9.241  -9.360  16.764  0.00  0.00    +0.000 A 
ATOM     22  C   UNL     1      -9.230 -10.195  15.637  0.00  0.00    +0.000 A 
ATOM     23  C   UNL     1      -8.917 -11.550  15.754  0.00  0.00    +0.000 A 
ATOM     24  H   UNL     1      -8.335 -11.669  19.109  0.00  0.00    +0.000 HD
ATOM     25  H   UNL     1      -8.887  -9.286  18.893  0.00  0.00    +0.000 HD
ATOM     26  H   UNL     1      -9.439  -9.797  14.644  0.00  0.00    +0.000 HD
ATOM     27  H   UNL     1      -8.904 -12.177  14.859  0.00  0.00    +0.000 HD
BRANCH  18  28
ATOM     28  S   UNL     1      -8.200 -13.861  17.155  0.00  0.00    +0.000 S 
ATOM     29  O   UNL     1      -9.057 -14.631  16.087  0.00  0.00    +0.000 OA
BRANCH  28  30
ATOM     30  C   UNL     1      -8.964 -14.152  18.772  0.00  0.00    +0.000 C 
ATOM     31  H   UNL     1      -8.189 -14.483  19.466  0.00  0.00    +0.000 HD
ATOM     32  H   UNL     1      -9.732 -14.926  18.688  0.00  0.00    +0.000 HD
ATOM     33  H   UNL     1      -9.403 -13.226  19.149  0.00  0.00    +0.000 HD
ENDBRANCH  28  30
ENDBRANCH  18  28
ENDBRANCH   1  21
BRANCH   4  34
ATOM     34  C   UNL     1     -10.130  -4.703  18.300  0.00  0.00    +0.000 A 
ATOM     35  C   UNL     1     -11.347  -4.032  18.419  0.00  0.00    +0.000 A 
ATOM     36  C   UNL     1     -11.390  -2.858  19.157  0.00  0.00    +0.000 A 
ATOM     37  N   UNL     1     -10.316  -2.305  19.763  0.00  0.00    +0.000 NA
ATOM     38  C   UNL     1      -9.163  -2.988  19.674  0.00  0.00    +0.000 A 
ATOM     39  C   UNL     1      -9.040  -4.200  19.017  0.00  0.00    +0.000 A 
ATOM     40  H   UNL     1     -12.247  -4.368  17.917  0.00  0.00    +0.000 HD
ATOM     41  H   UNL     1     -12.314  -2.298  19.269  0.00  0.00    +0.000 HD
ATOM     42  H   UNL     1      -8.296  -2.515  20.131  0.00  0.00    +0.000 HD
ATOM     43  H   UNL     1      -8.072  -4.695  19.011  0.00  0.00    +0.000 HD
ENDBRANCH   4  34
TORSDOF 5
ENDMDL
MODEL 5
REMARK VINA RESULT:    -9.193      1.907      2.468
REMARK INTER + INTRA:         -12.085
REMARK INTER:                 -11.614
REMARK INTRA:                  -0.470
REMARK UNBOUND:                -0.473
REMARK  Name = 
REMARK  5 active torsions:
REMARK  status: ('A' for Active; 'I' for Inactive)
REMARK    1  A    between atoms: C_1  and  S_2
REMARK    2  A    between atoms: S_2  and  C_4
REMARK    3  A    between atoms: C_7  and  C_8
REMARK    4  A    between atoms: C_10  and  C_11
REMARK    5  A    between atoms: C_18  and  C_19
REMARK                            x       y       z     vdW  Elec       q    Type
REMARK                         _______ _______ _______ _____ _____    ______ ____
ROOT
ATOM      1  C   UNL     1      -8.964  -7.673  18.670  0.00  0.00    +0.000 A 
ATOM      2  N   UNL     1      -9.770  -6.731  18.211  0.00  0.00    +0.000 NA
ATOM      3  C   UNL     1      -9.368  -5.554  18.800  0.00  0.00    +0.000 A 
ATOM      4  C   UNL     1      -8.223  -5.751  19.573  0.00  0.00    +0.000 A 
ATOM      5  N   UNL     1      -8.019  -7.113  19.498  0.00  0.00    +0.000 N 
ATOM      6  H   UNL     1      -7.262  -7.619  19.924  0.00  0.00    +0.000 HD
ENDROOT
BRANCH   3   7
ATOM      7  C   UNL     1     -10.049  -4.288  18.544  0.00  0.00    +0.000 A 
ATOM      8  C   UNL     1      -9.380  -3.059  18.676  0.00  0.00    +0.000 A 
ATOM      9  C   UNL     1      -9.939  -1.885  18.170  0.00  0.00    +0.000 A 
ATOM     10  C   UNL     1     -11.222  -1.915  17.649  0.00  0.00    +0.000 A 
ATOM     11  F   UNL     1     -11.755  -0.792  17.153  0.00  0.00    +0.000 F 
ATOM     12  C   UNL     1     -11.955  -3.092  17.634  0.00  0.00    +0.000 A 
ATOM     13  C   UNL     1     -11.367  -4.285  18.070  0.00  0.00    +0.000 A 
ATOM     14  H   UNL     1      -8.379  -3.017  19.100  0.00  0.00    +0.000 HD
ATOM     15  H   UNL     1      -9.364  -0.962  18.162  0.00  0.00    +0.000 HD
ATOM     16  H   UNL     1     -12.973  -3.086  17.251  0.00  0.00    +0.000 HD
ATOM     17  H   UNL     1     -11.928  -5.217  18.008  0.00  0.00    +0.000 HD
ENDBRANCH   3   7
BRANCH   1  21
ATOM     18  C   UNL     1      -9.072 -11.855  17.726  0.00  0.00    +0.000 A 
ATOM     19  C   UNL     1      -8.448 -11.396  18.881  0.00  0.00    +0.000 A 
ATOM     20  C   UNL     1      -8.410 -10.031  19.180  0.00  0.00    +0.000 A 
ATOM     21  C   UNL     1      -9.000  -9.091  18.317  0.00  0.00    +0.000 A 
ATOM     22  C   UNL     1      -9.599  -9.559  17.138  0.00  0.00    +0.000 A 
ATOM     23  C   UNL     1      -9.632 -10.923  16.846  0.00  0.00    +0.000 A 
ATOM     24  H   UNL     1      -7.975 -12.090  19.584  0.00  0.00    +0.000 HD
ATOM     25  H   UNL     1      -7.922  -9.687  20.091  0.00  0.00    +0.000 HD
ATOM     26  H   UNL     1     -10.028  -8.865  16.415  0.00  0.00    +0.000 HD
ATOM     27  H   UNL     1     -10.094 -11.262  15.915  0.00  0.00    +0.000 HD
BRANCH  18  28
ATOM     28  S   UNL     1      -9.105 -13.623  17.346  0.00  0.00    +0.000 S 
ATOM     29  O   UNL     1      -8.208 -14.341  18.419  0.00  0.00    +0.000 OA
BRANCH  28  30
ATOM     30  C   UNL     1      -8.156 -13.562  15.805  0.00  0.00    +0.000 C 
ATOM     31  H   UNL     1      -7.922 -14.584  15.501  0.00  0.00    +0.000 HD
ATOM     32  H   UNL     1      -7.226 -13.008  15.960  0.00  0.00    +0.000 HD
ATOM     33  H   UNL     1      -8.749 -13.088  15.020  0.00  0.00    +0.000 HD
ENDBRANCH  28  30
ENDBRANCH  18  28
ENDBRANCH   1  21
BRANCH   4  34
ATOM     34  C   UNL     1      -7.360  -4.848  20.352  0.00  0.00    +0.000 A 
ATOM     35  C   UNL     1      -5.991  -4.762  20.099  0.00  0.00    +0.000 A 
ATOM     36  C   UNL     1      -5.195  -4.049  20.984  0.00  0.00    +0.000 A 
ATOM     37  N   UNL     1      -5.659  -3.439  22.097  0.00  0.00    +0.000 NA
ATOM     38  C   UNL     1      -6.985  -3.496  22.301  0.00  0.00    +0.000 A 
ATOM     39  C   UNL     1      -7.866  -4.125  21.437  0.00  0.00    +0.000 A 
ATOM     40  H   UNL     1      -5.522  -5.270  19.266  0.00  0.00    +0.000 HD
ATOM     41  H   UNL     1      -4.123  -3.963  20.832  0.00  0.00    +0.000 HD
ATOM     42  H   UNL     1      -7.343  -3.035  23.219  0.00  0.00    +0.000 HD
ATOM     43  H   UNL     1      -8.927  -4.105  21.669  0.00  0.00    +0.000 HD
ENDBRANCH   4  34
TORSDOF 5
ENDMDL
MODEL 6
REMARK VINA RESULT:    -9.145      2.437      4.310
REMARK INTER + INTRA:         -12.024
REMARK INTER:                 -11.214
REMARK INTRA:                  -0.810
REMARK UNBOUND:                -0.473
REMARK  Name = 
REMARK  5 active torsions:
REMARK  status: ('A' for Active; 'I' for Inactive)
REMARK    1  A    between atoms: C_1  and  S_2
REMARK    2  A    between atoms: S_2  and  C_4
REMARK    3  A    between atoms: C_7  and  C_8
REMARK    4  A    between atoms: C_10  and  C_11
REMARK    5  A    between atoms: C_18  and  C_19
REMARK                            x       y       z     vdW  Elec       q    Type
REMARK                         _______ _______ _______ _____ _____    ______ ____
ROOT
ATOM      1  C   UNL     1     -10.014  -6.974  17.174  0.00  0.00    +0.000 A 
ATOM      2  N   UNL     1     -10.056  -6.154  18.210  0.00  0.00    +0.000 NA
ATOM      3  C   UNL     1     -10.362  -4.910  17.709  0.00  0.00    +0.000 A 
ATOM      4  C   UNL     1     -10.612  -4.974  16.338  0.00  0.00    +0.000 A 
ATOM      5  N   UNL     1     -10.343  -6.291  16.027  0.00  0.00    +0.000 N 
ATOM      6  H   UNL     1     -10.434  -6.712  15.119  0.00  0.00    +0.000 HD
ENDROOT
BRANCH   3   7
ATOM      7  C   UNL     1     -10.473  -3.735  18.568  0.00  0.00    +0.000 A 
ATOM      8  C   UNL     1     -11.725  -3.238  18.970  0.00  0.00    +0.000 A 
ATOM      9  C   UNL     1     -11.824  -2.301  19.999  0.00  0.00    +0.000 A 
ATOM     10  C   UNL     1     -10.667  -1.763  20.539  0.00  0.00    +0.000 A 
ATOM     11  F   UNL     1     -10.760  -0.872  21.534  0.00  0.00    +0.000 F 
ATOM     12  C   UNL     1      -9.420  -2.138  20.063  0.00  0.00    +0.000 A 
ATOM     13  C   UNL     1      -9.317  -3.134  19.085  0.00  0.00    +0.000 A 
ATOM     14  H   UNL     1     -12.641  -3.637  18.542  0.00  0.00    +0.000 HD
ATOM     15  H   UNL     1     -12.797  -2.015  20.390  0.00  0.00    +0.000 HD
ATOM     16  H   UNL     1      -8.526  -1.678  20.478  0.00  0.00    +0.000 HD
ATOM     17  H   UNL     1      -8.334  -3.462  18.750  0.00  0.00    +0.000 HD
ENDBRANCH   3   7
BRANCH   1  21
ATOM     18  C   UNL     1      -9.199 -11.180  17.394  0.00  0.00    +0.000 A 
ATOM     19  C   UNL     1      -8.783 -10.314  18.400  0.00  0.00    +0.000 A 
ATOM     20  C   UNL     1      -9.046  -8.943  18.320  0.00  0.00    +0.000 A 
ATOM     21  C   UNL     1      -9.734  -8.409  17.217  0.00  0.00    +0.000 A 
ATOM     22  C   UNL     1     -10.123  -9.284  16.192  0.00  0.00    +0.000 A 
ATOM     23  C   UNL     1      -9.856 -10.651  16.278  0.00  0.00    +0.000 A 
ATOM     24  H   UNL     1      -8.243 -10.683  19.279  0.00  0.00    +0.000 HD
ATOM     25  H   UNL     1      -8.718  -8.279  19.118  0.00  0.00    +0.000 HD
ATOM     26  H   UNL     1     -10.618  -8.909  15.295  0.00  0.00    +0.000 HD
ATOM     27  H   UNL     1     -10.159 -11.310  15.460  0.00  0.00    +0.000 HD
BRANCH  18  28
ATOM     28  S   UNL     1      -8.844 -12.949  17.506  0.00  0.00    +0.000 S 
ATOM     29  O   UNL     1      -7.668 -13.118  18.535  0.00  0.00    +0.000 OA
BRANCH  28  30
ATOM     30  C   UNL     1      -8.145 -13.165  15.849  0.00  0.00    +0.000 C 
ATOM     31  H   UNL     1      -8.577 -14.066  15.406  0.00  0.00    +0.000 HD
ATOM     32  H   UNL     1      -7.060 -13.278  15.913  0.00  0.00    +0.000 HD
ATOM     33  H   UNL     1      -8.399 -12.308  15.223  0.00  0.00    +0.000 HD
ENDBRANCH  28  30
ENDBRANCH  18  28
ENDBRANCH   1  21
BRANCH   4  34
ATOM     34  C   UNL     1     -11.029  -3.978  15.337  0.00  0.00    +0.000 A 
ATOM     35  C   UNL     1     -11.718  -4.359  14.185  0.00  0.00    +0.000 A 
ATOM     36  C   UNL     1     -11.913  -3.416  13.186  0.00  0.00    +0.000 A 
ATOM     37  N   UNL     1     -11.463  -2.144  13.246  0.00  0.00    +0.000 NA
ATOM     38  C   UNL     1     -10.840  -1.784  14.380  0.00  0.00    +0.000 A 
ATOM     39  C   UNL     1     -10.659  -2.635  15.457  0.00  0.00    +0.000 A 
ATOM     40  H   UNL     1     -12.062  -5.373  14.023  0.00  0.00    +0.000 HD
ATOM     41  H   UNL     1     -12.436  -3.671  12.269  0.00  0.00    +0.000 HD
ATOM     42  H   UNL     1     -10.446  -0.770  14.403  0.00  0.00    +0.000 HD
ATOM     43  H   UNL     1     -10.161  -2.255  16.345  0.00  0.00    +0.000 HD
ENDBRANCH   4  34
TORSDOF 5
ENDMDL
MODEL 7
REMARK VINA RESULT:    -9.097      2.824      4.732
REMARK INTER + INTRA:         -11.963
REMARK INTER:                 -11.495
REMARK INTRA:                  -0.467
REMARK UNBOUND:                -0.473
REMARK  Name = 
REMARK  5 active torsions:
REMARK  status: ('A' for Active; 'I' for Inactive)
REMARK    1  A    between atoms: C_1  and  S_2
REMARK    2  A    between atoms: S_2  and  C_4
REMARK    3  A    between atoms: C_7  and  C_8
REMARK    4  A    between atoms: C_10  and  C_11
REMARK    5  A    between atoms: C_18  and  C_19
REMARK                            x       y       z     vdW  Elec       q    Type
REMARK                         _______ _______ _______ _____ _____    ______ ____
ROOT
ATOM      1  C   UNL     1      -9.005  -6.960  18.582  0.00  0.00    +0.000 A 
ATOM      2  N   UNL     1      -8.374  -6.306  19.542  0.00  0.00    +0.000 NA
ATOM      3  C   UNL     1      -8.700  -4.978  19.387  0.00  0.00    +0.000 A 
ATOM      4  C   UNL     1      -9.633  -4.812  18.362  0.00  0.00    +0.000 A 
ATOM      5  N   UNL     1      -9.772  -6.085  17.849  0.00  0.00    +0.000 N 
ATOM      6  H   UNL     1     -10.386  -6.353  17.100  0.00  0.00    +0.000 HD
ENDROOT
BRANCH   3   7
ATOM      7  C   UNL     1      -8.165  -3.941  20.264  0.00  0.00    +0.000 A 
ATOM      8  C   UNL     1      -8.910  -2.790  20.575  0.00  0.00    +0.000 A 
ATOM      9  C   UNL     1      -8.521  -1.948  21.617  0.00  0.00    +0.000 A 
ATOM     10  C   UNL     1      -7.318  -2.181  22.263  0.00  0.00    +0.000 A 
ATOM     11  F   UNL     1      -6.948  -1.381  23.270  0.00  0.00    +0.000 F 
ATOM     12  C   UNL     1      -6.498  -3.233  21.881  0.00  0.00    +0.000 A 
ATOM     13  C   UNL     1      -6.925  -4.124  20.889  0.00  0.00    +0.000 A 
ATOM     14  H   UNL     1      -9.847  -2.584  20.064  0.00  0.00    +0.000 HD
ATOM     15  H   UNL     1      -9.165  -1.132  21.934  0.00  0.00    +0.000 HD
ATOM     16  H   UNL     1      -5.542  -3.378  22.379  0.00  0.00    +0.000 HD
ATOM     17  H   UNL     1      -6.302  -4.978  20.627  0.00  0.00    +0.000 HD
ENDBRANCH   3   7
BRANCH   1  21
ATOM     18  C   UNL     1      -8.916 -11.208  17.995  0.00  0.00    +0.000 A 
ATOM     19  C   UNL     1      -8.492 -10.639  19.192  0.00  0.00    +0.000 A 
ATOM     20  C   UNL     1      -8.516  -9.253  19.374  0.00  0.00    +0.000 A 
ATOM     21  C   UNL     1      -8.969  -8.403  18.350  0.00  0.00    +0.000 A 
ATOM     22  C   UNL     1      -9.366  -8.982  17.136  0.00  0.00    +0.000 A 
ATOM     23  C   UNL     1      -9.337 -10.366  16.961  0.00  0.00    +0.000 A 
ATOM     24  H   UNL     1      -8.130 -11.260  20.018  0.00  0.00    +0.000 HD
ATOM     25  H   UNL     1      -8.185  -8.824  20.318  0.00  0.00    +0.000 HD
ATOM     26  H   UNL     1      -9.680  -8.361  16.297  0.00  0.00    +0.000 HD
ATOM     27  H   UNL     1      -9.641 -10.792  16.001  0.00  0.00    +0.000 HD
BRANCH  18  28
ATOM     28  S   UNL     1      -8.870 -13.002  17.769  0.00  0.00    +0.000 S 
ATOM     29  O   UNL     1      -7.740 -13.555  18.711  0.00  0.00    +0.000 OA
BRANCH  28  30
ATOM     30  C   UNL     1      -8.218 -13.019  16.079  0.00  0.00    +0.000 C 
ATOM     31  H   UNL     1      -9.057 -12.936  15.384  0.00  0.00    +0.000 HD
ATOM     32  H   UNL     1      -7.685 -13.956  15.894  0.00  0.00    +0.000 HD
ATOM     33  H   UNL     1      -7.550 -12.169  15.928  0.00  0.00    +0.000 HD
ENDBRANCH  28  30
ENDBRANCH  18  28
ENDBRANCH   1  21
BRANCH   4  34
ATOM     34  C   UNL     1     -10.350  -3.643  17.825  0.00  0.00    +0.000 A 
ATOM     35  C   UNL     1     -11.734  -3.662  17.655  0.00  0.00    +0.000 A 
ATOM     36  C   UNL     1     -12.334  -2.618  16.968  0.00  0.00    +0.000 A 
ATOM     37  N   UNL     1     -11.659  -1.578  16.430  0.00  0.00    +0.000 NA
ATOM     38  C   UNL     1     -10.332  -1.554  16.641  0.00  0.00    +0.000 A 
ATOM     39  C   UNL     1      -9.657  -2.516  17.372  0.00  0.00    +0.000 A 
ATOM     40  H   UNL     1     -12.350  -4.485  17.998  0.00  0.00    +0.000 HD
ATOM     41  H   UNL     1     -13.408  -2.596  16.804  0.00  0.00    +0.000 HD
ATOM     42  H   UNL     1      -9.793  -0.735  16.171  0.00  0.00    +0.000 HD
ATOM     43  H   UNL     1      -8.584  -2.408  17.511  0.00  0.00    +0.000 HD
ENDBRANCH   4  34
TORSDOF 5
ENDMDL
MODEL 8
REMARK VINA RESULT:    -9.090      1.952      2.629
REMARK INTER + INTRA:         -11.955
REMARK INTER:                 -11.171
REMARK INTRA:                  -0.784
REMARK UNBOUND:                -0.473
REMARK  Name = 
REMARK  5 active torsions:
REMARK  status: ('A' for Active; 'I' for Inactive)
REMARK    1  A    between atoms: C_1  and  S_2
REMARK    2  A    between atoms: S_2  and  C_4
REMARK    3  A    between atoms: C_7  and  C_8
REMARK    4  A    between atoms: C_10  and  C_11
REMARK    5  A    between atoms: C_18  and  C_19
REMARK                            x       y       z     vdW  Elec       q    Type
REMARK                         _______ _______ _______ _____ _____    ______ ____
ROOT
ATOM      1  C   UNL     1     -10.117  -6.923  17.209  0.00  0.00    +0.000 A 
ATOM      2  N   UNL     1     -10.378  -6.260  16.095  0.00  0.00    +0.000 NA
ATOM      3  C   UNL     1     -10.598  -4.953  16.464  0.00  0.00    +0.000 A 
ATOM      4  C   UNL     1     -10.376  -4.778  17.831  0.00  0.00    +0.000 A 
ATOM      5  N   UNL     1     -10.112  -6.056  18.276  0.00  0.00    +0.000 N 
ATOM      6  H   UNL     1      -9.883  -6.315  19.220  0.00  0.00    +0.000 HD
ENDROOT
BRANCH   3   7
ATOM      7  C   UNL     1     -10.940  -3.920  15.490  0.00  0.00    +0.000 A 
ATOM      8  C   UNL     1     -10.436  -2.613  15.604  0.00  0.00    +0.000 A 
ATOM      9  C   UNL     1     -10.533  -1.716  14.540  0.00  0.00    +0.000 A 
ATOM     10  C   UNL     1     -11.248  -2.079  13.410  0.00  0.00    +0.000 A 
ATOM     11  F   UNL     1     -11.333  -1.224  12.384  0.00  0.00    +0.000 F 
ATOM     12  C   UNL     1     -11.871  -3.315  13.331  0.00  0.00    +0.000 A 
ATOM     13  C   UNL     1     -11.709  -4.245  14.366  0.00  0.00    +0.000 A 
ATOM     14  H   UNL     1      -9.888  -2.307  16.492  0.00  0.00    +0.000 HD
ATOM     15  H   UNL     1     -10.033  -0.752  14.586  0.00  0.00    +0.000 HD
ATOM     16  H   UNL     1     -12.456  -3.567  12.450  0.00  0.00    +0.000 HD
ATOM     17  H   UNL     1     -12.157  -5.234  14.277  0.00  0.00    +0.000 HD
ENDBRANCH   3   7
BRANCH   1  21
ATOM     18  C   UNL     1      -9.206 -11.109  17.424  0.00  0.00    +0.000 A 
ATOM     19  C   UNL     1      -9.923 -10.584  16.354  0.00  0.00    +0.000 A 
ATOM     20  C   UNL     1     -10.223  -9.220  16.293  0.00  0.00    +0.000 A 
ATOM     21  C   UNL     1      -9.808  -8.348  17.315  0.00  0.00    +0.000 A 
ATOM     22  C   UNL     1      -9.112  -8.890  18.405  0.00  0.00    +0.000 A 
ATOM     23  C   UNL     1      -8.818 -10.253  18.460  0.00  0.00    +0.000 A 
ATOM     24  H   UNL     1     -10.268 -11.224  15.535  0.00  0.00    +0.000 HD
ATOM     25  H   UNL     1     -10.782  -8.824  15.447  0.00  0.00    +0.000 HD
ATOM     26  H   UNL     1      -8.811  -8.262  19.244  0.00  0.00    +0.000 HD
ATOM     27  H   UNL     1      -8.284 -10.652  19.327  0.00  0.00    +0.000 HD
BRANCH  18  28
ATOM     28  S   UNL     1      -8.833 -12.877  17.496  0.00  0.00    +0.000 S 
ATOM     29  O   UNL     1      -7.674 -13.061  18.541  0.00  0.00    +0.000 OA
BRANCH  28  30
ATOM     30  C   UNL     1      -8.103 -13.041  15.846  0.00  0.00    +0.000 C 
ATOM     31  H   UNL     1      -8.666 -13.795  15.291  0.00  0.00    +0.000 HD
ATOM     32  H   UNL     1      -7.059 -13.357  15.929  0.00  0.00    +0.000 HD
ATOM     33  H   UNL     1      -8.167 -12.090  15.314  0.00  0.00    +0.000 HD
ENDBRANCH  28  30
ENDBRANCH  18  28
ENDBRANCH   1  21
BRANCH   4  34
ATOM     34  C   UNL     1     -10.409  -3.605  18.720  0.00  0.00    +0.000 A 
ATOM     35  C   UNL     1      -9.240  -3.093  19.282  0.00  0.00    +0.000 A 
ATOM     36  C   UNL     1      -9.345  -2.116  20.261  0.00  0.00    +0.000 A 
ATOM     37  N   UNL     1     -10.518  -1.632  20.725  0.00  0.00    +0.000 NA
ATOM     38  C   UNL     1     -11.632  -2.105  20.141  0.00  0.00    +0.000 A 
ATOM     39  C   UNL     1     -11.622  -3.029  19.111  0.00  0.00    +0.000 A 
ATOM     40  H   UNL     1      -8.258  -3.465  19.017  0.00  0.00    +0.000 HD
ATOM     41  H   UNL     1      -8.462  -1.696  20.733  0.00  0.00    +0.000 HD
ATOM     42  H   UNL     1     -12.572  -1.738  20.548  0.00  0.00    +0.000 HD
ATOM     43  H   UNL     1     -12.571  -3.342  18.682  0.00  0.00    +0.000 HD
ENDBRANCH   4  34
TORSDOF 5
ENDMDL
MODEL 9
REMARK VINA RESULT:    -8.999      5.361      8.407
REMARK INTER + INTRA:         -11.839
REMARK INTER:                 -10.960
REMARK INTRA:                  -0.879
REMARK UNBOUND:                -0.473
REMARK  Name = 
REMARK  5 active torsions:
REMARK  status: ('A' for Active; 'I' for Inactive)
REMARK    1  A    between atoms: C_1  and  S_2
REMARK    2  A    between atoms: S_2  and  C_4
REMARK    3  A    between atoms: C_7  and  C_8
REMARK    4  A    between atoms: C_10  and  C_11
REMARK    5  A    between atoms: C_18  and  C_19
REMARK                            x       y       z     vdW  Elec       q    Type
REMARK                         _______ _______ _______ _____ _____    ______ ____
ROOT
ATOM      1  C   UNL     1     -10.136  -3.868  17.944  0.00  0.00    +0.000 A 
ATOM      2  N   UNL     1     -10.423  -5.158  17.947  0.00  0.00    +0.000 NA
ATOM      3  C   UNL     1      -9.338  -5.796  18.502  0.00  0.00    +0.000 A 
ATOM      4  C   UNL     1      -8.390  -4.872  18.943  0.00  0.00    +0.000 A 
ATOM      5  N   UNL     1      -8.913  -3.662  18.536  0.00  0.00    +0.000 N 
ATOM      6  H   UNL     1      -8.503  -2.759  18.702  0.00  0.00    +0.000 HD
ENDROOT
BRANCH   3   7
ATOM      7  C   UNL     1      -9.286  -7.248  18.651  0.00  0.00    +0.000 A 
ATOM      8  C   UNL     1      -9.415  -8.101  17.542  0.00  0.00    +0.000 A 
ATOM      9  C   UNL     1      -9.090  -9.454  17.641  0.00  0.00    +0.000 A 
ATOM     10  C   UNL     1      -8.763  -9.984  18.879  0.00  0.00    +0.000 A 
ATOM     11  F   UNL     1      -8.441 -11.279  18.975  0.00  0.00    +0.000 F 
ATOM     12  C   UNL     1      -8.763  -9.187  20.015  0.00  0.00    +0.000 A 
ATOM     13  C   UNL     1      -9.013  -7.814  19.903  0.00  0.00    +0.000 A 
ATOM     14  H   UNL     1      -9.688  -7.704  16.567  0.00  0.00    +0.000 HD
ATOM     15  H   UNL     1      -9.071 -10.082  16.754  0.00  0.00    +0.000 HD
ATOM     16  H   UNL     1      -8.537  -9.630  20.982  0.00  0.00    +0.000 HD
ATOM     17  H   UNL     1      -8.962  -7.182  20.789  0.00  0.00    +0.000 HD
ENDBRANCH   3   7
BRANCH   1  21
ATOM     18  C   UNL     1     -12.587  -0.648  16.521  0.00  0.00    +0.000 A 
ATOM     19  C   UNL     1     -11.568  -0.423  17.442  0.00  0.00    +0.000 A 
ATOM     20  C   UNL     1     -10.778  -1.477  17.907  0.00  0.00    +0.000 A 
ATOM     21  C   UNL     1     -10.996  -2.790  17.456  0.00  0.00    +0.000 A 
ATOM     22  C   UNL     1     -12.044  -3.014  16.551  0.00  0.00    +0.000 A 
ATOM     23  C   UNL     1     -12.831  -1.956  16.092  0.00  0.00    +0.000 A 
ATOM     24  H   UNL     1     -11.361   0.583  17.823  0.00  0.00    +0.000 HD
ATOM     25  H   UNL     1      -9.982  -1.284  18.624  0.00  0.00    +0.000 HD
ATOM     26  H   UNL     1     -12.282  -4.021  16.209  0.00  0.00    +0.000 HD
ATOM     27  H   UNL     1     -13.649  -2.158  15.396  0.00  0.00    +0.000 HD
BRANCH  18  28
ATOM     28  S   UNL     1     -13.609   0.725  15.935  0.00  0.00    +0.000 S 
ATOM     29  O   UNL     1     -15.072   0.457  16.442  0.00  0.00    +0.000 OA
BRANCH  28  30
ATOM     30  C   UNL     1     -13.568   0.324  14.169  0.00  0.00    +0.000 C 
ATOM     31  H   UNL     1     -12.530   0.149  13.877  0.00  0.00    +0.000 HD
ATOM     32  H   UNL     1     -13.973   1.158  13.588  0.00  0.00    +0.000 HD
ATOM     33  H   UNL     1     -14.145  -0.583  13.978  0.00  0.00    +0.000 HD
ENDBRANCH  28  30
ENDBRANCH  18  28
ENDBRANCH   1  21
BRANCH   4  34
ATOM     34  C   UNL     1      -7.103  -4.999  19.646  0.00  0.00    +0.000 A 
ATOM     35  C   UNL     1      -6.847  -4.286  20.817  0.00  0.00    +0.000 A 
ATOM     36  C   UNL     1      -5.557  -4.289  21.329  0.00  0.00    +0.000 A 
ATOM     37  N   UNL     1      -4.516  -4.931  20.755  0.00  0.00    +0.000 NA
ATOM     38  C   UNL     1      -4.791  -5.648  19.653  0.00  0.00    +0.000 A 
ATOM     39  C   UNL     1      -6.059  -5.759  19.108  0.00  0.00    +0.000 A 
ATOM     40  H   UNL     1      -7.605  -3.692  21.312  0.00  0.00    +0.000 HD
ATOM     41  H   UNL     1      -5.311  -3.740  22.233  0.00  0.00    +0.000 HD
ATOM     42  H   UNL     1      -3.939  -6.129  19.176  0.00  0.00    +0.000 HD
ATOM     43  H   UNL     1      -6.195  -6.377  18.225  0.00  0.00    +0.000 HD
ENDBRANCH   4  34
TORSDOF 5
ENDMDL
