
 OpenBabel01112422143D

 59 61  0  0  1  0  0  0  0  0999 V2000
    6.7255    4.2433   -8.9501 N   0  0  0  0  0  0  0  0  0  0  0  0
    6.3106    3.0768   -8.1500 C   0  0  3  0  0  0  0  0  0  0  0  0
    6.7175    1.7745   -8.8665 C   0  0  0  0  0  0  0  0  0  0  0  0
    6.3052    0.4873   -8.1531 C   0  0  0  0  0  0  0  0  0  0  0  0
    4.8150    0.4169   -7.9539 C   0  0  0  0  0  0  0  0  0  0  0  0
    4.2514    0.9149   -6.9884 O   0  0  0  0  0  0  0  0  0  0  0  0
    4.1507   -0.1799   -8.9620 O   0  0  0  0  0  0  0  0  0  0  0  0
    6.9620    3.1758   -6.7518 C   0  0  0  0  0  0  0  0  0  0  0  0
    8.0698    3.6805   -6.5692 O   0  0  0  0  0  0  0  0  0  0  0  0
    6.2322    2.5879   -5.7386 N   0  0  0  0  0  0  0  0  0  0  0  0
    6.7173    2.5706   -4.3826 C   0  0  0  0  0  0  0  0  0  0  0  0
    6.2529    3.7951   -3.5994 C   0  0  0  0  0  0  0  0  0  0  0  0
    6.8414    3.8126   -2.1861 C   0  0  0  0  0  0  0  0  0  0  0  0
    8.3752    3.8932   -2.1636 C   0  0  0  0  0  0  0  0  0  0  0  0
    8.9168    5.1013   -2.9244 C   0  0  0  0  0  0  0  0  0  0  0  0
    8.4196    6.3548   -2.3310 N   0  0  0  0  0  0  0  0  0  0  0  0
    9.3490    7.2673   -1.8558 C   0  0  0  0  0  0  0  0  0  0  0  0
    9.8676    8.3352   -2.4766 C   0  0  0  0  0  0  0  0  0  0  0  0
    9.4782    8.7918   -3.7489 C   0  0  0  0  0  0  0  0  0  0  0  0
    9.9599    9.7722   -4.5894 C   0  0  0  0  0  0  0  0  0  0  0  0
    9.0836    9.8591   -5.7050 C   0  0  0  0  0  0  0  0  0  0  0  0
    9.0523   10.6876   -6.8409 C   0  0  0  0  0  0  0  0  0  0  0  0
    8.0299   10.5105   -7.7786 C   0  0  0  0  0  0  0  0  0  0  0  0
    7.0503    9.5360   -7.5943 C   0  0  0  0  0  0  0  0  0  0  0  0
    7.0531    8.7101   -6.4648 C   0  0  0  0  0  0  0  0  0  0  0  0
    8.0906    8.8967   -5.5434 C   0  0  0  0  0  0  0  0  0  0  0  0
    8.3665    8.2433   -4.3651 N   0  0  0  0  0  0  0  0  0  0  0  0
   10.8514    8.9499   -1.5649 C   0  0  0  0  0  0  0  0  0  0  0  0
   11.5774    9.8972   -1.8028 O   0  0  0  0  0  0  0  0  0  0  0  0
   10.8068    8.2597   -0.4010 N   0  0  0  0  0  0  0  0  0  0  0  0
    9.9176    7.2381   -0.4784 C   0  0  0  0  0  0  0  0  0  0  0  0
    9.6205    6.4471    0.3924 O   0  0  0  0  0  0  0  0  0  0  0  0
    6.4425    4.1455   -9.9204 H   0  0  0  0  0  0  0  0  0  0  0  0
    7.7475    4.3023   -8.9312 H   0  0  0  0  0  0  0  0  0  0  0  0
    5.2234    3.1381   -8.0408 H   0  0  0  0  0  0  0  0  0  0  0  0
    7.8074    1.7512   -8.9989 H   0  0  0  0  0  0  0  0  0  0  0  0
    6.2778    1.7697   -9.8727 H   0  0  0  0  0  0  0  0  0  0  0  0
    6.7852    0.3997   -7.1723 H   0  0  0  0  0  0  0  0  0  0  0  0
    6.6406   -0.3911   -8.7156 H   0  0  0  0  0  0  0  0  0  0  0  0
    4.7152   -0.5273   -9.6790 H   0  0  0  0  0  0  0  0  0  0  0  0
    5.3236    2.1676   -5.9384 H   0  0  0  0  0  0  0  0  0  0  0  0
    7.8096    2.5185   -4.4221 H   0  0  0  0  0  0  0  0  0  0  0  0
    6.3582    1.6547   -3.9044 H   0  0  0  0  0  0  0  0  0  0  0  0
    5.1587    3.8020   -3.5345 H   0  0  0  0  0  0  0  0  0  0  0  0
    6.5122    4.7157   -4.1368 H   0  0  0  0  0  0  0  0  0  0  0  0
    6.5215    2.9172   -1.6416 H   0  0  0  0  0  0  0  0  0  0  0  0
    6.4141    4.6603   -1.6382 H   0  0  0  0  0  0  0  0  0  0  0  0
    8.8029    2.9809   -2.5948 H   0  0  0  0  0  0  0  0  0  0  0  0
    8.7227    3.9196   -1.1238 H   0  0  0  0  0  0  0  0  0  0  0  0
    8.6155    5.0709   -3.9754 H   0  0  0  0  0  0  0  0  0  0  0  0
   10.0143    5.0679   -2.9324 H   0  0  0  0  0  0  0  0  0  0  0  0
    7.7352    6.1697   -1.5943 H   0  0  0  0  0  0  0  0  0  0  0  0
   10.8306   10.3810   -4.4060 H   0  0  0  0  0  0  0  0  0  0  0  0
    9.8054   11.4513   -6.9750 H   0  0  0  0  0  0  0  0  0  0  0  0
    8.0076   11.1432   -8.6619 H   0  0  0  0  0  0  0  0  0  0  0  0
    6.2702    9.4130   -8.3421 H   0  0  0  0  0  0  0  0  0  0  0  0
    6.2876    7.9552   -6.3217 H   0  0  0  0  0  0  0  0  0  0  0  0
    7.8253    7.4861   -3.9786 H   0  0  0  0  0  0  0  0  0  0  0  0
   11.3637    8.4805    0.4023 H   0  0  0  0  0  0  0  0  0  0  0  0
  1  2  1  0  0  0  0
  1 33  1  0  0  0  0
  1 34  1  0  0  0  0
  2  3  1  0  0  0  0
  2  8  1  0  0  0  0
  2 35  1  0  0  0  0
  3  4  1  0  0  0  0
  3 36  1  0  0  0  0
  3 37  1  0  0  0  0
  4  5  1  0  0  0  0
  4 38  1  0  0  0  0
  4 39  1  0  0  0  0
  5  6  2  0  0  0  0
  5  7  1  0  0  0  0
  7 40  1  0  0  0  0
  8  9  2  0  0  0  0
  8 10  1  0  0  0  0
 10 11  1  0  0  0  0
 10 41  1  0  0  0  0
 11 12  1  0  0  0  0
 11 42  1  0  0  0  0
 11 43  1  0  0  0  0
 12 13  1  0  0  0  0
 12 44  1  0  0  0  0
 12 45  1  0  0  0  0
 13 14  1  0  0  0  0
 13 46  1  0  0  0  0
 13 47  1  0  0  0  0
 14 15  1  0  0  0  0
 14 48  1  0  0  0  0
 14 49  1  0  0  0  0
 15 16  1  0  0  0  0
 15 50  1  0  0  0  0
 15 51  1  0  0  0  0
 16 17  1  0  0  0  0
 16 52  1  0  0  0  0
 17 18  2  0  0  0  0
 17 31  1  0  0  0  0
 18 19  1  0  0  0  0
 18 28  1  0  0  0  0
 19 20  2  0  0  0  0
 19 27  1  0  0  0  0
 20 21  1  0  0  0  0
 20 53  1  0  0  0  0
 21 22  1  0  0  0  0
 21 26  2  0  0  0  0
 22 23  2  0  0  0  0
 22 54  1  0  0  0  0
 23 24  1  0  0  0  0
 23 55  1  0  0  0  0
 24 25  2  0  0  0  0
 24 56  1  0  0  0  0
 25 26  1  0  0  0  0
 25 57  1  0  0  0  0
 26 27  1  0  0  0  0
 27 58  1  0  0  0  0
 28 29  2  0  0  0  0
 28 30  1  0  0  0  0
 30 31  1  0  0  0  0
 30 59  1  0  0  0  0
 31 32  2  0  0  0  0
M  END
$$$$
