
 OpenBabel01112422353D

 61 66  0  0  0  0  0  0  0  0999 V2000
    1.4272    0.6386   -0.5928 C   0  0  0  0  0  0  0  0  0  0  0  0
    2.6373    0.0195   -0.1701 O   0  0  0  0  0  0  0  0  0  0  0  0
    3.1874   -0.9093   -1.0159 C   0  0  0  0  0  0  0  0  0  0  0  0
    2.7263   -1.2101   -2.2921 C   0  0  0  0  0  0  0  0  0  0  0  0
    3.3370   -2.2167   -3.0503 C   0  0  0  0  0  0  0  0  0  0  0  0
    4.4324   -2.9252   -2.5230 C   0  0  0  0  0  0  0  0  0  0  0  0
    5.2323   -3.9991   -2.8815 C   0  0  0  0  0  0  0  0  0  0  0  0
    5.1426   -4.6204   -4.1404 C   0  0  0  0  0  0  0  0  0  0  0  0
    5.8689   -5.8077   -4.2945 C   0  0  0  0  0  0  0  0  0  0  0  0
    6.9567   -6.1438   -3.4927 C   0  0  0  0  0  0  0  0  0  0  0  0
    7.1571   -5.3749   -2.3032 C   0  0  0  0  0  0  0  0  0  0  0  0
    8.4159   -5.4309   -1.6885 C   0  0  0  0  0  0  0  0  0  0  0  0
    9.5338   -5.7002   -2.4887 C   0  0  0  0  0  0  0  0  0  0  0  0
    9.2751   -6.0726   -3.8087 C   0  0  0  0  0  0  0  0  0  0  0  0
    9.4683   -5.4437   -5.1034 C   0  0  0  0  0  0  0  0  0  0  0  0
    8.7796   -6.2009   -6.0286 C   0  0  0  0  0  0  0  0  0  0  0  0
    8.4328   -7.3337   -5.3022 N   0  0  0  0  0  0  0  0  0  0  0  0
    9.3407   -8.4900   -5.4279 C   0  0  0  0  0  0  0  0  0  0  0  0
    8.0915   -6.7960   -4.0496 C   0  0  0  0  0  0  0  0  0  0  0  0
    6.2026   -4.3658   -1.9700 C   0  0  0  0  0  0  0  0  0  0  0  0
    6.0419   -3.3977   -0.9878 N   0  0  0  0  0  0  0  0  0  0  0  0
    6.8248   -3.2661    0.2316 C   0  0  0  0  0  0  0  0  0  0  0  0
    8.1359   -2.4812    0.1169 C   0  0  0  0  0  0  0  0  0  0  0  0
    7.9886   -0.9806   -0.1487 C   0  0  0  0  0  0  0  0  0  0  0  0
    9.3390   -0.3933   -0.1650 N   0  0  0  0  0  0  0  0  0  0  0  0
    9.2950    1.0569   -0.4181 C   0  0  0  0  0  0  0  0  0  0  0  0
   10.7100    1.6547   -0.4077 C   0  0  0  0  0  0  0  0  0  0  0  0
   11.5225    1.0522   -1.4111 O   0  0  0  0  0  0  0  0  0  0  0  0
    4.9237   -2.5858   -1.2557 C   0  0  0  0  0  0  0  0  0  0  0  0
    4.3030   -1.5755   -0.4933 C   0  0  0  0  0  0  0  0  0  0  0  0
    5.5229   -6.3434   -5.5742 C   0  0  0  0  0  0  0  0  0  0  0  0
    5.5264   -7.4876   -6.0290 O   0  0  0  0  0  0  0  0  0  0  0  0
    5.0145   -5.2652   -6.2400 N   0  0  0  0  0  0  0  0  0  0  0  0
    4.6600   -4.2227   -5.4222 C   0  0  0  0  0  0  0  0  0  0  0  0
    4.2188   -3.1666   -5.8665 O   0  0  0  0  0  0  0  0  0  0  0  0
    1.0936    1.3004    0.2117 H   0  0  0  0  0  0  0  0  0  0  0  0
    0.6362   -0.0997   -0.7660 H   0  0  0  0  0  0  0  0  0  0  0  0
    1.5952    1.2544   -1.4815 H   0  0  0  0  0  0  0  0  0  0  0  0
    1.8765   -0.7002   -2.7345 H   0  0  0  0  0  0  0  0  0  0  0  0
    2.9231   -2.4526   -4.0264 H   0  0  0  0  0  0  0  0  0  0  0  0
    8.6149   -4.9998   -0.7234 H   0  0  0  0  0  0  0  0  0  0  0  0
   10.5189   -5.3853   -2.1717 H   0  0  0  0  0  0  0  0  0  0  0  0
    9.9034   -4.4635   -5.2833 H   0  0  0  0  0  0  0  0  0  0  0  0
    8.6032   -6.1438   -7.0998 H   0  0  0  0  0  0  0  0  0  0  0  0
    9.2051   -8.9299   -6.4208 H   0  0  0  0  0  0  0  0  0  0  0  0
    9.1344   -9.2129   -4.6356 H   0  0  0  0  0  0  0  0  0  0  0  0
   10.3725   -8.1308   -5.3336 H   0  0  0  0  0  0  0  0  0  0  0  0
    7.0196   -4.2853    0.5896 H   0  0  0  0  0  0  0  0  0  0  0  0
    6.1837   -2.8166    1.0169 H   0  0  0  0  0  0  0  0  0  0  0  0
    8.7633   -2.9006   -0.6730 H   0  0  0  0  0  0  0  0  0  0  0  0
    8.6857   -2.6185    1.0591 H   0  0  0  0  0  0  0  0  0  0  0  0
    7.3838   -0.5188    0.6393 H   0  0  0  0  0  0  0  0  0  0  0  0
    7.4984   -0.8146   -1.1138 H   0  0  0  0  0  0  0  0  0  0  0  0
    9.8634   -0.8265   -0.9271 H   0  0  0  0  0  0  0  0  0  0  0  0
    8.6929    1.5603    0.3459 H   0  0  0  0  0  0  0  0  0  0  0  0
    8.8422    1.2356   -1.3998 H   0  0  0  0  0  0  0  0  0  0  0  0
   11.1974    1.5245    0.5633 H   0  0  0  0  0  0  0  0  0  0  0  0
   10.6623    2.7309   -0.6186 H   0  0  0  0  0  0  0  0  0  0  0  0
   11.7070    0.1513   -1.0948 H   0  0  0  0  0  0  0  0  0  0  0  0
    4.6514   -1.3209    0.5017 H   0  0  0  0  0  0  0  0  0  0  0  0
    5.5912   -4.9637   -7.0150 H   0  0  0  0  0  0  0  0  0  0  0  0
  1  2  1  0  0  0  0
  1 36  1  0  0  0  0
  1 37  1  0  0  0  0
  1 38  1  0  0  0  0
  2  3  1  0  0  0  0
  3  4  1  0  0  0  0
  3 30  2  0  0  0  0
  4  5  2  0  0  0  0
  4 39  1  0  0  0  0
  5  6  1  0  0  0  0
  5 40  1  0  0  0  0
  6  7  1  0  0  0  0
  6 29  2  0  0  0  0
  7  8  1  0  0  0  0
  7 20  2  0  0  0  0
  8  9  2  0  0  0  0
  8 34  1  0  0  0  0
  9 10  1  0  0  0  0
  9 31  1  0  0  0  0
 10 11  1  0  0  0  0
 10 19  2  0  0  0  0
 11 12  2  0  0  0  0
 11 20  1  0  0  0  0
 12 13  1  0  0  0  0
 12 41  1  0  0  0  0
 13 14  2  0  0  0  0
 13 42  1  0  0  0  0
 14 15  1  0  0  0  0
 14 19  1  0  0  0  0
 15 16  2  0  0  0  0
 15 43  1  0  0  0  0
 16 17  1  0  0  0  0
 16 44  1  0  0  0  0
 17 18  1  0  0  0  0
 17 19  1  0  0  0  0
 18 45  1  0  0  0  0
 18 46  1  0  0  0  0
 18 47  1  0  0  0  0
 20 21  1  0  0  0  0
 21 22  1  0  0  0  0
 21 29  1  0  0  0  0
 22 23  1  0  0  0  0
 22 48  1  0  0  0  0
 22 49  1  0  0  0  0
 23 24  1  0  0  0  0
 23 50  1  0  0  0  0
 23 51  1  0  0  0  0
 24 25  1  0  0  0  0
 24 52  1  0  0  0  0
 24 53  1  0  0  0  0
 25 26  1  0  0  0  0
 25 54  1  0  0  0  0
 26 27  1  0  0  0  0
 26 55  1  0  0  0  0
 26 56  1  0  0  0  0
 27 28  1  0  0  0  0
 27 57  1  0  0  0  0
 27 58  1  0  0  0  0
 28 59  1  0  0  0  0
 29 30  1  0  0  0  0
 30 60  1  0  0  0  0
 31 32  2  0  0  0  0
 31 33  1  0  0  0  0
 33 34  1  0  0  0  0
 33 61  1  0  0  0  0
 34 35  2  0  0  0  0
M  END
$$$$
