MODEL 1
REMARK VINA RESULT:   -11.261      0.000      0.000
REMARK INTER + INTRA:         -21.197
REMARK INTER:                 -18.173
REMARK INTRA:                  -3.024
REMARK UNBOUND:                -3.024
REMARK  Name = 
REMARK  13 active torsions:
REMARK  status: ('A' for Active; 'I' for Inactive)
REMARK    1  A    between atoms: C_2  and  C_36
REMARK    2  A    between atoms: N_3  and  C_4
REMARK    3  A    between atoms: C_12  and  O_13
REMARK    4  A    between atoms: O_13  and  C_14
REMARK    5  A    between atoms: C_14  and  C_16
REMARK    6  A    between atoms: C_18  and  O_19
REMARK    7  A    between atoms: C_20  and  C_21
REMARK    8  A    between atoms: C_21  and  C_23
REMARK    9  A    between atoms: C_24  and  O_25
REMARK   10  A    between atoms: C_29  and  C_30
REMARK   11  A    between atoms: C_30  and  O_32
REMARK   12  A    between atoms: C_33  and  O_34
REMARK   13  A    between atoms: C_39  and  O_40
REMARK                            x       y       z     vdW  Elec       q    Type
REMARK                         _______ _______ _______ _____ _____    ______ ____
ROOT
ATOM      1  C   UNL     1      -8.992  -2.823  21.016  0.00  0.00    +0.000 C 
ATOM      2  C   UNL     1      -9.274  -1.542  21.752  0.00  0.00    +0.000 A 
ATOM      3  C   UNL     1     -10.282  -0.615  21.528  0.00  0.00    +0.000 A 
ATOM      4  C   UNL     1     -10.357   0.501  22.365  0.00  0.00    +0.000 A 
ATOM      5  C   UNL     1      -9.451   0.664  23.425  0.00  0.00    +0.000 A 
ATOM      6  C   UNL     1      -8.455  -0.284  23.661  0.00  0.00    +0.000 A 
ATOM      7  C   UNL     1      -8.372  -1.373  22.810  0.00  0.00    +0.000 A 
ATOM      8  C   UNL     1      -7.405  -2.511  22.874  0.00  0.00    +0.000 C 
ATOM      9  C   UNL     1      -7.517  -3.089  21.448  0.00  0.00    +0.000 C 
ATOM     10  H   UNL     1      -9.653  -3.620  21.383  0.00  0.00    +0.000 HD
ATOM     11  H   UNL     1     -10.999  -0.746  20.724  0.00  0.00    +0.000 HD
ATOM     12  H   UNL     1     -11.130   1.248  22.202  0.00  0.00    +0.000 HD
ATOM     13  H   UNL     1      -9.532   1.534  24.072  0.00  0.00    +0.000 HD
ATOM     14  H   UNL     1      -7.764  -0.165  24.489  0.00  0.00    +0.000 HD
ATOM     15  H   UNL     1      -7.717  -3.240  23.632  0.00  0.00    +0.000 HD
ATOM     16  H   UNL     1      -6.386  -2.182  23.092  0.00  0.00    +0.000 HD
ATOM     17  H   UNL     1      -6.834  -2.566  20.764  0.00  0.00    +0.000 HD
ENDROOT
BRANCH   1  20
ATOM     18  O   UNL     1     -11.329  -3.398  19.534  0.00  0.00    +0.000 OA
ATOM     19  C   UNL     1     -10.328  -3.004  18.947  0.00  0.00    +0.000 C 
ATOM     20  N   UNL     1      -9.147  -2.684  19.579  0.00  0.00    +0.000 N 
ATOM     21  H   UNL     1      -8.382  -2.273  19.060  0.00  0.00    +0.000 HD
BRANCH  19  22
ATOM     22  C   UNL     1     -10.358  -2.808  17.471  0.00  0.00    +0.000 A 
ATOM     23  C   UNL     1     -10.705  -3.895  16.655  0.00  0.00    +0.000 A 
ATOM     24  C   UNL     1     -10.714  -3.756  15.260  0.00  0.00    +0.000 A 
ATOM     25  C   UNL     1     -10.367  -2.534  14.697  0.00  0.00    +0.000 A 
ATOM     26  C   UNL     1     -10.018  -1.451  15.495  0.00  0.00    +0.000 A 
ATOM     27  C   UNL     1     -10.010  -1.584  16.885  0.00  0.00    +0.000 A 
ATOM     28  H   UNL     1     -10.966  -4.851  17.101  0.00  0.00    +0.000 HD
ATOM     29  H   UNL     1     -10.987  -4.606  14.645  0.00  0.00    +0.000 HD
ATOM     30  H   UNL     1      -9.737  -0.507  15.033  0.00  0.00    +0.000 HD
ATOM     31  H   UNL     1      -9.698  -0.739  17.491  0.00  0.00    +0.000 HD
BRANCH  25  32
ATOM     32  O   UNL     1     -10.344  -2.356  13.344  0.00  0.00    +0.000 OA
ATOM     33  H   UNL     1     -10.800  -3.101  12.921  0.00  0.00    +0.000 HD
ENDBRANCH  25  32
ENDBRANCH  19  22
ENDBRANCH   1  20
BRANCH   9  34
ATOM     34  O   UNL     1      -7.239  -4.492  21.457  0.00  0.00    +0.000 OA
BRANCH  34  35
ATOM     35  C   UNL     1      -6.497  -4.963  20.423  0.00  0.00    +0.000 C 
ATOM     36  O   UNL     1      -5.337  -4.683  20.179  0.00  0.00    +0.000 OA
BRANCH  35  37
ATOM     37  C   UNL     1      -7.303  -5.921  19.625  0.00  0.00    +0.000 A 
ATOM     38  C   UNL     1      -8.098  -6.869  20.276  0.00  0.00    +0.000 A 
ATOM     39  C   UNL     1      -8.856  -7.774  19.522  0.00  0.00    +0.000 A 
ATOM     40  C   UNL     1      -8.868  -7.737  18.109  0.00  0.00    +0.000 A 
ATOM     41  C   UNL     1      -8.102  -6.743  17.480  0.00  0.00    +0.000 A 
ATOM     42  C   UNL     1      -7.305  -5.877  18.230  0.00  0.00    +0.000 A 
ATOM     43  H   UNL     1      -8.106  -6.903  21.365  0.00  0.00    +0.000 HD
ATOM     44  H   UNL     1      -6.690  -5.154  17.694  0.00  0.00    +0.000 HD
BRANCH  39  45
ATOM     45  O   UNL     1      -9.566  -8.730  20.201  0.00  0.00    +0.000 OA
ATOM     46  H   UNL     1     -10.514  -8.660  19.997  0.00  0.00    +0.000 HD
ENDBRANCH  39  45
BRANCH  40  47
ATOM     47  C   UNL     1      -9.708  -8.725  17.358  0.00  0.00    +0.000 C 
ATOM     48  O   UNL     1     -10.935  -8.619  17.398  0.00  0.00    +0.000 OA
BRANCH  47  49
ATOM     49  C   UNL     1      -9.150  -9.765  16.451  0.00  0.00    +0.000 A 
ATOM     50  C   UNL     1      -9.057  -9.564  15.058  0.00  0.00    +0.000 A 
ATOM     51  C   UNL     1      -8.723 -10.615  14.200  0.00  0.00    +0.000 A 
ATOM     52  C   UNL     1      -8.406 -11.866  14.708  0.00  0.00    +0.000 A 
ATOM     53  C   UNL     1      -8.396 -12.059  16.084  0.00  0.00    +0.000 A 
ATOM     54  C   UNL     1      -8.767 -11.027  16.971  0.00  0.00    +0.000 A 
ATOM     55  H   UNL     1      -8.724 -10.456  13.122  0.00  0.00    +0.000 HD
ATOM     56  H   UNL     1      -8.158 -12.686  14.038  0.00  0.00    +0.000 HD
ATOM     57  H   UNL     1      -8.121 -13.042  16.473  0.00  0.00    +0.000 HD
BRANCH  50  58
ATOM     58  O   UNL     1      -9.314  -8.395  14.396  0.00  0.00    +0.000 OA
ATOM     59  H   UNL     1      -9.658  -7.697  14.975  0.00  0.00    +0.000 HD
ENDBRANCH  50  58
BRANCH  54  60
ATOM     60  C   UNL     1      -8.734 -11.451  18.408  0.00  0.00    +0.000 C 
ATOM     61  O   UNL     1      -8.099 -10.847  19.249  0.00  0.00    +0.000 OA
BRANCH  60  62
ATOM     62  O   UNL     1      -9.245 -12.679  18.627  0.00  0.00    +0.000 OA
ATOM     63  H   UNL     1      -9.109 -12.913  19.577  0.00  0.00    +0.000 HD
ENDBRANCH  60  62
ENDBRANCH  54  60
ENDBRANCH  47  49
ENDBRANCH  40  47
BRANCH  41  64
ATOM     64  O   UNL     1      -8.033  -6.476  16.142  0.00  0.00    +0.000 OA
ATOM     65  H   UNL     1      -8.567  -7.065  15.593  0.00  0.00    +0.000 HD
ENDBRANCH  41  64
ENDBRANCH  35  37
ENDBRANCH  34  35
ENDBRANCH   9  34
TORSDOF 13
ENDMDL
MODEL 2
REMARK VINA RESULT:   -11.218      0.760      2.388
REMARK INTER + INTRA:         -21.128
REMARK INTER:                 -17.899
REMARK INTRA:                  -3.229
REMARK UNBOUND:                -3.024
REMARK  Name = 
REMARK  13 active torsions:
REMARK  status: ('A' for Active; 'I' for Inactive)
REMARK    1  A    between atoms: C_2  and  C_36
REMARK    2  A    between atoms: N_3  and  C_4
REMARK    3  A    between atoms: C_12  and  O_13
REMARK    4  A    between atoms: O_13  and  C_14
REMARK    5  A    between atoms: C_14  and  C_16
REMARK    6  A    between atoms: C_18  and  O_19
REMARK    7  A    between atoms: C_20  and  C_21
REMARK    8  A    between atoms: C_21  and  C_23
REMARK    9  A    between atoms: C_24  and  O_25
REMARK   10  A    between atoms: C_29  and  C_30
REMARK   11  A    between atoms: C_30  and  O_32
REMARK   12  A    between atoms: C_33  and  O_34
REMARK   13  A    between atoms: C_39  and  O_40
REMARK                            x       y       z     vdW  Elec       q    Type
REMARK                         _______ _______ _______ _____ _____    ______ ____
ROOT
ATOM      1  C   UNL     1      -9.052  -3.008  20.883  0.00  0.00    +0.000 C 
ATOM      2  C   UNL     1      -9.198  -1.756  21.705  0.00  0.00    +0.000 A 
ATOM      3  C   UNL     1     -10.162  -0.762  21.611  0.00  0.00    +0.000 A 
ATOM      4  C   UNL     1     -10.104   0.307  22.507  0.00  0.00    +0.000 A 
ATOM      5  C   UNL     1      -9.110   0.359  23.497  0.00  0.00    +0.000 A 
ATOM      6  C   UNL     1      -8.157  -0.655  23.603  0.00  0.00    +0.000 A 
ATOM      7  C   UNL     1      -8.207  -1.697  22.693  0.00  0.00    +0.000 A 
ATOM      8  C   UNL     1      -7.309  -2.889  22.620  0.00  0.00    +0.000 C 
ATOM      9  C   UNL     1      -7.566  -3.379  21.179  0.00  0.00    +0.000 C 
ATOM     10  H   UNL     1      -9.729  -3.785  21.261  0.00  0.00    +0.000 HD
ATOM     11  H   UNL     1     -10.946  -0.808  20.862  0.00  0.00    +0.000 HD
ATOM     12  H   UNL     1     -10.841   1.104  22.446  0.00  0.00    +0.000 HD
ATOM     13  H   UNL     1      -9.087   1.195  24.192  0.00  0.00    +0.000 HD
ATOM     14  H   UNL     1      -7.398  -0.621  24.377  0.00  0.00    +0.000 HD
ATOM     15  H   UNL     1      -7.604  -3.641  23.362  0.00  0.00    +0.000 HD
ATOM     16  H   UNL     1      -6.257  -2.631  22.771  0.00  0.00    +0.000 HD
ATOM     17  H   UNL     1      -6.908  -2.858  20.470  0.00  0.00    +0.000 HD
ENDROOT
BRANCH   1  20
ATOM     18  O   UNL     1     -10.593  -4.662  19.187  0.00  0.00    +0.000 OA
ATOM     19  C   UNL     1     -10.066  -3.656  18.727  0.00  0.00    +0.000 C 
ATOM     20  N   UNL     1      -9.310  -2.779  19.472  0.00  0.00    +0.000 N 
ATOM     21  H   UNL     1      -8.977  -1.915  19.066  0.00  0.00    +0.000 HD
BRANCH  19  22
ATOM     22  C   UNL     1     -10.262  -3.302  17.293  0.00  0.00    +0.000 A 
ATOM     23  C   UNL     1     -10.595  -4.320  16.389  0.00  0.00    +0.000 A 
ATOM     24  C   UNL     1     -10.756  -4.030  15.027  0.00  0.00    +0.000 A 
ATOM     25  C   UNL     1     -10.573  -2.726  14.584  0.00  0.00    +0.000 A 
ATOM     26  C   UNL     1     -10.239  -1.709  15.470  0.00  0.00    +0.000 A 
ATOM     27  C   UNL     1     -10.079  -1.993  16.828  0.00  0.00    +0.000 A 
ATOM     28  H   UNL     1     -10.729  -5.341  16.740  0.00  0.00    +0.000 HD
ATOM     29  H   UNL     1     -11.018  -4.830  14.343  0.00  0.00    +0.000 HD
ATOM     30  H   UNL     1     -10.087  -0.698  15.101  0.00  0.00    +0.000 HD
ATOM     31  H   UNL     1      -9.781  -1.194  17.500  0.00  0.00    +0.000 HD
BRANCH  25  32
ATOM     32  O   UNL     1     -10.702  -2.398  13.266  0.00  0.00    +0.000 OA
ATOM     33  H   UNL     1     -10.471  -3.171  12.725  0.00  0.00    +0.000 HD
ENDBRANCH  25  32
ENDBRANCH  19  22
ENDBRANCH   1  20
BRANCH   9  34
ATOM     34  O   UNL     1      -7.374  -4.794  21.093  0.00  0.00    +0.000 OA
BRANCH  34  35
ATOM     35  C   UNL     1      -6.712  -5.244  19.998  0.00  0.00    +0.000 C 
ATOM     36  O   UNL     1      -5.600  -4.904  19.634  0.00  0.00    +0.000 OA
BRANCH  35  37
ATOM     37  C   UNL     1      -7.535  -6.262  19.299  0.00  0.00    +0.000 A 
ATOM     38  C   UNL     1      -7.585  -6.271  17.901  0.00  0.00    +0.000 A 
ATOM     39  C   UNL     1      -8.364  -7.231  17.241  0.00  0.00    +0.000 A 
ATOM     40  C   UNL     1      -9.082  -8.221  17.951  0.00  0.00    +0.000 A 
ATOM     41  C   UNL     1      -8.973  -8.223  19.350  0.00  0.00    +0.000 A 
ATOM     42  C   UNL     1      -8.242  -7.233  20.009  0.00  0.00    +0.000 A 
ATOM     43  H   UNL     1      -7.030  -5.520  17.341  0.00  0.00    +0.000 HD
ATOM     44  H   UNL     1      -8.228  -7.247  21.098  0.00  0.00    +0.000 HD
BRANCH  39  45
ATOM     45  O   UNL     1      -8.439  -7.160  15.875  0.00  0.00    +0.000 OA
ATOM     46  H   UNL     1      -8.434  -8.051  15.486  0.00  0.00    +0.000 HD
ENDBRANCH  39  45
BRANCH  40  47
ATOM     47  C   UNL     1      -9.888  -9.228  17.188  0.00  0.00    +0.000 C 
ATOM     48  O   UNL     1     -11.026  -8.931  16.824  0.00  0.00    +0.000 OA
BRANCH  47  49
ATOM     49  C   UNL     1      -9.351 -10.537  16.723  0.00  0.00    +0.000 A 
ATOM     50  C   UNL     1      -8.888 -11.514  17.629  0.00  0.00    +0.000 A 
ATOM     51  C   UNL     1      -8.204 -12.646  17.178  0.00  0.00    +0.000 A 
ATOM     52  C   UNL     1      -8.027 -12.868  15.820  0.00  0.00    +0.000 A 
ATOM     53  C   UNL     1      -8.561 -11.967  14.908  0.00  0.00    +0.000 A 
ATOM     54  C   UNL     1      -9.221 -10.796  15.336  0.00  0.00    +0.000 A 
ATOM     55  H   UNL     1      -7.795 -13.355  17.898  0.00  0.00    +0.000 HD
ATOM     56  H   UNL     1      -7.484 -13.744  15.472  0.00  0.00    +0.000 HD
ATOM     57  H   UNL     1      -8.436 -12.165  13.841  0.00  0.00    +0.000 HD
BRANCH  50  58
ATOM     58  O   UNL     1      -8.999 -11.463  18.991  0.00  0.00    +0.000 OA
ATOM     59  H   UNL     1      -8.873 -10.571  19.351  0.00  0.00    +0.000 HD
ENDBRANCH  50  58
BRANCH  54  60
ATOM     60  C   UNL     1      -9.681  -9.936  14.198  0.00  0.00    +0.000 C 
ATOM     61  O   UNL     1     -10.609 -10.251  13.479  0.00  0.00    +0.000 OA
BRANCH  60  62
ATOM     62  O   UNL     1      -8.832  -8.936  13.891  0.00  0.00    +0.000 OA
ATOM     63  H   UNL     1      -8.481  -8.551  14.730  0.00  0.00    +0.000 HD
ENDBRANCH  60  62
ENDBRANCH  54  60
ENDBRANCH  47  49
ENDBRANCH  40  47
BRANCH  41  64
ATOM     64  O   UNL     1      -9.511  -9.129  20.219  0.00  0.00    +0.000 OA
ATOM     65  H   UNL     1     -10.469  -9.230  20.143  0.00  0.00    +0.000 HD
ENDBRANCH  41  64
ENDBRANCH  35  37
ENDBRANCH  34  35
ENDBRANCH   9  34
TORSDOF 13
ENDMDL
MODEL 3
REMARK VINA RESULT:   -11.050      2.354      9.234
REMARK INTER + INTRA:         -20.857
REMARK INTER:                 -18.135
REMARK INTRA:                  -2.722
REMARK UNBOUND:                -3.024
REMARK  Name = 
REMARK  13 active torsions:
REMARK  status: ('A' for Active; 'I' for Inactive)
REMARK    1  A    between atoms: C_2  and  C_36
REMARK    2  A    between atoms: N_3  and  C_4
REMARK    3  A    between atoms: C_12  and  O_13
REMARK    4  A    between atoms: O_13  and  C_14
REMARK    5  A    between atoms: C_14  and  C_16
REMARK    6  A    between atoms: C_18  and  O_19
REMARK    7  A    between atoms: C_20  and  C_21
REMARK    8  A    between atoms: C_21  and  C_23
REMARK    9  A    between atoms: C_24  and  O_25
REMARK   10  A    between atoms: C_29  and  C_30
REMARK   11  A    between atoms: C_30  and  O_32
REMARK   12  A    between atoms: C_33  and  O_34
REMARK   13  A    between atoms: C_39  and  O_40
REMARK                            x       y       z     vdW  Elec       q    Type
REMARK                         _______ _______ _______ _____ _____    ______ ____
ROOT
ATOM      1  C   UNL     1     -10.115  -7.935  18.154  0.00  0.00    +0.000 C 
ATOM      2  C   UNL     1      -9.542  -9.294  17.857  0.00  0.00    +0.000 A 
ATOM      3  C   UNL     1      -8.800 -10.124  18.684  0.00  0.00    +0.000 A 
ATOM      4  C   UNL     1      -8.392 -11.364  18.188  0.00  0.00    +0.000 A 
ATOM      5  C   UNL     1      -8.748 -11.771  16.893  0.00  0.00    +0.000 A 
ATOM      6  C   UNL     1      -9.516 -10.942  16.073  0.00  0.00    +0.000 A 
ATOM      7  C   UNL     1      -9.893  -9.704  16.564  0.00  0.00    +0.000 A 
ATOM      8  C   UNL     1     -10.719  -8.663  15.880  0.00  0.00    +0.000 C 
ATOM      9  C   UNL     1     -10.380  -7.407  16.710  0.00  0.00    +0.000 C 
ATOM     10  H   UNL     1     -11.057  -8.038  18.708  0.00  0.00    +0.000 HD
ATOM     11  H   UNL     1      -8.540  -9.825  19.695  0.00  0.00    +0.000 HD
ATOM     12  H   UNL     1      -7.799 -12.028  18.814  0.00  0.00    +0.000 HD
ATOM     13  H   UNL     1      -8.429 -12.744  16.528  0.00  0.00    +0.000 HD
ATOM     14  H   UNL     1      -9.803 -11.263  15.077  0.00  0.00    +0.000 HD
ATOM     15  H   UNL     1     -11.785  -8.913  15.941  0.00  0.00    +0.000 HD
ATOM     16  H   UNL     1     -10.442  -8.533  14.830  0.00  0.00    +0.000 HD
ATOM     17  H   UNL     1      -9.472  -6.921  16.324  0.00  0.00    +0.000 HD
ENDROOT
BRANCH   1  20
ATOM     18  O   UNL     1      -7.842  -6.616  17.114  0.00  0.00    +0.000 OA
ATOM     19  C   UNL     1      -8.106  -6.507  18.306  0.00  0.00    +0.000 C 
ATOM     20  N   UNL     1      -9.196  -7.097  18.905  0.00  0.00    +0.000 N 
ATOM     21  H   UNL     1      -9.421  -6.899  19.871  0.00  0.00    +0.000 HD
BRANCH  19  22
ATOM     22  C   UNL     1      -7.247  -5.666  19.185  0.00  0.00    +0.000 A 
ATOM     23  C   UNL     1      -5.854  -5.807  19.100  0.00  0.00    +0.000 A 
ATOM     24  C   UNL     1      -5.016  -5.055  19.933  0.00  0.00    +0.000 A 
ATOM     25  C   UNL     1      -5.580  -4.176  20.850  0.00  0.00    +0.000 A 
ATOM     26  C   UNL     1      -6.959  -4.030  20.948  0.00  0.00    +0.000 A 
ATOM     27  C   UNL     1      -7.798  -4.777  20.117  0.00  0.00    +0.000 A 
ATOM     28  H   UNL     1      -5.419  -6.502  18.386  0.00  0.00    +0.000 HD
ATOM     29  H   UNL     1      -3.941  -5.174  19.850  0.00  0.00    +0.000 HD
ATOM     30  H   UNL     1      -7.380  -3.348  21.681  0.00  0.00    +0.000 HD
ATOM     31  H   UNL     1      -8.873  -4.678  20.233  0.00  0.00    +0.000 HD
BRANCH  25  32
ATOM     32  O   UNL     1      -4.805  -3.435  21.695  0.00  0.00    +0.000 OA
ATOM     33  H   UNL     1      -4.288  -4.036  22.256  0.00  0.00    +0.000 HD
ENDBRANCH  25  32
ENDBRANCH  19  22
ENDBRANCH   1  20
BRANCH   9  34
ATOM     34  O   UNL     1     -11.479  -6.493  16.701  0.00  0.00    +0.000 OA
BRANCH  34  35
ATOM     35  C   UNL     1     -11.284  -5.326  16.038  0.00  0.00    +0.000 C 
ATOM     36  O   UNL     1     -11.308  -5.167  14.831  0.00  0.00    +0.000 OA
BRANCH  35  37
ATOM     37  C   UNL     1     -11.062  -4.228  17.012  0.00  0.00    +0.000 A 
ATOM     38  C   UNL     1     -10.221  -3.163  16.675  0.00  0.00    +0.000 A 
ATOM     39  C   UNL     1     -10.010  -2.128  17.595  0.00  0.00    +0.000 A 
ATOM     40  C   UNL     1     -10.654  -2.109  18.853  0.00  0.00    +0.000 A 
ATOM     41  C   UNL     1     -11.534  -3.162  19.147  0.00  0.00    +0.000 A 
ATOM     42  C   UNL     1     -11.701  -4.221  18.253  0.00  0.00    +0.000 A 
ATOM     43  H   UNL     1      -9.725  -3.159  15.705  0.00  0.00    +0.000 HD
ATOM     44  H   UNL     1     -12.356  -5.040  18.546  0.00  0.00    +0.000 HD
BRANCH  39  45
ATOM     45  O   UNL     1      -9.124  -1.140  17.251  0.00  0.00    +0.000 OA
ATOM     46  H   UNL     1      -9.329  -0.317  17.726  0.00  0.00    +0.000 HD
ENDBRANCH  39  45
BRANCH  40  47
ATOM     47  C   UNL     1     -10.397  -0.968  19.790  0.00  0.00    +0.000 C 
ATOM     48  O   UNL     1      -9.235  -0.681  20.079  0.00  0.00    +0.000 OA
BRANCH  47  49
ATOM     49  C   UNL     1     -11.463  -0.063  20.303  0.00  0.00    +0.000 A 
ATOM     50  C   UNL     1     -12.089   0.891  19.475  0.00  0.00    +0.000 A 
ATOM     51  C   UNL     1     -12.936   1.864  20.011  0.00  0.00    +0.000 A 
ATOM     52  C   UNL     1     -13.236   1.868  21.366  0.00  0.00    +0.000 A 
ATOM     53  C   UNL     1     -12.706   0.877  22.183  0.00  0.00    +0.000 A 
ATOM     54  C   UNL     1     -11.817  -0.093  21.675  0.00  0.00    +0.000 A 
ATOM     55  H   UNL     1     -13.357   2.634  19.364  0.00  0.00    +0.000 HD
ATOM     56  H   UNL     1     -13.886   2.634  21.784  0.00  0.00    +0.000 HD
ATOM     57  H   UNL     1     -12.968   0.877  23.243  0.00  0.00    +0.000 HD
BRANCH  50  58
ATOM     58  O   UNL     1     -11.924   1.014  18.122  0.00  0.00    +0.000 OA
ATOM     59  H   UNL     1     -12.400   1.771  17.747  0.00  0.00    +0.000 HD
ENDBRANCH  50  58
BRANCH  54  60
ATOM     60  C   UNL     1     -11.326  -1.041  22.726  0.00  0.00    +0.000 C 
ATOM     61  O   UNL     1     -10.309  -0.839  23.359  0.00  0.00    +0.000 OA
BRANCH  60  62
ATOM     62  O   UNL     1     -11.954  -2.234  22.723  0.00  0.00    +0.000 OA
ATOM     63  H   UNL     1     -11.396  -2.884  22.231  0.00  0.00    +0.000 HD
ENDBRANCH  60  62
ENDBRANCH  54  60
ENDBRANCH  47  49
ENDBRANCH  40  47
BRANCH  41  64
ATOM     64  O   UNL     1     -12.316  -3.301  20.258  0.00  0.00    +0.000 OA
ATOM     65  H   UNL     1     -13.209  -2.944  20.162  0.00  0.00    +0.000 HD
ENDBRANCH  41  64
ENDBRANCH  35  37
ENDBRANCH  34  35
ENDBRANCH   9  34
TORSDOF 13
ENDMDL
MODEL 4
REMARK VINA RESULT:   -10.996      2.341      8.947
REMARK INTER + INTRA:         -20.770
REMARK INTER:                 -17.941
REMARK INTRA:                  -2.830
REMARK UNBOUND:                -3.024
REMARK  Name = 
REMARK  13 active torsions:
REMARK  status: ('A' for Active; 'I' for Inactive)
REMARK    1  A    between atoms: C_2  and  C_36
REMARK    2  A    between atoms: N_3  and  C_4
REMARK    3  A    between atoms: C_12  and  O_13
REMARK    4  A    between atoms: O_13  and  C_14
REMARK    5  A    between atoms: C_14  and  C_16
REMARK    6  A    between atoms: C_18  and  O_19
REMARK    7  A    between atoms: C_20  and  C_21
REMARK    8  A    between atoms: C_21  and  C_23
REMARK    9  A    between atoms: C_24  and  O_25
REMARK   10  A    between atoms: C_29  and  C_30
REMARK   11  A    between atoms: C_30  and  O_32
REMARK   12  A    between atoms: C_33  and  O_34
REMARK   13  A    between atoms: C_39  and  O_40
REMARK                            x       y       z     vdW  Elec       q    Type
REMARK                         _______ _______ _______ _____ _____    ______ ____
ROOT
ATOM      1  C   UNL     1      -9.941  -7.723  18.325  0.00  0.00    +0.000 C 
ATOM      2  C   UNL     1      -9.488  -9.125  18.020  0.00  0.00    +0.000 A 
ATOM      3  C   UNL     1      -8.802 -10.013  18.835  0.00  0.00    +0.000 A 
ATOM      4  C   UNL     1      -8.506 -11.282  18.335  0.00  0.00    +0.000 A 
ATOM      5  C   UNL     1      -8.919 -11.659  17.047  0.00  0.00    +0.000 A 
ATOM      6  C   UNL     1      -9.630 -10.770  16.240  0.00  0.00    +0.000 A 
ATOM      7  C   UNL     1      -9.895  -9.505  16.734  0.00  0.00    +0.000 A 
ATOM      8  C   UNL     1     -10.644  -8.400  16.063  0.00  0.00    +0.000 C 
ATOM      9  C   UNL     1     -10.188  -7.176  16.885  0.00  0.00    +0.000 C 
ATOM     10  H   UNL     1     -10.878  -7.748  18.896  0.00  0.00    +0.000 HD
ATOM     11  H   UNL     1      -8.499  -9.735  19.840  0.00  0.00    +0.000 HD
ATOM     12  H   UNL     1      -7.959 -11.992  18.951  0.00  0.00    +0.000 HD
ATOM     13  H   UNL     1      -8.688 -12.655  16.678  0.00  0.00    +0.000 HD
ATOM     14  H   UNL     1      -9.961 -11.067  15.250  0.00  0.00    +0.000 HD
ATOM     15  H   UNL     1     -11.726  -8.562  16.145  0.00  0.00    +0.000 HD
ATOM     16  H   UNL     1     -10.377  -8.294  15.008  0.00  0.00    +0.000 HD
ATOM     17  H   UNL     1      -9.251  -6.767  16.482  0.00  0.00    +0.000 HD
ENDROOT
BRANCH   1  20
ATOM     18  O   UNL     1      -7.595  -6.582  17.238  0.00  0.00    +0.000 OA
ATOM     19  C   UNL     1      -7.823  -6.458  18.435  0.00  0.00    +0.000 C 
ATOM     20  N   UNL     1      -8.943  -6.963  19.057  0.00  0.00    +0.000 N 
ATOM     21  H   UNL     1      -9.130  -6.752  20.028  0.00  0.00    +0.000 HD
BRANCH  19  22
ATOM     22  C   UNL     1      -6.881  -5.691  19.297  0.00  0.00    +0.000 A 
ATOM     23  C   UNL     1      -7.406  -4.891  20.323  0.00  0.00    +0.000 A 
ATOM     24  C   UNL     1      -6.553  -4.131  21.133  0.00  0.00    +0.000 A 
ATOM     25  C   UNL     1      -5.183  -4.171  20.903  0.00  0.00    +0.000 A 
ATOM     26  C   UNL     1      -4.650  -4.957  19.887  0.00  0.00    +0.000 A 
ATOM     27  C   UNL     1      -5.498  -5.718  19.079  0.00  0.00    +0.000 A 
ATOM     28  H   UNL     1      -8.480  -4.857  20.492  0.00  0.00    +0.000 HD
ATOM     29  H   UNL     1      -6.977  -3.521  21.923  0.00  0.00    +0.000 HD
ATOM     30  H   UNL     1      -3.577  -4.964  19.714  0.00  0.00    +0.000 HD
ATOM     31  H   UNL     1      -5.068  -6.296  18.265  0.00  0.00    +0.000 HD
BRANCH  25  32
ATOM     32  O   UNL     1      -4.313  -3.435  21.654  0.00  0.00    +0.000 OA
ATOM     33  H   UNL     1      -3.439  -3.858  21.626  0.00  0.00    +0.000 HD
ENDBRANCH  25  32
ENDBRANCH  19  22
ENDBRANCH   1  20
BRANCH   9  34
ATOM     34  O   UNL     1     -11.208  -6.174  16.894  0.00  0.00    +0.000 OA
BRANCH  34  35
ATOM     35  C   UNL     1     -10.818  -4.918  16.565  0.00  0.00    +0.000 C 
ATOM     36  O   UNL     1     -10.535  -4.516  15.451  0.00  0.00    +0.000 OA
BRANCH  35  37
ATOM     37  C   UNL     1     -10.814  -4.061  17.778  0.00  0.00    +0.000 A 
ATOM     38  C   UNL     1      -9.809  -3.103  17.946  0.00  0.00    +0.000 A 
ATOM     39  C   UNL     1      -9.803  -2.297  19.091  0.00  0.00    +0.000 A 
ATOM     40  C   UNL     1     -10.812  -2.400  20.077  0.00  0.00    +0.000 A 
ATOM     41  C   UNL     1     -11.838  -3.332  19.860  0.00  0.00    +0.000 A 
ATOM     42  C   UNL     1     -11.812  -4.173  18.746  0.00  0.00    +0.000 A 
ATOM     43  H   UNL     1      -9.031  -3.007  17.190  0.00  0.00    +0.000 HD
ATOM     44  H   UNL     1     -12.604  -4.914  18.647  0.00  0.00    +0.000 HD
BRANCH  39  45
ATOM     45  O   UNL     1      -8.762  -1.421  19.248  0.00  0.00    +0.000 OA
ATOM     46  H   UNL     1      -8.265  -1.329  18.418  0.00  0.00    +0.000 HD
ENDBRANCH  39  45
BRANCH  40  47
ATOM     47  C   UNL     1     -10.758  -1.501  21.275  0.00  0.00    +0.000 C 
ATOM     48  O   UNL     1     -11.145  -0.337  21.167  0.00  0.00    +0.000 OA
BRANCH  47  49
ATOM     49  C   UNL     1     -10.383  -1.963  22.640  0.00  0.00    +0.000 A 
ATOM     50  C   UNL     1     -11.324  -2.551  23.510  0.00  0.00    +0.000 A 
ATOM     51  C   UNL     1     -11.012  -2.793  24.850  0.00  0.00    +0.000 A 
ATOM     52  C   UNL     1      -9.740  -2.525  25.337  0.00  0.00    +0.000 A 
ATOM     53  C   UNL     1      -8.769  -2.037  24.472  0.00  0.00    +0.000 A 
ATOM     54  C   UNL     1      -9.069  -1.746  23.124  0.00  0.00    +0.000 A 
ATOM     55  H   UNL     1     -11.774  -3.185  25.523  0.00  0.00    +0.000 HD
ATOM     56  H   UNL     1      -9.503  -2.703  26.383  0.00  0.00    +0.000 HD
ATOM     57  H   UNL     1      -7.766  -1.852  24.861  0.00  0.00    +0.000 HD
BRANCH  50  58
ATOM     58  O   UNL     1     -12.608  -2.898  23.190  0.00  0.00    +0.000 OA
ATOM     59  H   UNL     1     -12.740  -3.857  23.128  0.00  0.00    +0.000 HD
ENDBRANCH  50  58
BRANCH  54  60
ATOM     60  C   UNL     1      -7.899  -1.187  22.374  0.00  0.00    +0.000 C 
ATOM     61  O   UNL     1      -6.750  -1.462  22.662  0.00  0.00    +0.000 OA
BRANCH  60  62
ATOM     62  O   UNL     1      -8.216  -0.177  21.540  0.00  0.00    +0.000 OA
ATOM     63  H   UNL     1      -9.104  -0.359  21.147  0.00  0.00    +0.000 HD
ENDBRANCH  60  62
ENDBRANCH  54  60
ENDBRANCH  47  49
ENDBRANCH  40  47
BRANCH  41  64
ATOM     64  O   UNL     1     -12.944  -3.538  20.634  0.00  0.00    +0.000 OA
ATOM     65  H   UNL     1     -13.625  -2.858  20.543  0.00  0.00    +0.000 HD
ENDBRANCH  41  64
ENDBRANCH  35  37
ENDBRANCH  34  35
ENDBRANCH   9  34
TORSDOF 13
ENDMDL
MODEL 5
REMARK VINA RESULT:   -10.994      2.201      9.232
REMARK INTER + INTRA:         -20.766
REMARK INTER:                 -18.572
REMARK INTRA:                  -2.194
REMARK UNBOUND:                -3.024
REMARK  Name = 
REMARK  13 active torsions:
REMARK  status: ('A' for Active; 'I' for Inactive)
REMARK    1  A    between atoms: C_2  and  C_36
REMARK    2  A    between atoms: N_3  and  C_4
REMARK    3  A    between atoms: C_12  and  O_13
REMARK    4  A    between atoms: O_13  and  C_14
REMARK    5  A    between atoms: C_14  and  C_16
REMARK    6  A    between atoms: C_18  and  O_19
REMARK    7  A    between atoms: C_20  and  C_21
REMARK    8  A    between atoms: C_21  and  C_23
REMARK    9  A    between atoms: C_24  and  O_25
REMARK   10  A    between atoms: C_29  and  C_30
REMARK   11  A    between atoms: C_30  and  O_32
REMARK   12  A    between atoms: C_33  and  O_34
REMARK   13  A    between atoms: C_39  and  O_40
REMARK                            x       y       z     vdW  Elec       q    Type
REMARK                         _______ _______ _______ _____ _____    ______ ____
ROOT
ATOM      1  C   UNL     1     -10.036  -7.917  18.339  0.00  0.00    +0.000 C 
ATOM      2  C   UNL     1      -9.536  -9.270  17.910  0.00  0.00    +0.000 A 
ATOM      3  C   UNL     1      -8.747 -10.168  18.615  0.00  0.00    +0.000 A 
ATOM      4  C   UNL     1      -8.426 -11.386  18.011  0.00  0.00    +0.000 A 
ATOM      5  C   UNL     1      -8.912 -11.703  16.733  0.00  0.00    +0.000 A 
ATOM      6  C   UNL     1      -9.725 -10.806  16.039  0.00  0.00    +0.000 A 
ATOM      7  C   UNL     1     -10.017  -9.591  16.634  0.00  0.00    +0.000 A 
ATOM      8  C   UNL     1     -10.868  -8.489  16.092  0.00  0.00    +0.000 C 
ATOM      9  C   UNL     1     -10.415  -7.296  16.959  0.00  0.00    +0.000 C 
ATOM     10  H   UNL     1     -10.926  -8.030  18.971  0.00  0.00    +0.000 HD
ATOM     11  H   UNL     1      -8.386  -9.938  19.612  0.00  0.00    +0.000 HD
ATOM     12  H   UNL     1      -7.799 -12.102  18.538  0.00  0.00    +0.000 HD
ATOM     13  H   UNL     1      -8.658 -12.660  16.284  0.00  0.00    +0.000 HD
ATOM     14  H   UNL     1     -10.112 -11.057  15.057  0.00  0.00    +0.000 HD
ATOM     15  H   UNL     1     -11.931  -8.715  16.238  0.00  0.00    +0.000 HD
ATOM     16  H   UNL     1     -10.685  -8.302  15.030  0.00  0.00    +0.000 HD
ATOM     17  H   UNL     1      -9.532  -6.811  16.520  0.00  0.00    +0.000 HD
ENDROOT
BRANCH   1  20
ATOM     18  O   UNL     1      -7.763  -6.695  17.186  0.00  0.00    +0.000 OA
ATOM     19  C   UNL     1      -7.945  -6.605  18.394  0.00  0.00    +0.000 C 
ATOM     20  N   UNL     1      -9.026  -7.151  19.049  0.00  0.00    +0.000 N 
ATOM     21  H   UNL     1      -9.178  -6.967  20.031  0.00  0.00    +0.000 HD
BRANCH  19  22
ATOM     22  C   UNL     1      -6.986  -5.835  19.236  0.00  0.00    +0.000 A 
ATOM     23  C   UNL     1      -7.490  -5.053  20.285  0.00  0.00    +0.000 A 
ATOM     24  C   UNL     1      -6.621  -4.291  21.078  0.00  0.00    +0.000 A 
ATOM     25  C   UNL     1      -5.259  -4.312  20.806  0.00  0.00    +0.000 A 
ATOM     26  C   UNL     1      -4.748  -5.081  19.766  0.00  0.00    +0.000 A 
ATOM     27  C   UNL     1      -5.610  -5.844  18.976  0.00  0.00    +0.000 A 
ATOM     28  H   UNL     1      -8.558  -5.033  20.487  0.00  0.00    +0.000 HD
ATOM     29  H   UNL     1      -7.028  -3.694  21.887  0.00  0.00    +0.000 HD
ATOM     30  H   UNL     1      -3.680  -5.073  19.562  0.00  0.00    +0.000 HD
ATOM     31  H   UNL     1      -5.198  -6.408  18.144  0.00  0.00    +0.000 HD
BRANCH  25  32
ATOM     32  O   UNL     1      -4.375  -3.574  21.539  0.00  0.00    +0.000 OA
ATOM     33  H   UNL     1      -4.436  -3.844  22.470  0.00  0.00    +0.000 HD
ENDBRANCH  25  32
ENDBRANCH  19  22
ENDBRANCH   1  20
BRANCH   9  34
ATOM     34  O   UNL     1     -11.481  -6.355  17.107  0.00  0.00    +0.000 OA
BRANCH  34  35
ATOM     35  C   UNL     1     -11.376  -5.210  16.387  0.00  0.00    +0.000 C 
ATOM     36  O   UNL     1     -11.465  -5.106  15.176  0.00  0.00    +0.000 OA
BRANCH  35  37
ATOM     37  C   UNL     1     -11.163  -4.061  17.301  0.00  0.00    +0.000 A 
ATOM     38  C   UNL     1     -10.356  -2.993  16.896  0.00  0.00    +0.000 A 
ATOM     39  C   UNL     1     -10.154  -1.909  17.760  0.00  0.00    +0.000 A 
ATOM     40  C   UNL     1     -10.773  -1.845  19.029  0.00  0.00    +0.000 A 
ATOM     41  C   UNL     1     -11.620  -2.904  19.392  0.00  0.00    +0.000 A 
ATOM     42  C   UNL     1     -11.777  -4.009  18.553  0.00  0.00    +0.000 A 
ATOM     43  H   UNL     1      -9.880  -3.024  15.917  0.00  0.00    +0.000 HD
ATOM     44  H   UNL     1     -12.406  -4.829  18.900  0.00  0.00    +0.000 HD
BRANCH  39  45
ATOM     45  O   UNL     1      -9.300  -0.918  17.350  0.00  0.00    +0.000 OA
ATOM     46  H   UNL     1      -9.163  -0.270  18.062  0.00  0.00    +0.000 HD
ENDBRANCH  39  45
BRANCH  40  47
ATOM     47  C   UNL     1     -10.527  -0.653  19.905  0.00  0.00    +0.000 C 
ATOM     48  O   UNL     1     -10.714   0.474  19.446  0.00  0.00    +0.000 OA
BRANCH  47  49
ATOM     49  C   UNL     1     -10.191  -0.746  21.352  0.00  0.00    +0.000 A 
ATOM     50  C   UNL     1      -8.951  -1.252  21.795  0.00  0.00    +0.000 A 
ATOM     51  C   UNL     1      -8.727  -1.521  23.148  0.00  0.00    +0.000 A 
ATOM     52  C   UNL     1      -9.697  -1.229  24.096  0.00  0.00    +0.000 A 
ATOM     53  C   UNL     1     -10.888  -0.638  23.690  0.00  0.00    +0.000 A 
ATOM     54  C   UNL     1     -11.156  -0.392  22.328  0.00  0.00    +0.000 A 
ATOM     55  H   UNL     1      -7.787  -1.976  23.462  0.00  0.00    +0.000 HD
ATOM     56  H   UNL     1      -9.526  -1.450  25.146  0.00  0.00    +0.000 HD
ATOM     57  H   UNL     1     -11.634  -0.391  24.448  0.00  0.00    +0.000 HD
BRANCH  50  58
ATOM     58  O   UNL     1      -7.884  -1.573  21.002  0.00  0.00    +0.000 OA
ATOM     59  H   UNL     1      -7.134  -1.934  21.501  0.00  0.00    +0.000 HD
ENDBRANCH  50  58
BRANCH  54  60
ATOM     60  C   UNL     1     -12.510   0.206  22.098  0.00  0.00    +0.000 C 
ATOM     61  O   UNL     1     -12.707   1.405  22.142  0.00  0.00    +0.000 OA
BRANCH  60  62
ATOM     62  O   UNL     1     -13.513  -0.694  22.096  0.00  0.00    +0.000 OA
ATOM     63  H   UNL     1     -13.859  -0.784  23.017  0.00  0.00    +0.000 HD
ENDBRANCH  60  62
ENDBRANCH  54  60
ENDBRANCH  47  49
ENDBRANCH  40  47
BRANCH  41  64
ATOM     64  O   UNL     1     -12.376  -3.007  20.525  0.00  0.00    +0.000 OA
ATOM     65  H   UNL     1     -12.091  -3.705  21.129  0.00  0.00    +0.000 HD
ENDBRANCH  41  64
ENDBRANCH  35  37
ENDBRANCH  34  35
ENDBRANCH   9  34
TORSDOF 13
ENDMDL
MODEL 6
REMARK VINA RESULT:   -10.941      2.435      9.378
REMARK INTER + INTRA:         -20.682
REMARK INTER:                 -17.283
REMARK INTRA:                  -3.399
REMARK UNBOUND:                -3.024
REMARK  Name = 
REMARK  13 active torsions:
REMARK  status: ('A' for Active; 'I' for Inactive)
REMARK    1  A    between atoms: C_2  and  C_36
REMARK    2  A    between atoms: N_3  and  C_4
REMARK    3  A    between atoms: C_12  and  O_13
REMARK    4  A    between atoms: O_13  and  C_14
REMARK    5  A    between atoms: C_14  and  C_16
REMARK    6  A    between atoms: C_18  and  O_19
REMARK    7  A    between atoms: C_20  and  C_21
REMARK    8  A    between atoms: C_21  and  C_23
REMARK    9  A    between atoms: C_24  and  O_25
REMARK   10  A    between atoms: C_29  and  C_30
REMARK   11  A    between atoms: C_30  and  O_32
REMARK   12  A    between atoms: C_33  and  O_34
REMARK   13  A    between atoms: C_39  and  O_40
REMARK                            x       y       z     vdW  Elec       q    Type
REMARK                         _______ _______ _______ _____ _____    ______ ____
ROOT
ATOM      1  C   UNL     1     -10.148  -7.992  18.096  0.00  0.00    +0.000 C 
ATOM      2  C   UNL     1      -9.567  -9.347  17.794  0.00  0.00    +0.000 A 
ATOM      3  C   UNL     1      -8.817 -10.173  18.618  0.00  0.00    +0.000 A 
ATOM      4  C   UNL     1      -8.403 -11.410  18.119  0.00  0.00    +0.000 A 
ATOM      5  C   UNL     1      -8.760 -11.817  16.824  0.00  0.00    +0.000 A 
ATOM      6  C   UNL     1      -9.534 -10.991  16.008  0.00  0.00    +0.000 A 
ATOM      7  C   UNL     1      -9.919  -9.757  16.501  0.00  0.00    +0.000 A 
ATOM      8  C   UNL     1     -10.753  -8.720  15.821  0.00  0.00    +0.000 C 
ATOM      9  C   UNL     1     -10.420  -7.464  16.653  0.00  0.00    +0.000 C 
ATOM     10  H   UNL     1     -11.088  -8.102  18.652  0.00  0.00    +0.000 HD
ATOM     11  H   UNL     1      -8.557  -9.874  19.629  0.00  0.00    +0.000 HD
ATOM     12  H   UNL     1      -7.803 -12.071  18.742  0.00  0.00    +0.000 HD
ATOM     13  H   UNL     1      -8.435 -12.787  16.457  0.00  0.00    +0.000 HD
ATOM     14  H   UNL     1      -9.822 -11.312  15.012  0.00  0.00    +0.000 HD
ATOM     15  H   UNL     1     -11.817  -8.978  15.885  0.00  0.00    +0.000 HD
ATOM     16  H   UNL     1     -10.480  -8.586  14.771  0.00  0.00    +0.000 HD
ATOM     17  H   UNL     1      -9.517  -6.971  16.266  0.00  0.00    +0.000 HD
ENDROOT
BRANCH   1  20
ATOM     18  O   UNL     1      -7.909  -6.625  17.044  0.00  0.00    +0.000 OA
ATOM     19  C   UNL     1      -8.160  -6.536  18.241  0.00  0.00    +0.000 C 
ATOM     20  N   UNL     1      -9.233  -7.150  18.846  0.00  0.00    +0.000 N 
ATOM     21  H   UNL     1      -9.449  -6.966  19.817  0.00  0.00    +0.000 HD
BRANCH  19  22
ATOM     22  C   UNL     1      -7.302  -5.692  19.120  0.00  0.00    +0.000 A 
ATOM     23  C   UNL     1      -5.909  -5.818  19.023  0.00  0.00    +0.000 A 
ATOM     24  C   UNL     1      -5.072  -5.064  19.856  0.00  0.00    +0.000 A 
ATOM     25  C   UNL     1      -5.638  -4.198  20.783  0.00  0.00    +0.000 A 
ATOM     26  C   UNL     1      -7.018  -4.066  20.892  0.00  0.00    +0.000 A 
ATOM     27  C   UNL     1      -7.855  -4.815  20.062  0.00  0.00    +0.000 A 
ATOM     28  H   UNL     1      -5.472  -6.504  18.301  0.00  0.00    +0.000 HD
ATOM     29  H   UNL     1      -3.997  -5.172  19.765  0.00  0.00    +0.000 HD
ATOM     30  H   UNL     1      -7.441  -3.393  21.633  0.00  0.00    +0.000 HD
ATOM     31  H   UNL     1      -8.931  -4.728  20.186  0.00  0.00    +0.000 HD
BRANCH  25  32
ATOM     32  O   UNL     1      -4.865  -3.455  21.628  0.00  0.00    +0.000 OA
ATOM     33  H   UNL     1      -4.767  -3.934  22.467  0.00  0.00    +0.000 HD
ENDBRANCH  25  32
ENDBRANCH  19  22
ENDBRANCH   1  20
BRANCH   9  34
ATOM     34  O   UNL     1     -11.525  -6.557  16.649  0.00  0.00    +0.000 OA
BRANCH  34  35
ATOM     35  C   UNL     1     -11.293  -5.330  16.119  0.00  0.00    +0.000 C 
ATOM     36  O   UNL     1     -11.285  -5.043  14.935  0.00  0.00    +0.000 OA
BRANCH  35  37
ATOM     37  C   UNL     1     -11.076  -4.346  17.209  0.00  0.00    +0.000 A 
ATOM     38  C   UNL     1     -10.102  -3.353  17.061  0.00  0.00    +0.000 A 
ATOM     39  C   UNL     1      -9.896  -2.426  18.092  0.00  0.00    +0.000 A 
ATOM     40  C   UNL     1     -10.671  -2.444  19.274  0.00  0.00    +0.000 A 
ATOM     41  C   UNL     1     -11.677  -3.418  19.375  0.00  0.00    +0.000 A 
ATOM     42  C   UNL     1     -11.845  -4.374  18.373  0.00  0.00    +0.000 A 
ATOM     43  H   UNL     1      -9.504  -3.322  16.153  0.00  0.00    +0.000 HD
ATOM     44  H   UNL     1     -12.606  -5.140  18.519  0.00  0.00    +0.000 HD
BRANCH  39  45
ATOM     45  O   UNL     1      -8.885  -1.514  17.934  0.00  0.00    +0.000 OA
ATOM     46  H   UNL     1      -8.020  -1.956  17.962  0.00  0.00    +0.000 HD
ENDBRANCH  39  45
BRANCH  40  47
ATOM     47  C   UNL     1     -10.411  -1.418  20.335  0.00  0.00    +0.000 C 
ATOM     48  O   UNL     1      -9.324  -1.419  20.914  0.00  0.00    +0.000 OA
BRANCH  47  49
ATOM     49  C   UNL     1     -11.344  -0.302  20.653  0.00  0.00    +0.000 A 
ATOM     50  C   UNL     1     -12.303  -0.406  21.682  0.00  0.00    +0.000 A 
ATOM     51  C   UNL     1     -13.299   0.561  21.836  0.00  0.00    +0.000 A 
ATOM     52  C   UNL     1     -13.323   1.685  21.023  0.00  0.00    +0.000 A 
ATOM     53  C   UNL     1     -12.329   1.855  20.067  0.00  0.00    +0.000 A 
ATOM     54  C   UNL     1     -11.334   0.875  19.864  0.00  0.00    +0.000 A 
ATOM     55  H   UNL     1     -14.072   0.428  22.593  0.00  0.00    +0.000 HD
ATOM     56  H   UNL     1     -14.106   2.431  21.136  0.00  0.00    +0.000 HD
ATOM     57  H   UNL     1     -12.344   2.755  19.449  0.00  0.00    +0.000 HD
BRANCH  50  58
ATOM     58  O   UNL     1     -12.410  -1.431  22.581  0.00  0.00    +0.000 OA
ATOM     59  H   UNL     1     -13.312  -1.553  22.914  0.00  0.00    +0.000 HD
ENDBRANCH  50  58
BRANCH  54  60
ATOM     60  C   UNL     1     -10.385   1.227  18.759  0.00  0.00    +0.000 C 
ATOM     61  O   UNL     1     -10.703   1.175  17.588  0.00  0.00    +0.000 OA
BRANCH  60  62
ATOM     62  O   UNL     1      -9.104   1.352  19.158  0.00  0.00    +0.000 OA
ATOM     63  H   UNL     1      -8.591   0.579  18.821  0.00  0.00    +0.000 HD
ENDBRANCH  60  62
ENDBRANCH  54  60
ENDBRANCH  47  49
ENDBRANCH  40  47
BRANCH  41  64
ATOM     64  O   UNL     1     -12.587  -3.563  20.382  0.00  0.00    +0.000 OA
ATOM     65  H   UNL     1     -12.727  -2.765  20.909  0.00  0.00    +0.000 HD
ENDBRANCH  41  64
ENDBRANCH  35  37
ENDBRANCH  34  35
ENDBRANCH   9  34
TORSDOF 13
ENDMDL
MODEL 7
REMARK VINA RESULT:   -10.723      2.632      8.989
REMARK INTER + INTRA:         -20.330
REMARK INTER:                 -17.642
REMARK INTRA:                  -2.687
REMARK UNBOUND:                -3.024
REMARK  Name = 
REMARK  13 active torsions:
REMARK  status: ('A' for Active; 'I' for Inactive)
REMARK    1  A    between atoms: C_2  and  C_36
REMARK    2  A    between atoms: N_3  and  C_4
REMARK    3  A    between atoms: C_12  and  O_13
REMARK    4  A    between atoms: O_13  and  C_14
REMARK    5  A    between atoms: C_14  and  C_16
REMARK    6  A    between atoms: C_18  and  O_19
REMARK    7  A    between atoms: C_20  and  C_21
REMARK    8  A    between atoms: C_21  and  C_23
REMARK    9  A    between atoms: C_24  and  O_25
REMARK   10  A    between atoms: C_29  and  C_30
REMARK   11  A    between atoms: C_30  and  O_32
REMARK   12  A    between atoms: C_33  and  O_34
REMARK   13  A    between atoms: C_39  and  O_40
REMARK                            x       y       z     vdW  Elec       q    Type
REMARK                         _______ _______ _______ _____ _____    ______ ____
ROOT
ATOM      1  C   UNL     1      -9.356  -8.528  17.653  0.00  0.00    +0.000 C 
ATOM      2  C   UNL     1      -8.949  -9.971  17.775  0.00  0.00    +0.000 A 
ATOM      3  C   UNL     1      -8.309 -10.606  18.830  0.00  0.00    +0.000 A 
ATOM      4  C   UNL     1      -8.052 -11.975  18.723  0.00  0.00    +0.000 A 
ATOM      5  C   UNL     1      -8.456 -12.694  17.587  0.00  0.00    +0.000 A 
ATOM      6  C   UNL     1      -9.121 -12.055  16.540  0.00  0.00    +0.000 A 
ATOM      7  C   UNL     1      -9.348 -10.693  16.643  0.00  0.00    +0.000 A 
ATOM      8  C   UNL     1     -10.046  -9.806  15.664  0.00  0.00    +0.000 C 
ATOM      9  C   UNL     1      -9.559  -8.412  16.110  0.00  0.00    +0.000 C 
ATOM     10  H   UNL     1     -10.303  -8.359  18.182  0.00  0.00    +0.000 HD
ATOM     11  H   UNL     1      -8.013 -10.060  19.720  0.00  0.00    +0.000 HD
ATOM     12  H   UNL     1      -7.540 -12.493  19.531  0.00  0.00    +0.000 HD
ATOM     13  H   UNL     1      -8.255 -13.761  17.527  0.00  0.00    +0.000 HD
ATOM     14  H   UNL     1      -9.446 -12.614  15.669  0.00  0.00    +0.000 HD
ATOM     15  H   UNL     1     -11.134  -9.905  15.760  0.00  0.00    +0.000 HD
ATOM     16  H   UNL     1      -9.757 -10.017  14.630  0.00  0.00    +0.000 HD
ATOM     17  H   UNL     1      -8.601  -8.164  15.631  0.00  0.00    +0.000 HD
ENDROOT
BRANCH   1  20
ATOM     18  O   UNL     1      -9.227  -7.486  20.277  0.00  0.00    +0.000 OA
ATOM     19  C   UNL     1      -8.376  -7.157  19.458  0.00  0.00    +0.000 C 
ATOM     20  N   UNL     1      -8.343  -7.620  18.162  0.00  0.00    +0.000 N 
ATOM     21  H   UNL     1      -7.566  -7.392  17.556  0.00  0.00    +0.000 HD
BRANCH  19  22
ATOM     22  C   UNL     1      -7.274  -6.238  19.858  0.00  0.00    +0.000 A 
ATOM     23  C   UNL     1      -7.587  -5.103  20.620  0.00  0.00    +0.000 A 
ATOM     24  C   UNL     1      -6.582  -4.199  20.987  0.00  0.00    +0.000 A 
ATOM     25  C   UNL     1      -5.274  -4.436  20.580  0.00  0.00    +0.000 A 
ATOM     26  C   UNL     1      -4.951  -5.555  19.821  0.00  0.00    +0.000 A 
ATOM     27  C   UNL     1      -5.951  -6.459  19.455  0.00  0.00    +0.000 A 
ATOM     28  H   UNL     1      -8.614  -4.918  20.927  0.00  0.00    +0.000 HD
ATOM     29  H   UNL     1      -6.842  -3.329  21.579  0.00  0.00    +0.000 HD
ATOM     30  H   UNL     1      -3.925  -5.714  19.502  0.00  0.00    +0.000 HD
ATOM     31  H   UNL     1      -5.687  -7.308  18.830  0.00  0.00    +0.000 HD
BRANCH  25  32
ATOM     32  O   UNL     1      -4.263  -3.576  20.898  0.00  0.00    +0.000 OA
ATOM     33  H   UNL     1      -4.008  -3.720  21.825  0.00  0.00    +0.000 HD
ENDBRANCH  25  32
ENDBRANCH  19  22
ENDBRANCH   1  20
BRANCH   9  34
ATOM     34  O   UNL     1     -10.542  -7.420  15.805  0.00  0.00    +0.000 OA
BRANCH  34  35
ATOM     35  C   UNL     1     -11.138  -6.820  16.865  0.00  0.00    +0.000 C 
ATOM     36  O   UNL     1     -11.708  -7.377  17.786  0.00  0.00    +0.000 OA
BRANCH  35  37
ATOM     37  C   UNL     1     -10.970  -5.348  16.767  0.00  0.00    +0.000 A 
ATOM     38  C   UNL     1     -11.440  -4.671  15.637  0.00  0.00    +0.000 A 
ATOM     39  C   UNL     1     -11.279  -3.282  15.544  0.00  0.00    +0.000 A 
ATOM     40  C   UNL     1     -10.680  -2.532  16.581  0.00  0.00    +0.000 A 
ATOM     41  C   UNL     1     -10.264  -3.228  17.727  0.00  0.00    +0.000 A 
ATOM     42  C   UNL     1     -10.374  -4.617  17.796  0.00  0.00    +0.000 A 
ATOM     43  H   UNL     1     -11.912  -5.234  14.834  0.00  0.00    +0.000 HD
ATOM     44  H   UNL     1      -9.992  -5.118  18.685  0.00  0.00    +0.000 HD
BRANCH  39  45
ATOM     45  O   UNL     1     -11.692  -2.670  14.389  0.00  0.00    +0.000 OA
ATOM     46  H   UNL     1     -11.555  -1.709  14.446  0.00  0.00    +0.000 HD
ENDBRANCH  39  45
BRANCH  40  47
ATOM     47  C   UNL     1     -10.546  -1.047  16.428  0.00  0.00    +0.000 C 
ATOM     48  O   UNL     1     -11.562  -0.352  16.433  0.00  0.00    +0.000 OA
BRANCH  47  49
ATOM     49  C   UNL     1      -9.240  -0.333  16.398  0.00  0.00    +0.000 A 
ATOM     50  C   UNL     1      -8.777   0.415  17.500  0.00  0.00    +0.000 A 
ATOM     51  C   UNL     1      -7.655   1.240  17.389  0.00  0.00    +0.000 A 
ATOM     52  C   UNL     1      -6.929   1.288  16.207  0.00  0.00    +0.000 A 
ATOM     53  C   UNL     1      -7.312   0.484  15.141  0.00  0.00    +0.000 A 
ATOM     54  C   UNL     1      -8.462  -0.329  15.213  0.00  0.00    +0.000 A 
ATOM     55  H   UNL     1      -7.353   1.862  18.231  0.00  0.00    +0.000 HD
ATOM     56  H   UNL     1      -6.063   1.940  16.119  0.00  0.00    +0.000 HD
ATOM     57  H   UNL     1      -6.719   0.511  14.225  0.00  0.00    +0.000 HD
BRANCH  50  58
ATOM     58  O   UNL     1      -9.357   0.466  18.738  0.00  0.00    +0.000 OA
ATOM     59  H   UNL     1      -8.711   0.476  19.461  0.00  0.00    +0.000 HD
ENDBRANCH  50  58
BRANCH  54  60
ATOM     60  C   UNL     1      -8.726  -1.081  13.944  0.00  0.00    +0.000 C 
ATOM     61  O   UNL     1      -9.593  -0.750  13.160  0.00  0.00    +0.000 OA
BRANCH  60  62
ATOM     62  O   UNL     1      -8.108  -2.277  13.879  0.00  0.00    +0.000 OA
ATOM     63  H   UNL     1      -8.754  -2.981  14.131  0.00  0.00    +0.000 HD
ENDBRANCH  60  62
ENDBRANCH  54  60
ENDBRANCH  47  49
ENDBRANCH  40  47
BRANCH  41  64
ATOM     64  O   UNL     1      -9.740  -2.697  18.871  0.00  0.00    +0.000 OA
ATOM     65  H   UNL     1      -9.532  -3.350  19.553  0.00  0.00    +0.000 HD
ENDBRANCH  41  64
ENDBRANCH  35  37
ENDBRANCH  34  35
ENDBRANCH   9  34
TORSDOF 13
ENDMDL
MODEL 8
REMARK VINA RESULT:   -10.713      2.254      9.169
REMARK INTER + INTRA:         -20.314
REMARK INTER:                 -17.695
REMARK INTRA:                  -2.619
REMARK UNBOUND:                -3.024
REMARK  Name = 
REMARK  13 active torsions:
REMARK  status: ('A' for Active; 'I' for Inactive)
REMARK    1  A    between atoms: C_2  and  C_36
REMARK    2  A    between atoms: N_3  and  C_4
REMARK    3  A    between atoms: C_12  and  O_13
REMARK    4  A    between atoms: O_13  and  C_14
REMARK    5  A    between atoms: C_14  and  C_16
REMARK    6  A    between atoms: C_18  and  O_19
REMARK    7  A    between atoms: C_20  and  C_21
REMARK    8  A    between atoms: C_21  and  C_23
REMARK    9  A    between atoms: C_24  and  O_25
REMARK   10  A    between atoms: C_29  and  C_30
REMARK   11  A    between atoms: C_30  and  O_32
REMARK   12  A    between atoms: C_33  and  O_34
REMARK   13  A    between atoms: C_39  and  O_40
REMARK                            x       y       z     vdW  Elec       q    Type
REMARK                         _______ _______ _______ _____ _____    ______ ____
ROOT
ATOM      1  C   UNL     1      -9.317  -8.564  17.606  0.00  0.00    +0.000 C 
ATOM      2  C   UNL     1      -8.923 -10.010  17.741  0.00  0.00    +0.000 A 
ATOM      3  C   UNL     1      -8.302 -10.645  18.806  0.00  0.00    +0.000 A 
ATOM      4  C   UNL     1      -8.055 -12.017  18.709  0.00  0.00    +0.000 A 
ATOM      5  C   UNL     1      -8.451 -12.738  17.573  0.00  0.00    +0.000 A 
ATOM      6  C   UNL     1      -9.098 -12.099  16.514  0.00  0.00    +0.000 A 
ATOM      7  C   UNL     1      -9.315 -10.735  16.607  0.00  0.00    +0.000 A 
ATOM      8  C   UNL     1      -9.993  -9.847  15.615  0.00  0.00    +0.000 C 
ATOM      9  C   UNL     1      -9.500  -8.455  16.060  0.00  0.00    +0.000 C 
ATOM     10  H   UNL     1     -10.268  -8.385  18.123  0.00  0.00    +0.000 HD
ATOM     11  H   UNL     1      -8.012 -10.097  19.697  0.00  0.00    +0.000 HD
ATOM     12  H   UNL     1      -7.558 -12.535  19.526  0.00  0.00    +0.000 HD
ATOM     13  H   UNL     1      -8.259 -13.807  17.520  0.00  0.00    +0.000 HD
ATOM     14  H   UNL     1      -9.418 -12.660  15.642  0.00  0.00    +0.000 HD
ATOM     15  H   UNL     1     -11.083  -9.936  15.698  0.00  0.00    +0.000 HD
ATOM     16  H   UNL     1      -9.694 -10.065  14.586  0.00  0.00    +0.000 HD
ATOM     17  H   UNL     1      -8.534  -8.218  15.592  0.00  0.00    +0.000 HD
ENDROOT
BRANCH   1  20
ATOM     18  O   UNL     1      -9.234  -7.476  20.213  0.00  0.00    +0.000 OA
ATOM     19  C   UNL     1      -8.359  -7.176  19.409  0.00  0.00    +0.000 C 
ATOM     20  N   UNL     1      -8.302  -7.662  18.123  0.00  0.00    +0.000 N 
ATOM     21  H   UNL     1      -7.508  -7.457  17.531  0.00  0.00    +0.000 HD
BRANCH  19  22
ATOM     22  C   UNL     1      -7.253  -6.265  19.818  0.00  0.00    +0.000 A 
ATOM     23  C   UNL     1      -7.564  -5.124  20.572  0.00  0.00    +0.000 A 
ATOM     24  C   UNL     1      -6.554  -4.229  20.948  0.00  0.00    +0.000 A 
ATOM     25  C   UNL     1      -5.244  -4.480  20.558  0.00  0.00    +0.000 A 
ATOM     26  C   UNL     1      -4.923  -5.605  19.807  0.00  0.00    +0.000 A 
ATOM     27  C   UNL     1      -5.927  -6.501  19.433  0.00  0.00    +0.000 A 
ATOM     28  H   UNL     1      -8.593  -4.929  20.867  0.00  0.00    +0.000 HD
ATOM     29  H   UNL     1      -6.813  -3.354  21.534  0.00  0.00    +0.000 HD
ATOM     30  H   UNL     1      -3.895  -5.776  19.501  0.00  0.00    +0.000 HD
ATOM     31  H   UNL     1      -5.665  -7.355  18.814  0.00  0.00    +0.000 HD
BRANCH  25  32
ATOM     32  O   UNL     1      -4.229  -3.629  20.885  0.00  0.00    +0.000 OA
ATOM     33  H   UNL     1      -4.238  -3.483  21.845  0.00  0.00    +0.000 HD
ENDBRANCH  25  32
ENDBRANCH  19  22
ENDBRANCH   1  20
BRANCH   9  34
ATOM     34  O   UNL     1     -10.471  -7.456  15.738  0.00  0.00    +0.000 OA
BRANCH  34  35
ATOM     35  C   UNL     1     -11.179  -6.949  16.778  0.00  0.00    +0.000 C 
ATOM     36  O   UNL     1     -11.905  -7.573  17.531  0.00  0.00    +0.000 OA
BRANCH  35  37
ATOM     37  C   UNL     1     -10.916  -5.493  16.901  0.00  0.00    +0.000 A 
ATOM     38  C   UNL     1     -10.950  -4.685  15.760  0.00  0.00    +0.000 A 
ATOM     39  C   UNL     1     -10.699  -3.312  15.876  0.00  0.00    +0.000 A 
ATOM     40  C   UNL     1     -10.443  -2.706  17.128  0.00  0.00    +0.000 A 
ATOM     41  C   UNL     1     -10.466  -3.530  18.264  0.00  0.00    +0.000 A 
ATOM     42  C   UNL     1     -10.660  -4.906  18.141  0.00  0.00    +0.000 A 
ATOM     43  H   UNL     1     -11.156  -5.136  14.791  0.00  0.00    +0.000 HD
ATOM     44  H   UNL     1     -10.621  -5.512  19.046  0.00  0.00    +0.000 HD
BRANCH  39  45
ATOM     45  O   UNL     1     -10.674  -2.569  14.724  0.00  0.00    +0.000 OA
ATOM     46  H   UNL     1      -9.918  -1.958  14.729  0.00  0.00    +0.000 HD
ENDBRANCH  39  45
BRANCH  40  47
ATOM     47  C   UNL     1     -10.193  -1.229  17.189  0.00  0.00    +0.000 C 
ATOM     48  O   UNL     1      -9.161  -0.776  16.692  0.00  0.00    +0.000 OA
BRANCH  47  49
ATOM     49  C   UNL     1     -11.183  -0.244  17.705  0.00  0.00    +0.000 A 
ATOM     50  C   UNL     1     -12.268   0.199  16.920  0.00  0.00    +0.000 A 
ATOM     51  C   UNL     1     -13.068   1.267  17.336  0.00  0.00    +0.000 A 
ATOM     52  C   UNL     1     -12.854   1.870  18.567  0.00  0.00    +0.000 A 
ATOM     53  C   UNL     1     -11.852   1.384  19.398  0.00  0.00    +0.000 A 
ATOM     54  C   UNL     1     -11.005   0.333  18.987  0.00  0.00    +0.000 A 
ATOM     55  H   UNL     1     -13.858   1.639  16.685  0.00  0.00    +0.000 HD
ATOM     56  H   UNL     1     -13.469   2.708  18.884  0.00  0.00    +0.000 HD
ATOM     57  H   UNL     1     -11.709   1.850  20.375  0.00  0.00    +0.000 HD
BRANCH  50  58
ATOM     58  O   UNL     1     -12.631  -0.296  15.698  0.00  0.00    +0.000 OA
ATOM     59  H   UNL     1     -11.876  -0.598  15.170  0.00  0.00    +0.000 HD
ENDBRANCH  50  58
BRANCH  54  60
ATOM     60  C   UNL     1      -9.964  -0.011  20.008  0.00  0.00    +0.000 C 
ATOM     61  O   UNL     1     -10.249  -0.351  21.138  0.00  0.00    +0.000 OA
BRANCH  60  62
ATOM     62  O   UNL     1      -8.711   0.333  19.648  0.00  0.00    +0.000 OA
ATOM     63  H   UNL     1      -8.081  -0.328  20.025  0.00  0.00    +0.000 HD
ENDBRANCH  60  62
ENDBRANCH  54  60
ENDBRANCH  47  49
ENDBRANCH  40  47
BRANCH  41  64
ATOM     64  O   UNL     1     -10.326  -3.145  19.566  0.00  0.00    +0.000 OA
ATOM     65  H   UNL     1     -10.740  -3.742  20.203  0.00  0.00    +0.000 HD
ENDBRANCH  41  64
ENDBRANCH  35  37
ENDBRANCH  34  35
ENDBRANCH   9  34
TORSDOF 13
ENDMDL
MODEL 9
REMARK VINA RESULT:   -10.606      2.911      8.995
REMARK INTER + INTRA:         -20.141
REMARK INTER:                 -18.121
REMARK INTRA:                  -2.019
REMARK UNBOUND:                -3.024
REMARK  Name = 
REMARK  13 active torsions:
REMARK  status: ('A' for Active; 'I' for Inactive)
REMARK    1  A    between atoms: C_2  and  C_36
REMARK    2  A    between atoms: N_3  and  C_4
REMARK    3  A    between atoms: C_12  and  O_13
REMARK    4  A    between atoms: O_13  and  C_14
REMARK    5  A    between atoms: C_14  and  C_16
REMARK    6  A    between atoms: C_18  and  O_19
REMARK    7  A    between atoms: C_20  and  C_21
REMARK    8  A    between atoms: C_21  and  C_23
REMARK    9  A    between atoms: C_24  and  O_25
REMARK   10  A    between atoms: C_29  and  C_30
REMARK   11  A    between atoms: C_30  and  O_32
REMARK   12  A    between atoms: C_33  and  O_34
REMARK   13  A    between atoms: C_39  and  O_40
REMARK                            x       y       z     vdW  Elec       q    Type
REMARK                         _______ _______ _______ _____ _____    ______ ____
ROOT
ATOM      1  C   UNL     1      -9.984  -7.827  18.186  0.00  0.00    +0.000 C 
ATOM      2  C   UNL     1      -9.500  -9.217  17.874  0.00  0.00    +0.000 A 
ATOM      3  C   UNL     1      -8.795 -10.094  18.686  0.00  0.00    +0.000 A 
ATOM      4  C   UNL     1      -8.471 -11.354  18.179  0.00  0.00    +0.000 A 
ATOM      5  C   UNL     1      -8.874 -11.733  16.889  0.00  0.00    +0.000 A 
ATOM      6  C   UNL     1      -9.605 -10.856  16.086  0.00  0.00    +0.000 A 
ATOM      7  C   UNL     1      -9.898  -9.600  16.587  0.00  0.00    +0.000 A 
ATOM      8  C   UNL     1     -10.671  -8.508  15.921  0.00  0.00    +0.000 C 
ATOM      9  C   UNL     1     -10.243  -7.279  16.749  0.00  0.00    +0.000 C 
ATOM     10  H   UNL     1     -10.921  -7.876  18.757  0.00  0.00    +0.000 HD
ATOM     11  H   UNL     1      -8.499  -9.815  19.692  0.00  0.00    +0.000 HD
ATOM     12  H   UNL     1      -7.908 -12.055  18.792  0.00  0.00    +0.000 HD
ATOM     13  H   UNL     1      -8.621 -12.722  16.516  0.00  0.00    +0.000 HD
ATOM     14  H   UNL     1      -9.928 -11.155  15.094  0.00  0.00    +0.000 HD
ATOM     15  H   UNL     1     -11.749  -8.694  16.001  0.00  0.00    +0.000 HD
ATOM     16  H   UNL     1     -10.406  -8.391  14.866  0.00  0.00    +0.000 HD
ATOM     17  H   UNL     1      -9.315  -6.847  16.348  0.00  0.00    +0.000 HD
ENDROOT
BRANCH   1  20
ATOM     18  O   UNL     1      -7.616  -6.708  17.126  0.00  0.00    +0.000 OA
ATOM     19  C   UNL     1      -7.871  -6.557  18.315  0.00  0.00    +0.000 C 
ATOM     20  N   UNL     1      -9.004  -7.050  18.923  0.00  0.00    +0.000 N 
ATOM     21  H   UNL     1      -9.213  -6.816  19.885  0.00  0.00    +0.000 HD
BRANCH  19  22
ATOM     22  C   UNL     1      -6.949  -5.768  19.180  0.00  0.00    +0.000 A 
ATOM     23  C   UNL     1      -7.499  -4.920  20.151  0.00  0.00    +0.000 A 
ATOM     24  C   UNL     1      -6.664  -4.139  20.962  0.00  0.00    +0.000 A 
ATOM     25  C   UNL     1      -5.288  -4.209  20.785  0.00  0.00    +0.000 A 
ATOM     26  C   UNL     1      -4.731  -5.043  19.822  0.00  0.00    +0.000 A 
ATOM     27  C   UNL     1      -5.560  -5.824  19.015  0.00  0.00    +0.000 A 
ATOM     28  H   UNL     1      -8.578  -4.863  20.279  0.00  0.00    +0.000 HD
ATOM     29  H   UNL     1      -7.107  -3.491  21.710  0.00  0.00    +0.000 HD
ATOM     30  H   UNL     1      -3.652  -5.072  19.691  0.00  0.00    +0.000 HD
ATOM     31  H   UNL     1      -5.109  -6.441  18.242  0.00  0.00    +0.000 HD
BRANCH  25  32
ATOM     32  O   UNL     1      -4.435  -3.455  21.538  0.00  0.00    +0.000 OA
ATOM     33  H   UNL     1      -3.917  -4.044  22.110  0.00  0.00    +0.000 HD
ENDBRANCH  25  32
ENDBRANCH  19  22
ENDBRANCH   1  20
BRANCH   9  34
ATOM     34  O   UNL     1     -11.285  -6.300  16.763  0.00  0.00    +0.000 OA
BRANCH  34  35
ATOM     35  C   UNL     1     -10.910  -5.029  17.050  0.00  0.00    +0.000 C 
ATOM     36  O   UNL     1     -10.538  -4.610  18.132  0.00  0.00    +0.000 OA
BRANCH  35  37
ATOM     37  C   UNL     1     -10.984  -4.196  15.823  0.00  0.00    +0.000 A 
ATOM     38  C   UNL     1     -10.967  -2.801  15.931  0.00  0.00    +0.000 A 
ATOM     39  C   UNL     1     -11.039  -2.016  14.773  0.00  0.00    +0.000 A 
ATOM     40  C   UNL     1     -11.095  -2.594  13.484  0.00  0.00    +0.000 A 
ATOM     41  C   UNL     1     -11.057  -3.995  13.400  0.00  0.00    +0.000 A 
ATOM     42  C   UNL     1     -11.041  -4.777  14.556  0.00  0.00    +0.000 A 
ATOM     43  H   UNL     1     -10.915  -2.342  16.916  0.00  0.00    +0.000 HD
ATOM     44  H   UNL     1     -11.062  -5.861  14.441  0.00  0.00    +0.000 HD
BRANCH  39  45
ATOM     45  O   UNL     1     -11.091  -0.655  14.929  0.00  0.00    +0.000 OA
ATOM     46  H   UNL     1     -11.986  -0.374  15.182  0.00  0.00    +0.000 HD
ENDBRANCH  39  45
BRANCH  40  47
ATOM     47  C   UNL     1     -11.159  -1.701  12.283  0.00  0.00    +0.000 C 
ATOM     48  O   UNL     1     -12.181  -1.046  12.078  0.00  0.00    +0.000 OA
BRANCH  47  49
ATOM     49  C   UNL     1     -10.005  -1.451  11.376  0.00  0.00    +0.000 A 
ATOM     50  C   UNL     1      -8.879  -0.710  11.793  0.00  0.00    +0.000 A 
ATOM     51  C   UNL     1      -7.901  -0.311  10.878  0.00  0.00    +0.000 A 
ATOM     52  C   UNL     1      -7.981  -0.698   9.548  0.00  0.00    +0.000 A 
ATOM     53  C   UNL     1      -9.030  -1.511   9.137  0.00  0.00    +0.000 A 
ATOM     54  C   UNL     1     -10.052  -1.895  10.031  0.00  0.00    +0.000 A 
ATOM     55  H   UNL     1      -7.075   0.319  11.207  0.00  0.00    +0.000 HD
ATOM     56  H   UNL     1      -7.225  -0.377   8.835  0.00  0.00    +0.000 HD
ATOM     57  H   UNL     1      -9.069  -1.829   8.094  0.00  0.00    +0.000 HD
BRANCH  50  58
ATOM     58  O   UNL     1      -8.634  -0.267  13.064  0.00  0.00    +0.000 OA
ATOM     59  H   UNL     1      -7.765   0.153  13.160  0.00  0.00    +0.000 HD
ENDBRANCH  50  58
BRANCH  54  60
ATOM     60  C   UNL     1     -11.112  -2.731   9.381  0.00  0.00    +0.000 C 
ATOM     61  O   UNL     1     -12.175  -2.267   9.018  0.00  0.00    +0.000 OA
BRANCH  60  62
ATOM     62  O   UNL     1     -10.892  -4.058   9.470  0.00  0.00    +0.000 OA
ATOM     63  H   UNL     1     -10.177  -4.216  10.134  0.00  0.00    +0.000 HD
ENDBRANCH  60  62
ENDBRANCH  54  60
ENDBRANCH  47  49
ENDBRANCH  40  47
BRANCH  41  64
ATOM     64  O   UNL     1     -11.018  -4.754  12.265  0.00  0.00    +0.000 OA
ATOM     65  H   UNL     1     -11.440  -5.618  12.352  0.00  0.00    +0.000 HD
ENDBRANCH  41  64
ENDBRANCH  35  37
ENDBRANCH  34  35
ENDBRANCH   9  34
TORSDOF 13
ENDMDL
