MODEL 1
REMARK VINA RESULT:   -10.062      0.000      0.000
REMARK INTER + INTRA:         -10.848
REMARK INTER:                 -10.650
REMARK INTRA:                  -0.198
REMARK UNBOUND:                -0.198
REMARK  Name = 
REMARK  1 active torsions:
REMARK  status: ('A' for Active; 'I' for Inactive)
REMARK    1  A    between atoms: C_6  and  C_7
REMARK                            x       y       z     vdW  Elec       q    Type
REMARK                         _______ _______ _______ _____ _____    ______ ____
ROOT
ATOM      1  C   UNL     1      -8.831 -10.493  17.656  0.00  0.00    +0.000 A 
ATOM      2  C   UNL     1      -8.791 -10.778  16.301  0.00  0.00    +0.000 A 
ATOM      3  C   UNL     1      -8.772 -12.187  16.134  0.00  0.00    +0.000 A 
ATOM      4  C   UNL     1      -8.704 -13.032  15.010  0.00  0.00    +0.000 A 
ATOM      5  C   UNL     1      -8.688 -14.416  15.199  0.00  0.00    +0.000 A 
ATOM      6  C   UNL     1      -8.745 -14.958  16.481  0.00  0.00    +0.000 A 
ATOM      7  C   UNL     1      -8.818 -14.137  17.612  0.00  0.00    +0.000 A 
ATOM      8  C   UNL     1      -8.825 -12.751  17.405  0.00  0.00    +0.000 A 
ATOM      9  N   UNL     1      -8.871 -11.710  18.304  0.00  0.00    +0.000 N 
ATOM     10  H   UNL     1      -8.758 -10.053  15.500  0.00  0.00    +0.000 HD
ATOM     11  H   UNL     1      -8.660 -12.615  14.009  0.00  0.00    +0.000 HD
ATOM     12  H   UNL     1      -8.627 -15.074  14.335  0.00  0.00    +0.000 HD
ATOM     13  H   UNL     1      -8.729 -16.039  16.606  0.00  0.00    +0.000 HD
ATOM     14  H   UNL     1      -8.860 -14.564  18.608  0.00  0.00    +0.000 HD
ATOM     15  H   UNL     1      -8.905 -11.801  19.311  0.00  0.00    +0.000 HD
ENDROOT
BRANCH   1  21
ATOM     16  N   UNL     1      -8.832  -5.798  17.469  0.00  0.00    +0.000 N 
ATOM     17  C   UNL     1      -8.832  -6.948  18.232  0.00  0.00    +0.000 A 
ATOM     18  N   UNL     1      -8.816  -6.791  19.559  0.00  0.00    +0.000 NA
ATOM     19  C   UNL     1      -8.822  -7.912  20.296  0.00  0.00    +0.000 A 
ATOM     20  C   UNL     1      -8.828  -9.171  19.753  0.00  0.00    +0.000 A 
ATOM     21  C   UNL     1      -8.819  -9.222  18.376  0.00  0.00    +0.000 A 
ATOM     22  N   UNL     1      -8.812  -8.123  17.595  0.00  0.00    +0.000 NA
ATOM     23  H   UNL     1      -8.452  -5.036  18.013  0.00  0.00    +0.000 HD
ATOM     24  H   UNL     1      -8.417  -5.976  16.566  0.00  0.00    +0.000 HD
ATOM     25  H   UNL     1      -8.823  -7.765  21.372  0.00  0.00    +0.000 HD
ATOM     26  H   UNL     1      -8.842 -10.051  20.376  0.00  0.00    +0.000 HD
ENDBRANCH   1  21
TORSDOF 1
ENDMDL
MODEL 2
REMARK VINA RESULT:    -9.672      1.337      1.434
REMARK INTER + INTRA:         -10.435
REMARK INTER:                 -10.247
REMARK INTRA:                  -0.188
REMARK UNBOUND:                -0.198
REMARK  Name = 
REMARK  1 active torsions:
REMARK  status: ('A' for Active; 'I' for Inactive)
REMARK    1  A    between atoms: C_6  and  C_7
REMARK                            x       y       z     vdW  Elec       q    Type
REMARK                         _______ _______ _______ _____ _____    ______ ____
ROOT
ATOM      1  C   UNL     1      -9.361  -9.837  17.249  0.00  0.00    +0.000 A 
ATOM      2  C   UNL     1      -9.232 -10.340  15.966  0.00  0.00    +0.000 A 
ATOM      3  C   UNL     1      -8.976 -11.734  16.048  0.00  0.00    +0.000 A 
ATOM      4  C   UNL     1      -8.735 -12.736  15.089  0.00  0.00    +0.000 A 
ATOM      5  C   UNL     1      -8.497 -14.044  15.518  0.00  0.00    +0.000 A 
ATOM      6  C   UNL     1      -8.505 -14.359  16.876  0.00  0.00    +0.000 A 
ATOM      7  C   UNL     1      -8.748 -13.379  17.845  0.00  0.00    +0.000 A 
ATOM      8  C   UNL     1      -8.976 -12.071  17.399  0.00  0.00    +0.000 A 
ATOM      9  N   UNL     1      -9.221 -10.913  18.101  0.00  0.00    +0.000 N 
ATOM     10  H   UNL     1      -9.293  -9.769  15.050  0.00  0.00    +0.000 HD
ATOM     11  H   UNL     1      -8.727 -12.496  14.031  0.00  0.00    +0.000 HD
ATOM     12  H   UNL     1      -8.301 -14.822  14.783  0.00  0.00    +0.000 HD
ATOM     13  H   UNL     1      -8.315 -15.384  17.188  0.00  0.00    +0.000 HD
ATOM     14  H   UNL     1      -8.750 -13.629  18.900  0.00  0.00    +0.000 HD
ATOM     15  H   UNL     1      -9.272 -10.833  19.108  0.00  0.00    +0.000 HD
ENDROOT
BRANCH   1  21
ATOM     16  N   UNL     1     -11.890  -5.883  17.040  0.00  0.00    +0.000 N 
ATOM     17  C   UNL     1     -10.846  -6.586  17.606  0.00  0.00    +0.000 A 
ATOM     18  N   UNL     1     -10.131  -5.955  18.541  0.00  0.00    +0.000 NA
ATOM     19  C   UNL     1      -9.120  -6.645  19.091  0.00  0.00    +0.000 A 
ATOM     20  C   UNL     1      -8.797  -7.928  18.726  0.00  0.00    +0.000 A 
ATOM     21  C   UNL     1      -9.581  -8.477  17.736  0.00  0.00    +0.000 A 
ATOM     22  N   UNL     1     -10.606  -7.822  17.154  0.00  0.00    +0.000 NA
ATOM     23  H   UNL     1     -11.726  -4.892  17.152  0.00  0.00    +0.000 HD
ATOM     24  H   UNL     1     -12.077  -6.220  16.107  0.00  0.00    +0.000 HD
ATOM     25  H   UNL     1      -8.559  -6.122  19.859  0.00  0.00    +0.000 HD
ATOM     26  H   UNL     1      -7.982  -8.456  19.196  0.00  0.00    +0.000 HD
ENDBRANCH   1  21
TORSDOF 1
ENDMDL
MODEL 3
REMARK VINA RESULT:    -9.652      1.568      2.433
REMARK INTER + INTRA:         -10.414
REMARK INTER:                 -10.219
REMARK INTRA:                  -0.196
REMARK UNBOUND:                -0.198
REMARK  Name = 
REMARK  1 active torsions:
REMARK  status: ('A' for Active; 'I' for Inactive)
REMARK    1  A    between atoms: C_6  and  C_7
REMARK                            x       y       z     vdW  Elec       q    Type
REMARK                         _______ _______ _______ _____ _____    ______ ____
ROOT
ATOM      1  C   UNL     1      -9.193  -9.127  17.345  0.00  0.00    +0.000 A 
ATOM      2  C   UNL     1      -8.943 -10.219  18.158  0.00  0.00    +0.000 A 
ATOM      3  C   UNL     1      -8.783 -11.368  17.340  0.00  0.00    +0.000 A 
ATOM      4  C   UNL     1      -8.545 -12.728  17.610  0.00  0.00    +0.000 A 
ATOM      5  C   UNL     1      -8.452 -13.628  16.545  0.00  0.00    +0.000 A 
ATOM      6  C   UNL     1      -8.585 -13.186  15.229  0.00  0.00    +0.000 A 
ATOM      7  C   UNL     1      -8.816 -11.837  14.938  0.00  0.00    +0.000 A 
ATOM      8  C   UNL     1      -8.915 -10.950  16.018  0.00  0.00    +0.000 A 
ATOM      9  N   UNL     1      -9.151  -9.594  16.047  0.00  0.00    +0.000 N 
ATOM     10  H   UNL     1      -8.899 -10.210  19.238  0.00  0.00    +0.000 HD
ATOM     11  H   UNL     1      -8.442 -13.077  18.632  0.00  0.00    +0.000 HD
ATOM     12  H   UNL     1      -8.278 -14.682  16.747  0.00  0.00    +0.000 HD
ATOM     13  H   UNL     1      -8.512 -13.904  14.415  0.00  0.00    +0.000 HD
ATOM     14  H   UNL     1      -8.920 -11.500  13.913  0.00  0.00    +0.000 HD
ATOM     15  H   UNL     1      -9.300  -9.004  15.240  0.00  0.00    +0.000 HD
ENDROOT
BRANCH   1  21
ATOM     16  N   UNL     1     -12.131  -5.474  17.022  0.00  0.00    +0.000 N 
ATOM     17  C   UNL     1     -10.940  -5.992  17.489  0.00  0.00    +0.000 A 
ATOM     18  N   UNL     1     -10.154  -5.164  18.183  0.00  0.00    +0.000 NA
ATOM     19  C   UNL     1      -9.000  -5.674  18.639  0.00  0.00    +0.000 A 
ATOM     20  C   UNL     1      -8.605  -6.968  18.411  0.00  0.00    +0.000 A 
ATOM     21  C   UNL     1      -9.476  -7.729  17.663  0.00  0.00    +0.000 A 
ATOM     22  N   UNL     1     -10.646  -7.260  17.184  0.00  0.00    +0.000 NA
ATOM     23  H   UNL     1     -12.057  -4.468  16.960  0.00  0.00    +0.000 HD
ATOM     24  H   UNL     1     -12.429  -5.969  16.194  0.00  0.00    +0.000 HD
ATOM     25  H   UNL     1      -8.380  -4.992  19.214  0.00  0.00    +0.000 HD
ATOM     26  H   UNL     1      -7.673  -7.347  18.801  0.00  0.00    +0.000 HD
ENDBRANCH   1  21
TORSDOF 1
ENDMDL
MODEL 4
REMARK VINA RESULT:    -9.436      2.327      3.483
REMARK INTER + INTRA:         -10.186
REMARK INTER:                  -9.985
REMARK INTRA:                  -0.201
REMARK UNBOUND:                -0.198
REMARK  Name = 
REMARK  1 active torsions:
REMARK  status: ('A' for Active; 'I' for Inactive)
REMARK    1  A    between atoms: C_6  and  C_7
REMARK                            x       y       z     vdW  Elec       q    Type
REMARK                         _______ _______ _______ _____ _____    ______ ____
ROOT
ATOM      1  C   UNL     1      -9.562  -8.469  16.342  0.00  0.00    +0.000 A 
ATOM      2  C   UNL     1      -9.344  -9.155  17.524  0.00  0.00    +0.000 A 
ATOM      3  C   UNL     1      -9.016 -10.502  17.215  0.00  0.00    +0.000 A 
ATOM      4  C   UNL     1      -8.729 -11.636  17.996  0.00  0.00    +0.000 A 
ATOM      5  C   UNL     1      -8.455 -12.850  17.359  0.00  0.00    +0.000 A 
ATOM      6  C   UNL     1      -8.457 -12.938  15.968  0.00  0.00    +0.000 A 
ATOM      7  C   UNL     1      -8.735 -11.820  15.173  0.00  0.00    +0.000 A 
ATOM      8  C   UNL     1      -9.016 -10.614  15.827  0.00  0.00    +0.000 A 
ATOM      9  N   UNL     1      -9.337  -9.374  15.324  0.00  0.00    +0.000 N 
ATOM     10  H   UNL     1      -9.429  -8.746  18.521  0.00  0.00    +0.000 HD
ATOM     11  H   UNL     1      -8.726 -11.574  19.080  0.00  0.00    +0.000 HD
ATOM     12  H   UNL     1      -8.241 -13.733  17.957  0.00  0.00    +0.000 HD
ATOM     13  H   UNL     1      -8.243 -13.893  15.493  0.00  0.00    +0.000 HD
ATOM     14  H   UNL     1      -8.738 -11.895  14.091  0.00  0.00    +0.000 HD
ATOM     15  H   UNL     1      -9.426  -9.140  14.345  0.00  0.00    +0.000 HD
ENDROOT
BRANCH   1  21
ATOM     16  N   UNL     1      -8.913  -4.507  13.901  0.00  0.00    +0.000 N 
ATOM     17  C   UNL     1      -9.619  -5.195  14.867  0.00  0.00    +0.000 A 
ATOM     18  N   UNL     1     -10.602  -4.531  15.482  0.00  0.00    +0.000 NA
ATOM     19  C   UNL     1     -11.289  -5.206  16.417  0.00  0.00    +0.000 A 
ATOM     20  C   UNL     1     -11.015  -6.505  16.762  0.00  0.00    +0.000 A 
ATOM     21  C   UNL     1      -9.966  -7.089  16.086  0.00  0.00    +0.000 A 
ATOM     22  N   UNL     1      -9.248  -6.450  15.140  0.00  0.00    +0.000 NA
ATOM     23  H   UNL     1      -9.003  -3.514  14.065  0.00  0.00    +0.000 HD
ATOM     24  H   UNL     1      -7.980  -4.882  13.815  0.00  0.00    +0.000 HD
ATOM     25  H   UNL     1     -12.093  -4.656  16.896  0.00  0.00    +0.000 HD
ATOM     26  H   UNL     1     -11.594  -7.020  17.513  0.00  0.00    +0.000 HD
ENDBRANCH   1  21
TORSDOF 1
ENDMDL
MODEL 5
REMARK VINA RESULT:    -9.305      1.595      2.787
REMARK INTER + INTRA:         -10.047
REMARK INTER:                  -9.856
REMARK INTRA:                  -0.191
REMARK UNBOUND:                -0.198
REMARK  Name = 
REMARK  1 active torsions:
REMARK  status: ('A' for Active; 'I' for Inactive)
REMARK    1  A    between atoms: C_6  and  C_7
REMARK                            x       y       z     vdW  Elec       q    Type
REMARK                         _______ _______ _______ _____ _____    ______ ____
ROOT
ATOM      1  C   UNL     1      -9.443  -8.835  17.170  0.00  0.00    +0.000 A 
ATOM      2  C   UNL     1      -9.192  -9.843  18.084  0.00  0.00    +0.000 A 
ATOM      3  C   UNL     1      -8.907 -11.040  17.374  0.00  0.00    +0.000 A 
ATOM      4  C   UNL     1      -8.613 -12.358  17.770  0.00  0.00    +0.000 A 
ATOM      5  C   UNL     1      -8.392 -13.329  16.790  0.00  0.00    +0.000 A 
ATOM      6  C   UNL     1      -8.453 -12.999  15.437  0.00  0.00    +0.000 A 
ATOM      7  C   UNL     1      -8.737 -11.693  15.022  0.00  0.00    +0.000 A 
ATOM      8  C   UNL     1      -8.965 -10.734  16.017  0.00  0.00    +0.000 A 
ATOM      9  N   UNL     1      -9.279  -9.397  15.921  0.00  0.00    +0.000 N 
ATOM     10  H   UNL     1      -9.227  -9.749  19.160  0.00  0.00    +0.000 HD
ATOM     11  H   UNL     1      -8.565 -12.620  18.822  0.00  0.00    +0.000 HD
ATOM     12  H   UNL     1      -8.174 -14.352  17.088  0.00  0.00    +0.000 HD
ATOM     13  H   UNL     1      -8.279 -13.771  14.690  0.00  0.00    +0.000 HD
ATOM     14  H   UNL     1      -8.785 -11.443  13.969  0.00  0.00    +0.000 HD
ATOM     15  H   UNL     1      -9.402  -8.881  15.060  0.00  0.00    +0.000 HD
ENDROOT
BRANCH   1  21
ATOM     16  N   UNL     1      -8.861  -4.814  19.529  0.00  0.00    +0.000 N 
ATOM     17  C   UNL     1      -9.498  -5.508  18.521  0.00  0.00    +0.000 A 
ATOM     18  N   UNL     1     -10.411  -4.837  17.812  0.00  0.00    +0.000 NA
ATOM     19  C   UNL     1     -11.025  -5.515  16.830  0.00  0.00    +0.000 A 
ATOM     20  C   UNL     1     -10.766  -6.833  16.548  0.00  0.00    +0.000 A 
ATOM     21  C   UNL     1      -9.827  -7.437  17.354  0.00  0.00    +0.000 A 
ATOM     22  N   UNL     1      -9.186  -6.796  18.353  0.00  0.00    +0.000 NA
ATOM     23  H   UNL     1      -9.435  -4.031  19.812  0.00  0.00    +0.000 HD
ATOM     24  H   UNL     1      -8.551  -5.447  20.251  0.00  0.00    +0.000 HD
ATOM     25  H   UNL     1     -11.753  -4.951  16.254  0.00  0.00    +0.000 HD
ATOM     26  H   UNL     1     -11.272  -7.344  15.744  0.00  0.00    +0.000 HD
ENDBRANCH   1  21
TORSDOF 1
ENDMDL
MODEL 6
REMARK VINA RESULT:    -9.295      1.544      2.323
REMARK INTER + INTRA:         -10.037
REMARK INTER:                  -9.830
REMARK INTRA:                  -0.207
REMARK UNBOUND:                -0.198
REMARK  Name = 
REMARK  1 active torsions:
REMARK  status: ('A' for Active; 'I' for Inactive)
REMARK    1  A    between atoms: C_6  and  C_7
REMARK                            x       y       z     vdW  Elec       q    Type
REMARK                         _______ _______ _______ _____ _____    ______ ____
ROOT
ATOM      1  C   UNL     1      -9.396  -8.851  16.947  0.00  0.00    +0.000 A 
ATOM      2  C   UNL     1      -9.268  -9.478  15.719  0.00  0.00    +0.000 A 
ATOM      3  C   UNL     1      -8.967 -10.848  15.938  0.00  0.00    +0.000 A 
ATOM      4  C   UNL     1      -8.706 -11.934  15.083  0.00  0.00    +0.000 A 
ATOM      5  C   UNL     1      -8.421 -13.185  15.638  0.00  0.00    +0.000 A 
ATOM      6  C   UNL     1      -8.400 -13.359  17.020  0.00  0.00    +0.000 A 
ATOM      7  C   UNL     1      -8.662 -12.293  17.889  0.00  0.00    +0.000 A 
ATOM      8  C   UNL     1      -8.938 -11.045  17.316  0.00  0.00    +0.000 A 
ATOM      9  N   UNL     1      -9.210  -9.829  17.901  0.00  0.00    +0.000 N 
ATOM     10  H   UNL     1      -9.360  -9.005  14.752  0.00  0.00    +0.000 HD
ATOM     11  H   UNL     1      -8.721 -11.804  14.005  0.00  0.00    +0.000 HD
ATOM     12  H   UNL     1      -8.210 -14.027  14.983  0.00  0.00    +0.000 HD
ATOM     13  H   UNL     1      -8.174 -14.341  17.432  0.00  0.00    +0.000 HD
ATOM     14  H   UNL     1      -8.642 -12.435  18.964  0.00  0.00    +0.000 HD
ATOM     15  H   UNL     1      -9.250  -9.649  18.895  0.00  0.00    +0.000 HD
ENDROOT
BRANCH   1  21
ATOM     16  N   UNL     1      -8.628  -5.266  19.886  0.00  0.00    +0.000 N 
ATOM     17  C   UNL     1      -9.239  -5.746  18.745  0.00  0.00    +0.000 A 
ATOM     18  N   UNL     1     -10.014  -4.890  18.071  0.00  0.00    +0.000 NA
ATOM     19  C   UNL     1     -10.601  -5.360  16.960  0.00  0.00    +0.000 A 
ATOM     20  C   UNL     1     -10.451  -6.649  16.516  0.00  0.00    +0.000 A 
ATOM     21  C   UNL     1      -9.653  -7.456  17.297  0.00  0.00    +0.000 A 
ATOM     22  N   UNL     1      -9.043  -7.028  18.421  0.00  0.00    +0.000 NA
ATOM     23  H   UNL     1      -9.144  -4.469  20.232  0.00  0.00    +0.000 HD
ATOM     24  H   UNL     1      -8.450  -6.020  20.532  0.00  0.00    +0.000 HD
ATOM     25  H   UNL     1     -11.215  -4.648  16.417  0.00  0.00    +0.000 HD
ATOM     26  H   UNL     1     -10.932  -6.991  15.612  0.00  0.00    +0.000 HD
ENDBRANCH   1  21
TORSDOF 1
ENDMDL
MODEL 7
REMARK VINA RESULT:    -8.625      1.714      2.744
REMARK INTER + INTRA:          -9.328
REMARK INTER:                  -9.133
REMARK INTRA:                  -0.195
REMARK UNBOUND:                -0.198
REMARK  Name = 
REMARK  1 active torsions:
REMARK  status: ('A' for Active; 'I' for Inactive)
REMARK    1  A    between atoms: C_6  and  C_7
REMARK                            x       y       z     vdW  Elec       q    Type
REMARK                         _______ _______ _______ _____ _____    ______ ____
ROOT
ATOM      1  C   UNL     1      -8.794  -7.804  17.959  0.00  0.00    +0.000 A 
ATOM      2  C   UNL     1      -9.002  -8.083  16.619  0.00  0.00    +0.000 A 
ATOM      3  C   UNL     1      -9.019  -9.492  16.446  0.00  0.00    +0.000 A 
ATOM      4  C   UNL     1      -9.160 -10.332  15.326  0.00  0.00    +0.000 A 
ATOM      5  C   UNL     1      -9.116 -11.718  15.504  0.00  0.00    +0.000 A 
ATOM      6  C   UNL     1      -8.942 -12.265  16.774  0.00  0.00    +0.000 A 
ATOM      7  C   UNL     1      -8.805 -11.448  17.902  0.00  0.00    +0.000 A 
ATOM      8  C   UNL     1      -8.843 -10.061  17.704  0.00  0.00    +0.000 A 
ATOM      9  N   UNL     1      -8.721  -9.023  18.600  0.00  0.00    +0.000 N 
ATOM     10  H   UNL     1      -9.111  -7.355  15.828  0.00  0.00    +0.000 HD
ATOM     11  H   UNL     1      -9.296  -9.912  14.334  0.00  0.00    +0.000 HD
ATOM     12  H   UNL     1      -9.216 -12.372  14.641  0.00  0.00    +0.000 HD
ATOM     13  H   UNL     1      -8.908 -13.346  16.890  0.00  0.00    +0.000 HD
ATOM     14  H   UNL     1      -8.668 -11.879  18.887  0.00  0.00    +0.000 HD
ATOM     15  H   UNL     1      -8.572  -9.118  19.596  0.00  0.00    +0.000 HD
ENDROOT
BRANCH   1  21
ATOM     16  N   UNL     1      -9.761  -3.211  18.173  0.00  0.00    +0.000 N 
ATOM     17  C   UNL     1      -9.153  -4.316  18.734  0.00  0.00    +0.000 A 
ATOM     18  N   UNL     1      -8.480  -4.120  19.872  0.00  0.00    +0.000 NA
ATOM     19  C   UNL     1      -7.895  -5.198  20.416  0.00  0.00    +0.000 A 
ATOM     20  C   UNL     1      -7.949  -6.449  19.855  0.00  0.00    +0.000 A 
ATOM     21  C   UNL     1      -8.646  -6.536  18.670  0.00  0.00    +0.000 A 
ATOM     22  N   UNL     1      -9.249  -5.481  18.086  0.00  0.00    +0.000 NA
ATOM     23  H   UNL     1      -9.303  -2.373  18.504  0.00  0.00    +0.000 HD
ATOM     24  H   UNL     1      -9.850  -3.328  17.175  0.00  0.00    +0.000 HD
ATOM     25  H   UNL     1      -7.366  -5.024  21.348  0.00  0.00    +0.000 HD
ATOM     26  H   UNL     1      -7.474  -7.296  20.325  0.00  0.00    +0.000 HD
ENDBRANCH   1  21
TORSDOF 1
ENDMDL
MODEL 8
REMARK VINA RESULT:    -8.500      1.535      6.385
REMARK INTER + INTRA:          -9.195
REMARK INTER:                  -8.998
REMARK INTRA:                  -0.197
REMARK UNBOUND:                -0.198
REMARK  Name = 
REMARK  1 active torsions:
REMARK  status: ('A' for Active; 'I' for Inactive)
REMARK    1  A    between atoms: C_6  and  C_7
REMARK                            x       y       z     vdW  Elec       q    Type
REMARK                         _______ _______ _______ _____ _____    ______ ____
ROOT
ATOM      1  C   UNL     1      -8.854 -10.251  17.642  0.00  0.00    +0.000 A 
ATOM      2  C   UNL     1      -8.677  -9.778  18.932  0.00  0.00    +0.000 A 
ATOM      3  C   UNL     1      -8.812  -8.365  18.919  0.00  0.00    +0.000 A 
ATOM      4  C   UNL     1      -8.707  -7.370  19.909  0.00  0.00    +0.000 A 
ATOM      5  C   UNL     1      -8.887  -6.032  19.550  0.00  0.00    +0.000 A 
ATOM      6  C   UNL     1      -9.174  -5.682  18.232  0.00  0.00    +0.000 A 
ATOM      7  C   UNL     1      -9.288  -6.656  17.233  0.00  0.00    +0.000 A 
ATOM      8  C   UNL     1      -9.096  -7.993  17.608  0.00  0.00    +0.000 A 
ATOM      9  N   UNL     1      -9.127  -9.148  16.861  0.00  0.00    +0.000 N 
ATOM     10  H   UNL     1      -8.452 -10.377  19.803  0.00  0.00    +0.000 HD
ATOM     11  H   UNL     1      -8.483  -7.636  20.937  0.00  0.00    +0.000 HD
ATOM     12  H   UNL     1      -8.798  -5.257  20.308  0.00  0.00    +0.000 HD
ATOM     13  H   UNL     1      -9.308  -4.634  17.973  0.00  0.00    +0.000 HD
ATOM     14  H   UNL     1      -9.509  -6.379  16.209  0.00  0.00    +0.000 HD
ATOM     15  H   UNL     1      -9.300  -9.202  15.866  0.00  0.00    +0.000 HD
ENDROOT
BRANCH   1  21
ATOM     16  N   UNL     1      -8.874 -14.886  18.412  0.00  0.00    +0.000 N 
ATOM     17  C   UNL     1      -8.804 -13.840  17.514  0.00  0.00    +0.000 A 
ATOM     18  N   UNL     1      -8.665 -14.161  16.225  0.00  0.00    +0.000 NA
ATOM     19  C   UNL     1      -8.603 -13.140  15.356  0.00  0.00    +0.000 A 
ATOM     20  C   UNL     1      -8.658 -11.823  15.736  0.00  0.00    +0.000 A 
ATOM     21  C   UNL     1      -8.776 -11.602  17.090  0.00  0.00    +0.000 A 
ATOM     22  N   UNL     1      -8.842 -12.595  17.999  0.00  0.00    +0.000 NA
ATOM     23  H   UNL     1      -8.447 -15.706  18.004  0.00  0.00    +0.000 HD
ATOM     24  H   UNL     1      -8.545 -14.594  19.320  0.00  0.00    +0.000 HD
ATOM     25  H   UNL     1      -8.505 -13.419  14.311  0.00  0.00    +0.000 HD
ATOM     26  H   UNL     1      -8.614 -11.027  15.008  0.00  0.00    +0.000 HD
ENDBRANCH   1  21
TORSDOF 1
ENDMDL
MODEL 9
REMARK VINA RESULT:    -8.288      1.787      6.232
REMARK INTER + INTRA:          -8.971
REMARK INTER:                  -8.769
REMARK INTRA:                  -0.202
REMARK UNBOUND:                -0.198
REMARK  Name = 
REMARK  1 active torsions:
REMARK  status: ('A' for Active; 'I' for Inactive)
REMARK    1  A    between atoms: C_6  and  C_7
REMARK                            x       y       z     vdW  Elec       q    Type
REMARK                         _______ _______ _______ _____ _____    ______ ____
ROOT
ATOM      1  C   UNL     1      -9.494  -9.625  16.911  0.00  0.00    +0.000 A 
ATOM      2  C   UNL     1     -10.303  -8.828  16.118  0.00  0.00    +0.000 A 
ATOM      3  C   UNL     1     -10.401  -7.544  16.715  0.00  0.00    +0.000 A 
ATOM      4  C   UNL     1     -11.094  -6.366  16.380  0.00  0.00    +0.000 A 
ATOM      5  C   UNL     1     -10.984  -5.251  17.214  0.00  0.00    +0.000 A 
ATOM      6  C   UNL     1     -10.194  -5.297  18.362  0.00  0.00    +0.000 A 
ATOM      7  C   UNL     1      -9.492  -6.456  18.711  0.00  0.00    +0.000 A 
ATOM      8  C   UNL     1      -9.620  -7.568  17.868  0.00  0.00    +0.000 A 
ATOM      9  N   UNL     1      -9.075  -8.829  17.957  0.00  0.00    +0.000 N 
ATOM     10  H   UNL     1     -10.798  -9.133  15.208  0.00  0.00    +0.000 HD
ATOM     11  H   UNL     1     -11.711  -6.324  15.488  0.00  0.00    +0.000 HD
ATOM     12  H   UNL     1     -11.525  -4.340  16.966  0.00  0.00    +0.000 HD
ATOM     13  H   UNL     1     -10.125  -4.418  18.999  0.00  0.00    +0.000 HD
ATOM     14  H   UNL     1      -8.880  -6.488  19.605  0.00  0.00    +0.000 HD
ATOM     15  H   UNL     1      -8.467  -9.158  18.695  0.00  0.00    +0.000 HD
ENDROOT
BRANCH   1  21
ATOM     16  N   UNL     1      -8.897 -13.798  18.985  0.00  0.00    +0.000 N 
ATOM     17  C   UNL     1      -8.840 -13.032  17.839  0.00  0.00    +0.000 A 
ATOM     18  N   UNL     1      -8.425 -13.644  16.726  0.00  0.00    +0.000 NA
ATOM     19  C   UNL     1      -8.376 -12.896  15.612  0.00  0.00    +0.000 A 
ATOM     20  C   UNL     1      -8.712 -11.567  15.583  0.00  0.00    +0.000 A 
ATOM     21  C   UNL     1      -9.102 -11.027  16.789  0.00  0.00    +0.000 A 
ATOM     22  N   UNL     1      -9.165 -11.739  17.932  0.00  0.00    +0.000 NA
ATOM     23  H   UNL     1      -8.277 -14.590  18.890  0.00  0.00    +0.000 HD
ATOM     24  H   UNL     1      -8.785 -13.216  19.803  0.00  0.00    +0.000 HD
ATOM     25  H   UNL     1      -8.052 -13.413  14.714  0.00  0.00    +0.000 HD
ATOM     26  H   UNL     1      -8.669 -10.997  14.667  0.00  0.00    +0.000 HD
ENDBRANCH   1  21
TORSDOF 1
ENDMDL
