REMARK  Name = 
REMARK  14 active torsions:
REMARK  status: ('A' for Active; 'I' for Inactive)
REMARK    1  A    between atoms: C_1  and  O_2
REMARK    2  A    between atoms: O_2  and  C_3
REMARK    3  A    between atoms: C_3  and  C_5
REMARK    4  A    between atoms: C_9  and  O_10
REMARK    5  A    between atoms: C_11  and  C_12
REMARK    6  A    between atoms: C_12  and  C_14
REMARK    7  A    between atoms: C_15  and  O_16
REMARK    8  A    between atoms: C_18  and  C_19
REMARK    9  A    between atoms: C_19  and  O_21
REMARK   10  A    between atoms: O_21  and  C_22
REMARK   11  A    between atoms: C_26  and  C_27
REMARK   12  A    between atoms: C_27  and  C_28
REMARK   13  A    between atoms: C_31  and  O_32
REMARK   14  A    between atoms: C_36  and  O_37
REMARK                            x       y       z     vdW  Elec       q    Type
REMARK                         _______ _______ _______ _____ _____    ______ ____
ROOT
ATOM      1  C   UNL     1      -0.852   3.136   1.479  0.00  0.00    +0.000 A 
ATOM      2  C   UNL     1      -0.209   3.047   2.729  0.00  0.00    +0.000 A 
ATOM      3  C   UNL     1       0.597   1.942   3.061  0.00  0.00    +0.000 A 
ATOM      4  C   UNL     1       0.809   0.913   2.130  0.00  0.00    +0.000 A 
ATOM      5  C   UNL     1       0.217   1.020   0.869  0.00  0.00    +0.000 A 
ATOM      6  C   UNL     1      -0.602   2.111   0.556  0.00  0.00    +0.000 A 
ATOM      7  H   UNL     1       1.053   1.896   4.049  0.00  0.00    +0.000 HD
ATOM      8  H   UNL     1       0.395   0.258   0.115  0.00  0.00    +0.000 HD
ENDROOT
BRANCH   1   9
ATOM      9  C   UNL     1      -1.815   4.256   1.201  0.00  0.00    +0.000 C 
ATOM     10  O   UNL     1      -1.682   5.308   1.829  0.00  0.00    +0.000 OA
BRANCH   9  16
ATOM     11  C   UNL     1      -3.392   5.079  -0.626  0.00  0.00    +0.000 A 
ATOM     12  C   UNL     1      -4.513   4.842  -1.458  0.00  0.00    +0.000 A 
ATOM     13  C   UNL     1      -5.228   3.650  -1.393  0.00  0.00    +0.000 A 
ATOM     14  C   UNL     1      -4.856   2.681  -0.473  0.00  0.00    +0.000 A 
ATOM     15  C   UNL     1      -3.772   2.912   0.379  0.00  0.00    +0.000 A 
ATOM     16  C   UNL     1      -2.996   4.090   0.296  0.00  0.00    +0.000 A 
ATOM     17  H   UNL     1      -4.825   5.582  -2.195  0.00  0.00    +0.000 HD
ATOM     18  H   UNL     1      -6.069   3.481  -2.062  0.00  0.00    +0.000 HD
ATOM     19  H   UNL     1      -5.422   1.756  -0.427  0.00  0.00    +0.000 HD
BRANCH  11  20
ATOM     20  C   UNL     1      -2.620   6.331  -0.873  0.00  0.00    +0.000 C 
ATOM     21  O   UNL     1      -1.411   6.441  -0.782  0.00  0.00    +0.000 OA
BRANCH  20  22
ATOM     22  O   UNL     1      -3.475   7.288  -1.330  0.00  0.00    +0.000 OA
BRANCH  22  23
ATOM     23  C   UNL     1      -2.860   8.490  -1.802  0.00  0.00    +0.000 C 
ATOM     24  H   UNL     1      -3.571   8.991  -2.469  0.00  0.00    +0.000 HD
ATOM     25  H   UNL     1      -1.951   8.286  -2.375  0.00  0.00    +0.000 HD
ATOM     26  H   UNL     1      -2.650   9.148  -0.957  0.00  0.00    +0.000 HD
ENDBRANCH  22  23
ENDBRANCH  20  22
ENDBRANCH  11  20
BRANCH  15  27
ATOM     27  O   UNL     1      -3.471   1.941   1.299  0.00  0.00    +0.000 OA
ATOM     28  H   UNL     1      -3.922   1.116   1.054  0.00  0.00    +0.000 HD
ENDBRANCH  15  27
ENDBRANCH   9  16
ENDBRANCH   1   9
BRANCH   2  29
ATOM     29  O   UNL     1      -0.349   4.010   3.698  0.00  0.00    +0.000 OA
ATOM     30  H   UNL     1      -0.799   4.785   3.286  0.00  0.00    +0.000 HD
ENDBRANCH   2  29
BRANCH   4  31
ATOM     31  C   UNL     1       1.638  -0.285   2.489  0.00  0.00    +0.000 C 
ATOM     32  O   UNL     1       2.189  -0.423   3.562  0.00  0.00    +0.000 OA
BRANCH  31  33
ATOM     33  O   UNL     1       1.651  -1.197   1.457  0.00  0.00    +0.000 OA
BRANCH  33  34
ATOM     34  C   UNL     1       2.384  -2.402   1.709  0.00  0.00    +0.000 C 
ATOM     35  C   UNL     1       3.890  -2.210   1.578  0.00  0.00    +0.000 C 
ATOM     36  C   UNL     1       4.451  -3.616   1.386  0.00  0.00    +0.000 C 
ATOM     37  C   UNL     1       3.267  -4.509   1.017  0.00  0.00    +0.000 C 
ATOM     38  C   UNL     1       2.095  -3.557   0.718  0.00  0.00    +0.000 C 
ATOM     39  H   UNL     1       2.141  -2.770   2.718  0.00  0.00    +0.000 HD
ATOM     40  H   UNL     1       4.321  -1.719   2.456  0.00  0.00    +0.000 HD
ATOM     41  H   UNL     1       4.123  -1.576   0.715  0.00  0.00    +0.000 HD
ATOM     42  H   UNL     1       4.923  -3.983   2.303  0.00  0.00    +0.000 HD
ATOM     43  H   UNL     1       5.213  -3.619   0.599  0.00  0.00    +0.000 HD
ATOM     44  H   UNL     1       3.010  -5.148   1.871  0.00  0.00    +0.000 HD
ATOM     45  H   UNL     1       3.524  -5.183   0.193  0.00  0.00    +0.000 HD
ATOM     46  H   UNL     1       1.149  -4.027   1.012  0.00  0.00    +0.000 HD
BRANCH  38  47
ATOM     47  C   UNL     1       2.018  -3.215  -0.795  0.00  0.00    +0.000 C 
ATOM     48  H   UNL     1       2.953  -2.746  -1.130  0.00  0.00    +0.000 HD
ATOM     49  H   UNL     1       1.219  -2.486  -0.977  0.00  0.00    +0.000 HD
BRANCH  47  50
ATOM     50  C   UNL     1       1.736  -4.454  -1.645  0.00  0.00    +0.000 A 
ATOM     51  C   UNL     1       0.603  -5.237  -1.379  0.00  0.00    +0.000 A 
ATOM     52  C   UNL     1       0.409  -6.469  -2.009  0.00  0.00    +0.000 A 
ATOM     53  C   UNL     1       1.317  -6.897  -2.968  0.00  0.00    +0.000 A 
ATOM     54  C   UNL     1       2.403  -6.104  -3.314  0.00  0.00    +0.000 A 
ATOM     55  C   UNL     1       2.618  -4.885  -2.647  0.00  0.00    +0.000 A 
ATOM     56  H   UNL     1      -0.127  -4.909  -0.644  0.00  0.00    +0.000 HD
ATOM     57  H   UNL     1      -0.436  -7.082  -1.718  0.00  0.00    +0.000 HD
ATOM     58  H   UNL     1       3.096  -6.444  -4.079  0.00  0.00    +0.000 HD
ATOM     59  H   UNL     1       3.499  -4.301  -2.907  0.00  0.00    +0.000 HD
BRANCH  53  60
ATOM     60  O   UNL     1       1.170  -8.107  -3.584  0.00  0.00    +0.000 OA
ATOM     61  H   UNL     1       0.395  -8.556  -3.204  0.00  0.00    +0.000 HD
ENDBRANCH  53  60
ENDBRANCH  47  50
ENDBRANCH  38  47
ENDBRANCH  33  34
ENDBRANCH  31  33
ENDBRANCH   4  31
BRANCH   6  62
ATOM     62  O   UNL     1      -1.175   2.122  -0.687  0.00  0.00    +0.000 OA
ATOM     63  H   UNL     1      -1.423   1.206  -0.904  0.00  0.00    +0.000 HD
ENDBRANCH   6  62
TORSDOF 14
