
 OpenBabel01112422453D

 26 28  0  0  0  0  0  0  0  0999 V2000
    1.7388   -2.1961   -0.8142 N   0  0  0  0  0  0  0  0  0  0  0  0
    1.0955   -1.0693   -0.3688 C   0  0  0  0  0  0  0  0  0  0  0  0
   -0.1058   -1.2371    0.1943 N   0  0  0  0  0  0  0  0  0  0  0  0
   -0.6904   -0.1367    0.6990 C   0  0  0  0  0  0  0  0  0  0  0  0
   -0.1203    1.1096    0.6583 C   0  0  0  0  0  0  0  0  0  0  0  0
    1.1117    1.1835    0.0440 C   0  0  0  0  0  0  0  0  0  0  0  0
    1.8448    2.4450   -0.0328 C   0  0  0  0  0  0  0  0  0  0  0  0
    1.7560    3.4413    0.9269 C   0  0  0  0  0  0  0  0  0  0  0  0
    2.5951    4.4658    0.5695 N   0  0  0  0  0  0  0  0  0  0  0  0
    3.2261    4.1680   -0.6163 C   0  0  0  0  0  0  0  0  0  0  0  0
    4.1568    4.9192   -1.3483 C   0  0  0  0  0  0  0  0  0  0  0  0
    4.6428    4.3666   -2.5365 C   0  0  0  0  0  0  0  0  0  0  0  0
    4.2096    3.1154   -2.9664 C   0  0  0  0  0  0  0  0  0  0  0  0
    4.8790    2.4041   -4.5879 Br  0  0  0  0  0  0  0  0  0  0  0  0
    3.2855    2.3737   -2.2238 C   0  0  0  0  0  0  0  0  0  0  0  0
    2.7800    2.9075   -1.0181 C   0  0  0  0  0  0  0  0  0  0  0  0
    1.7227    0.1041   -0.4897 N   0  0  0  0  0  0  0  0  0  0  0  0
    1.1373   -2.9966   -0.9264 H   0  0  0  0  0  0  0  0  0  0  0  0
    2.4976   -2.0238   -1.4529 H   0  0  0  0  0  0  0  0  0  0  0  0
   -1.6568   -0.2980    1.1657 H   0  0  0  0  0  0  0  0  0  0  0  0
   -0.6203    1.9692    1.0841 H   0  0  0  0  0  0  0  0  0  0  0  0
    1.1895    3.5068    1.8454 H   0  0  0  0  0  0  0  0  0  0  0  0
    2.7302    5.3176    1.0907 H   0  0  0  0  0  0  0  0  0  0  0  0
    4.4918    5.8948   -1.0112 H   0  0  0  0  0  0  0  0  0  0  0  0
    5.3608    4.9279   -3.1261 H   0  0  0  0  0  0  0  0  0  0  0  0
    2.9544    1.3960   -2.5614 H   0  0  0  0  0  0  0  0  0  0  0  0
  1  2  1  0  0  0  0
  1 18  1  0  0  0  0
  1 19  1  0  0  0  0
  2  3  1  0  0  0  0
  2 17  2  0  0  0  0
  3  4  2  0  0  0  0
  4  5  1  0  0  0  0
  4 20  1  0  0  0  0
  5  6  2  0  0  0  0
  5 21  1  0  0  0  0
  6  7  1  0  0  0  0
  6 17  1  0  0  0  0
  7  8  2  0  0  0  0
  7 16  1  0  0  0  0
  8  9  1  0  0  0  0
  8 22  1  0  0  0  0
  9 10  1  0  0  0  0
  9 23  1  0  0  0  0
 10 11  1  0  0  0  0
 10 16  2  0  0  0  0
 11 12  2  0  0  0  0
 11 24  1  0  0  0  0
 12 13  1  0  0  0  0
 12 25  1  0  0  0  0
 13 14  1  0  0  0  0
 13 15  2  0  0  0  0
 15 16  1  0  0  0  0
 15 26  1  0  0  0  0
M  END
$$$$
