REMARK  Name = 
REMARK  6 active torsions:
REMARK  status: ('A' for Active; 'I' for Inactive)
REMARK    1  A    between atoms: O_1  and  C_2
REMARK    2  A    between atoms: C_7  and  O_8
REMARK    3  A    between atoms: C_9  and  O_10
REMARK    4  A    between atoms: N_13  and  C_14
REMARK    5  A    between atoms: C_14  and  C_15
REMARK    6  A    between atoms: C_23  and  O_24
REMARK                            x       y       z     vdW  Elec       q    Type
REMARK                         _______ _______ _______ _____ _____    ______ ____
ROOT
ATOM      1  C   UNL     1      -3.795   0.463  -0.784  0.00  0.00    +0.000 A 
ATOM      2  C   UNL     1      -3.143  -0.770  -0.778  0.00  0.00    +0.000 A 
ATOM      3  C   UNL     1      -1.733  -0.803  -0.723  0.00  0.00    +0.000 A 
ATOM      4  C   UNL     1      -0.779  -1.869  -0.695  0.00  0.00    +0.000 A 
ATOM      5  C   UNL     1      -0.899  -3.277  -0.759  0.00  0.00    +0.000 A 
ATOM      6  C   UNL     1       0.255  -4.051  -0.677  0.00  0.00    +0.000 A 
ATOM      7  C   UNL     1       1.497  -3.459  -0.486  0.00  0.00    +0.000 A 
ATOM      8  C   UNL     1       1.646  -2.078  -0.398  0.00  0.00    +0.000 A 
ATOM      9  C   UNL     1       0.489  -1.296  -0.558  0.00  0.00    +0.000 A 
ATOM     10  N   UNL     1       0.320   0.076  -0.642  0.00  0.00    +0.000 N 
ATOM     11  C   UNL     1      -1.022   0.397  -0.681  0.00  0.00    +0.000 A 
ATOM     12  C   UNL     1      -1.675   1.648  -0.699  0.00  0.00    +0.000 A 
ATOM     13  C   UNL     1      -3.070   1.651  -0.745  0.00  0.00    +0.000 A 
ATOM     14  H   UNL     1      -3.701  -1.700  -0.803  0.00  0.00    +0.000 HD
ATOM     15  H   UNL     1      -1.877  -3.727  -0.890  0.00  0.00    +0.000 HD
ATOM     16  H   UNL     1       2.624  -1.640  -0.231  0.00  0.00    +0.000 HD
ATOM     17  H   UNL     1      -1.110   2.571  -0.666  0.00  0.00    +0.000 HD
ENDROOT
BRANCH  10  18
ATOM     18  C   UNL     1       1.410   1.045  -0.777  0.00  0.00    +0.000 C 
ATOM     19  H   UNL     1       1.054   1.805  -1.484  0.00  0.00    +0.000 HD
ATOM     20  H   UNL     1       2.262   0.542  -1.246  0.00  0.00    +0.000 HD
BRANCH  18  21
ATOM     21  C   UNL     1       1.820   1.728   0.509  0.00  0.00    +0.000 A 
ATOM     22  C   UNL     1       1.340   1.347   1.770  0.00  0.00    +0.000 A 
ATOM     23  C   UNL     1       1.650   2.095   2.906  0.00  0.00    +0.000 A 
ATOM     24  C   UNL     1       2.470   3.215   2.806  0.00  0.00    +0.000 A 
ATOM     25  C   UNL     1       3.015   3.566   1.574  0.00  0.00    +0.000 A 
ATOM     26  C   UNL     1       2.698   2.824   0.434  0.00  0.00    +0.000 A 
ATOM     27  H   UNL     1       0.694   0.480   1.889  0.00  0.00    +0.000 HD
ATOM     28  H   UNL     1       1.233   1.808   3.869  0.00  0.00    +0.000 HD
ATOM     29  H   UNL     1       2.685   3.811   3.689  0.00  0.00    +0.000 HD
ATOM     30  H   UNL     1       3.674   4.428   1.499  0.00  0.00    +0.000 HD
ATOM     31  H   UNL     1       3.126   3.125  -0.521  0.00  0.00    +0.000 HD
ENDBRANCH  18  21
ENDBRANCH  10  18
BRANCH   1  32
ATOM     32  O   UNL     1      -5.163   0.513  -0.815  0.00  0.00    +0.000 OA
ATOM     33  H   UNL     1      -5.513  -0.388  -0.766  0.00  0.00    +0.000 HD
ENDBRANCH   1  32
BRANCH   6  34
ATOM     34  O   UNL     1       0.211  -5.416  -0.784  0.00  0.00    +0.000 OA
ATOM     35  H   UNL     1      -0.717  -5.679  -0.911  0.00  0.00    +0.000 HD
ENDBRANCH   6  34
BRANCH   7  36
ATOM     36  O   UNL     1       2.614  -4.245  -0.407  0.00  0.00    +0.000 OA
ATOM     37  H   UNL     1       2.283  -5.152  -0.569  0.00  0.00    +0.000 HD
ENDBRANCH   7  36
BRANCH  13  38
ATOM     38  O   UNL     1      -3.752   2.839  -0.754  0.00  0.00    +0.000 OA
ATOM     39  H   UNL     1      -3.119   3.570  -0.694  0.00  0.00    +0.000 HD
ENDBRANCH  13  38
TORSDOF 6
