REMARK  Name = 
REMARK  7 active torsions:
REMARK  status: ('A' for Active; 'I' for Inactive)
REMARK    1  A    between atoms: C_1  and  O_2
REMARK    2  A    between atoms: O_2  and  C_3
REMARK    3  A    between atoms: N_17  and  C_18
REMARK    4  A    between atoms: N_21  and  C_22
REMARK    5  A    between atoms: C_22  and  C_23
REMARK    6  A    between atoms: C_23  and  C_24
REMARK    7  A    between atoms: C_24  and  O_25
REMARK                            x       y       z     vdW  Elec       q    Type
REMARK                         _______ _______ _______ _____ _____    ______ ____
ROOT
ATOM      1  C   UNL     1      -2.759   1.219  -3.478  0.00  0.00    +0.000 A 
ATOM      2  C   UNL     1      -3.161  -0.088  -3.236  0.00  0.00    +0.000 A 
ATOM      3  C   UNL     1      -2.649  -0.792  -2.144  0.00  0.00    +0.000 A 
ATOM      4  C   UNL     1      -1.724  -0.175  -1.274  0.00  0.00    +0.000 A 
ATOM      5  C   UNL     1      -1.101  -0.456  -0.079  0.00  0.00    +0.000 A 
ATOM      6  C   UNL     1      -1.203  -1.726   0.533  0.00  0.00    +0.000 A 
ATOM      7  C   UNL     1      -0.704  -1.810   1.843  0.00  0.00    +0.000 A 
ATOM      8  C   UNL     1       0.265  -0.934   2.334  0.00  0.00    +0.000 A 
ATOM      9  C   UNL     1       0.563   0.228   1.568  0.00  0.00    +0.000 A 
ATOM     10  C   UNL     1       1.771   0.909   1.771  0.00  0.00    +0.000 A 
ATOM     11  C   UNL     1       2.862   0.176   2.268  0.00  0.00    +0.000 A 
ATOM     12  C   UNL     1       2.584  -1.133   2.666  0.00  0.00    +0.000 A 
ATOM     13  C   UNL     1       2.999  -2.438   2.195  0.00  0.00    +0.000 A 
ATOM     14  C   UNL     1       2.203  -3.371   2.841  0.00  0.00    +0.000 A 
ATOM     15  N   UNL     1       1.578  -2.619   3.827  0.00  0.00    +0.000 N 
ATOM     16  C   UNL     1       1.300  -1.407   3.175  0.00  0.00    +0.000 A 
ATOM     17  C   UNL     1      -0.248   0.501   0.422  0.00  0.00    +0.000 A 
ATOM     18  N   UNL     1      -0.318   1.465  -0.587  0.00  0.00    +0.000 N 
ATOM     19  C   UNL     1      -1.270   1.117  -1.565  0.00  0.00    +0.000 A 
ATOM     20  C   UNL     1      -1.772   1.820  -2.680  0.00  0.00    +0.000 A 
ATOM     21  C   UNL     1      -1.044  -3.107   2.348  0.00  0.00    +0.000 C 
ATOM     22  O   UNL     1      -1.098  -3.588   3.472  0.00  0.00    +0.000 OA
ATOM     23  N   UNL     1      -1.355  -3.797   1.211  0.00  0.00    +0.000 N 
ATOM     24  C   UNL     1      -1.524  -3.047   0.079  0.00  0.00    +0.000 C 
ATOM     25  O   UNL     1      -1.753  -3.541  -1.016  0.00  0.00    +0.000 OA
ATOM     26  H   UNL     1      -3.877  -0.596  -3.875  0.00  0.00    +0.000 HD
ATOM     27  H   UNL     1      -3.009  -1.802  -1.974  0.00  0.00    +0.000 HD
ATOM     28  H   UNL     1       2.001   1.858   1.313  0.00  0.00    +0.000 HD
ATOM     29  H   UNL     1       3.874   0.517   2.087  0.00  0.00    +0.000 HD
ATOM     30  H   UNL     1       3.671  -2.645   1.376  0.00  0.00    +0.000 HD
ATOM     31  H   UNL     1       2.095  -4.447   2.805  0.00  0.00    +0.000 HD
ATOM     32  H   UNL     1      -1.440   2.825  -2.914  0.00  0.00    +0.000 HD
ATOM     33  H   UNL     1      -1.188  -4.785   1.160  0.00  0.00    +0.000 HD
ENDROOT
BRANCH  15  34
ATOM     34  C   UNL     1       2.173  -2.656   5.170  0.00  0.00    +0.000 C 
ATOM     35  H   UNL     1       1.959  -3.628   5.617  0.00  0.00    +0.000 HD
ATOM     36  H   UNL     1       1.776  -1.838   5.773  0.00  0.00    +0.000 HD
ATOM     37  H   UNL     1       3.260  -2.536   5.063  0.00  0.00    +0.000 HD
ENDBRANCH  15  34
BRANCH  18  38
ATOM     38  C   UNL     1       0.426   2.724  -0.620  0.00  0.00    +0.000 C 
ATOM     39  H   UNL     1       0.516   3.081   0.412  0.00  0.00    +0.000 HD
ATOM     40  H   UNL     1      -0.197   3.463  -1.130  0.00  0.00    +0.000 HD
BRANCH  38  41
ATOM     41  C   UNL     1       1.786   2.608  -1.320  0.00  0.00    +0.000 C 
ATOM     42  H   UNL     1       1.632   2.340  -2.373  0.00  0.00    +0.000 HD
ATOM     43  H   UNL     1       2.393   1.807  -0.884  0.00  0.00    +0.000 HD
BRANCH  41  44
ATOM     44  C   UNL     1       2.558   3.919  -1.238  0.00  0.00    +0.000 C 
ATOM     45  H   UNL     1       3.538   3.830  -1.719  0.00  0.00    +0.000 HD
ATOM     46  H   UNL     1       2.722   4.211  -0.196  0.00  0.00    +0.000 HD
BRANCH  44  47
ATOM     47  O   UNL     1       1.833   4.958  -1.879  0.00  0.00    +0.000 OA
ATOM     48  H   UNL     1       1.788   4.745  -2.828  0.00  0.00    +0.000 HD
ENDBRANCH  44  47
ENDBRANCH  41  44
ENDBRANCH  38  41
ENDBRANCH  18  38
BRANCH   1  49
ATOM     49  O   UNL     1      -3.255   1.993  -4.497  0.00  0.00    +0.000 OA
BRANCH  49  50
ATOM     50  C   UNL     1      -4.603   1.702  -4.869  0.00  0.00    +0.000 C 
ATOM     51  H   UNL     1      -4.949   2.498  -5.534  0.00  0.00    +0.000 HD
ATOM     52  H   UNL     1      -5.266   1.686  -3.995  0.00  0.00    +0.000 HD
ATOM     53  H   UNL     1      -4.665   0.760  -5.424  0.00  0.00    +0.000 HD
ENDBRANCH  49  50
ENDBRANCH   1  49
TORSDOF 7
