REMARK  Name = 
REMARK  15 active torsions:
REMARK  status: ('A' for Active; 'I' for Inactive)
REMARK    1  A    between atoms: C_1  and  O_2
REMARK    2  A    between atoms: O_2  and  C_3
REMARK    3  A    between atoms: C_3  and  C_5
REMARK    4  A    between atoms: C_9  and  O_10
REMARK    5  A    between atoms: C_11  and  C_12
REMARK    6  A    between atoms: C_12  and  C_14
REMARK    7  A    between atoms: C_15  and  O_16
REMARK    8  A    between atoms: C_18  and  C_19
REMARK    9  A    between atoms: C_19  and  O_21
REMARK   10  A    between atoms: O_21  and  C_22
REMARK   11  A    between atoms: C_22  and  C_23
REMARK   12  A    between atoms: C_23  and  C_24
REMARK   13  A    between atoms: C_24  and  C_25
REMARK   14  A    between atoms: C_28  and  O_29
REMARK   15  A    between atoms: C_33  and  O_34
REMARK                            x       y       z     vdW  Elec       q    Type
REMARK                         _______ _______ _______ _____ _____    ______ ____
ROOT
ATOM      1  C   UNL     1      -1.486   2.745   0.165  0.00  0.00    +0.000 A 
ATOM      2  C   UNL     1      -0.744   3.007   1.337  0.00  0.00    +0.000 A 
ATOM      3  C   UNL     1       0.040   2.023   1.949  0.00  0.00    +0.000 A 
ATOM      4  C   UNL     1       0.067   0.723   1.421  0.00  0.00    +0.000 A 
ATOM      5  C   UNL     1      -0.693   0.441   0.284  0.00  0.00    +0.000 A 
ATOM      6  C   UNL     1      -1.430   1.446  -0.355  0.00  0.00    +0.000 A 
ATOM      7  H   UNL     1       0.642   2.276   2.817  0.00  0.00    +0.000 HD
ATOM      8  H   UNL     1      -0.683  -0.562  -0.142  0.00  0.00    +0.000 HD
ENDROOT
BRANCH   1   9
ATOM      9  C   UNL     1      -2.312   3.832  -0.450  0.00  0.00    +0.000 C 
ATOM     10  O   UNL     1      -2.011   5.000  -0.197  0.00  0.00    +0.000 OA
BRANCH   9  16
ATOM     11  C   UNL     1      -3.852   4.289  -2.417  0.00  0.00    +0.000 A 
ATOM     12  C   UNL     1      -5.050   4.001  -3.112  0.00  0.00    +0.000 A 
ATOM     13  C   UNL     1      -5.916   3.000  -2.684  0.00  0.00    +0.000 A 
ATOM     14  C   UNL     1      -5.616   2.283  -1.536  0.00  0.00    +0.000 A 
ATOM     15  C   UNL     1      -4.461   2.586  -0.811  0.00  0.00    +0.000 A 
ATOM     16  C   UNL     1      -3.542   3.563  -1.251  0.00  0.00    +0.000 A 
ATOM     17  H   UNL     1      -5.311   4.545  -4.019  0.00  0.00    +0.000 HD
ATOM     18  H   UNL     1      -6.820   2.784  -3.248  0.00  0.00    +0.000 HD
ATOM     19  H   UNL     1      -6.296   1.502  -1.208  0.00  0.00    +0.000 HD
BRANCH  11  20
ATOM     20  C   UNL     1      -2.926   5.274  -3.045  0.00  0.00    +0.000 C 
ATOM     21  O   UNL     1      -1.709   5.210  -3.019  0.00  0.00    +0.000 OA
BRANCH  20  22
ATOM     22  O   UNL     1      -3.661   6.173  -3.754  0.00  0.00    +0.000 OA
BRANCH  22  23
ATOM     23  C   UNL     1      -2.915   7.064  -4.582  0.00  0.00    +0.000 C 
ATOM     24  H   UNL     1      -3.586   7.444  -5.361  0.00  0.00    +0.000 HD
ATOM     25  H   UNL     1      -2.079   6.561  -5.079  0.00  0.00    +0.000 HD
ATOM     26  H   UNL     1      -2.563   7.909  -3.984  0.00  0.00    +0.000 HD
ENDBRANCH  22  23
ENDBRANCH  20  22
ENDBRANCH  11  20
BRANCH  15  27
ATOM     27  O   UNL     1      -4.247   1.891   0.351  0.00  0.00    +0.000 OA
ATOM     28  H   UNL     1      -4.720   1.044   0.298  0.00  0.00    +0.000 HD
ENDBRANCH  15  27
ENDBRANCH   9  16
ENDBRANCH   1   9
BRANCH   2  29
ATOM     29  O   UNL     1      -0.740   4.231   1.969  0.00  0.00    +0.000 OA
ATOM     30  H   UNL     1      -1.248   4.862   1.405  0.00  0.00    +0.000 HD
ENDBRANCH   2  29
BRANCH   4  31
ATOM     31  C   UNL     1       1.009  -0.276   2.000  0.00  0.00    +0.000 C 
ATOM     32  O   UNL     1       1.812  -0.046   2.883  0.00  0.00    +0.000 OA
BRANCH  31  33
ATOM     33  O   UNL     1       0.936  -1.418   1.271  0.00  0.00    +0.000 OA
BRANCH  33  34
ATOM     34  C   UNL     1       2.204  -1.912   0.826  0.00  0.00    +0.000 C 
ATOM     35  H   UNL     1       2.998  -1.171   0.980  0.00  0.00    +0.000 HD
ATOM     36  H   UNL     1       2.104  -2.048  -0.257  0.00  0.00    +0.000 HD
BRANCH  34  37
ATOM     37  C   UNL     1       2.559  -3.242   1.476  0.00  0.00    +0.000 C 
ATOM     38  H   UNL     1       1.750  -3.965   1.311  0.00  0.00    +0.000 HD
ATOM     39  H   UNL     1       2.622  -3.106   2.562  0.00  0.00    +0.000 HD
BRANCH  37  40
ATOM     40  C   UNL     1       3.877  -3.770   0.899  0.00  0.00    +0.000 C 
ATOM     41  H   UNL     1       4.674  -3.029   1.043  0.00  0.00    +0.000 HD
ATOM     42  H   UNL     1       3.770  -3.890  -0.188  0.00  0.00    +0.000 HD
BRANCH  40  43
ATOM     43  C   UNL     1       4.335  -5.071   1.509  0.00  0.00    +0.000 A 
ATOM     44  C   UNL     1       4.504  -6.219   0.718  0.00  0.00    +0.000 A 
ATOM     45  C   UNL     1       4.978  -7.407   1.281  0.00  0.00    +0.000 A 
ATOM     46  C   UNL     1       5.288  -7.447   2.637  0.00  0.00    +0.000 A 
ATOM     47  C   UNL     1       5.128  -6.322   3.435  0.00  0.00    +0.000 A 
ATOM     48  C   UNL     1       4.659  -5.135   2.872  0.00  0.00    +0.000 A 
ATOM     49  H   UNL     1       4.275  -6.193  -0.345  0.00  0.00    +0.000 HD
ATOM     50  H   UNL     1       5.107  -8.281   0.651  0.00  0.00    +0.000 HD
ATOM     51  H   UNL     1       5.376  -6.364   4.491  0.00  0.00    +0.000 HD
ATOM     52  H   UNL     1       4.560  -4.255   3.505  0.00  0.00    +0.000 HD
BRANCH  46  53
ATOM     53  O   UNL     1       5.763  -8.580   3.228  0.00  0.00    +0.000 OA
ATOM     54  H   UNL     1       5.854  -9.269   2.550  0.00  0.00    +0.000 HD
ENDBRANCH  46  53
ENDBRANCH  40  43
ENDBRANCH  37  40
ENDBRANCH  34  37
ENDBRANCH  33  34
ENDBRANCH  31  33
ENDBRANCH   4  31
BRANCH   6  55
ATOM     55  O   UNL     1      -2.082   1.116  -1.516  0.00  0.00    +0.000 OA
ATOM     56  H   UNL     1      -2.193   0.151  -1.560  0.00  0.00    +0.000 HD
ENDBRANCH   6  55
TORSDOF 15
