MODEL 1
REMARK VINA RESULT:    -9.485      0.000      0.000
REMARK INTER + INTRA:         -19.168
REMARK INTER:                 -15.862
REMARK INTRA:                  -3.307
REMARK UNBOUND:                -3.307
REMARK  Name = 
REMARK  14 active torsions:
REMARK  status: ('A' for Active; 'I' for Inactive)
REMARK    1  A    between atoms: C_1  and  O_2
REMARK    2  A    between atoms: O_2  and  C_3
REMARK    3  A    between atoms: C_3  and  C_5
REMARK    4  A    between atoms: C_9  and  O_10
REMARK    5  A    between atoms: C_11  and  C_12
REMARK    6  A    between atoms: C_12  and  C_14
REMARK    7  A    between atoms: C_15  and  O_16
REMARK    8  A    between atoms: C_18  and  C_19
REMARK    9  A    between atoms: C_19  and  O_21
REMARK   10  A    between atoms: O_21  and  C_22
REMARK   11  A    between atoms: C_26  and  C_27
REMARK   12  A    between atoms: C_27  and  C_28
REMARK   13  A    between atoms: C_31  and  O_32
REMARK   14  A    between atoms: C_36  and  O_37
REMARK                            x       y       z     vdW  Elec       q    Type
REMARK                         _______ _______ _______ _____ _____    ______ ____
ROOT
ATOM      1  C   UNL     1      -8.980  -8.038  18.104  0.00  0.00    +0.000 A 
ATOM      2  C   UNL     1      -8.237  -7.008  17.485  0.00  0.00    +0.000 A 
ATOM      3  C   UNL     1      -7.551  -6.038  18.227  0.00  0.00    +0.000 A 
ATOM      4  C   UNL     1      -7.627  -6.043  19.618  0.00  0.00    +0.000 A 
ATOM      5  C   UNL     1      -8.357  -7.052  20.261  0.00  0.00    +0.000 A 
ATOM      6  C   UNL     1      -8.988  -8.057  19.511  0.00  0.00    +0.000 A 
ATOM      7  H   UNL     1      -6.994  -5.261  17.704  0.00  0.00    +0.000 HD
ATOM      8  H   UNL     1      -8.426  -7.048  21.347  0.00  0.00    +0.000 HD
ENDROOT
BRANCH   1   9
ATOM      9  C   UNL     1      -9.775  -8.989  17.241  0.00  0.00    +0.000 C 
ATOM     10  O   UNL     1     -11.000  -9.000  17.372  0.00  0.00    +0.000 OA
BRANCH   9  16
ATOM     11  C   UNL     1      -8.605 -11.227  16.834  0.00  0.00    +0.000 A 
ATOM     12  C   UNL     1      -8.061 -12.158  15.911  0.00  0.00    +0.000 A 
ATOM     13  C   UNL     1      -8.069 -11.914  14.546  0.00  0.00    +0.000 A 
ATOM     14  C   UNL     1      -8.577 -10.717  14.063  0.00  0.00    +0.000 A 
ATOM     15  C   UNL     1      -9.067  -9.767  14.969  0.00  0.00    +0.000 A 
ATOM     16  C   UNL     1      -9.153 -10.022  16.353  0.00  0.00    +0.000 A 
ATOM     17  H   UNL     1      -7.643 -13.103  16.259  0.00  0.00    +0.000 HD
ATOM     18  H   UNL     1      -7.675 -12.660  13.854  0.00  0.00    +0.000 HD
ATOM     19  H   UNL     1      -8.578 -10.523  13.002  0.00  0.00    +0.000 HD
BRANCH  11  20
ATOM     20  C   UNL     1      -8.645 -11.655  18.263  0.00  0.00    +0.000 C 
ATOM     21  O   UNL     1      -8.128 -11.051  19.191  0.00  0.00    +0.000 OA
BRANCH  20  22
ATOM     22  O   UNL     1      -9.454 -12.746  18.378  0.00  0.00    +0.000 OA
BRANCH  22  23
ATOM     23  C   UNL     1      -8.829 -13.948  18.834  0.00  0.00    +0.000 C 
ATOM     24  H   UNL     1      -8.971 -14.011  19.918  0.00  0.00    +0.000 HD
ATOM     25  H   UNL     1      -7.752 -13.945  18.640  0.00  0.00    +0.000 HD
ATOM     26  H   UNL     1      -9.310 -14.810  18.368  0.00  0.00    +0.000 HD
ENDBRANCH  22  23
ENDBRANCH  20  22
ENDBRANCH  11  20
BRANCH  15  27
ATOM     27  O   UNL     1      -9.470  -8.568  14.445  0.00  0.00    +0.000 OA
ATOM     28  H   UNL     1      -9.043  -8.472  13.578  0.00  0.00    +0.000 HD
ENDBRANCH  15  27
ENDBRANCH   9  16
ENDBRANCH   1   9
BRANCH   2  29
ATOM     29  O   UNL     1      -8.168  -6.847  16.122  0.00  0.00    +0.000 OA
ATOM     30  H   UNL     1      -8.231  -5.883  15.933  0.00  0.00    +0.000 HD
ENDBRANCH   2  29
BRANCH   4  31
ATOM     31  C   UNL     1      -7.022  -4.965  20.439  0.00  0.00    +0.000 C 
ATOM     32  O   UNL     1      -5.818  -4.741  20.437  0.00  0.00    +0.000 OA
BRANCH  31  33
ATOM     33  O   UNL     1      -7.962  -4.287  21.144  0.00  0.00    +0.000 OA
BRANCH  33  34
ATOM     34  C   UNL     1      -8.025  -2.883  20.885  0.00  0.00    +0.000 C 
ATOM     35  C   UNL     1      -8.623  -2.114  22.051  0.00  0.00    +0.000 C 
ATOM     36  N   UNL     1      -9.005  -0.806  21.506  0.00  0.00    +0.000 NA
ATOM     37  C   UNL     1      -9.233  -0.996  20.063  0.00  0.00    +0.000 C 
ATOM     38  C   UNL     1      -8.942  -2.468  19.722  0.00  0.00    +0.000 C 
ATOM     39  H   UNL     1      -7.018  -2.496  20.659  0.00  0.00    +0.000 HD
ATOM     40  H   UNL     1      -7.918  -2.007  22.888  0.00  0.00    +0.000 HD
ATOM     41  H   UNL     1      -9.505  -2.625  22.452  0.00  0.00    +0.000 HD
ATOM     42  H   UNL     1      -8.222  -0.161  21.626  0.00  0.00    +0.000 HD
ATOM     43  H   UNL     1      -8.557  -0.340  19.502  0.00  0.00    +0.000 HD
ATOM     44  H   UNL     1     -10.255  -0.699  19.808  0.00  0.00    +0.000 HD
ATOM     45  H   UNL     1      -8.381  -2.519  18.781  0.00  0.00    +0.000 HD
BRANCH  38  46
ATOM     46  C   UNL     1     -10.277  -3.222  19.551  0.00  0.00    +0.000 C 
ATOM     47  H   UNL     1     -11.096  -2.539  19.821  0.00  0.00    +0.000 HD
ATOM     48  H   UNL     1     -10.316  -4.045  20.276  0.00  0.00    +0.000 HD
BRANCH  46  49
ATOM     49  C   UNL     1     -10.612  -3.760  18.180  0.00  0.00    +0.000 A 
ATOM     50  C   UNL     1     -10.363  -2.953  17.057  0.00  0.00    +0.000 A 
ATOM     51  C   UNL     1     -10.732  -3.377  15.781  0.00  0.00    +0.000 A 
ATOM     52  C   UNL     1     -11.333  -4.618  15.629  0.00  0.00    +0.000 A 
ATOM     53  C   UNL     1     -11.496  -5.474  16.708  0.00  0.00    +0.000 A 
ATOM     54  C   UNL     1     -11.128  -5.048  17.984  0.00  0.00    +0.000 A 
ATOM     55  H   UNL     1      -9.898  -1.976  17.175  0.00  0.00    +0.000 HD
ATOM     56  H   UNL     1     -10.552  -2.736  14.922  0.00  0.00    +0.000 HD
ATOM     57  H   UNL     1     -11.937  -6.454  16.562  0.00  0.00    +0.000 HD
ATOM     58  H   UNL     1     -11.279  -5.728  18.817  0.00  0.00    +0.000 HD
BRANCH  52  59
ATOM     59  O   UNL     1     -11.816  -5.010  14.418  0.00  0.00    +0.000 OA
ATOM     60  H   UNL     1     -12.607  -4.462  14.260  0.00  0.00    +0.000 HD
ENDBRANCH  52  59
ENDBRANCH  46  49
ENDBRANCH  38  46
ENDBRANCH  33  34
ENDBRANCH  31  33
ENDBRANCH   4  31
BRANCH   6  61
ATOM     61  O   UNL     1      -9.637  -9.048  20.200  0.00  0.00    +0.000 OA
ATOM     62  H   UNL     1      -9.723  -9.830  19.629  0.00  0.00    +0.000 HD
ENDBRANCH   6  61
TORSDOF 14
ENDMDL
MODEL 2
REMARK VINA RESULT:    -9.242      2.870      9.348
REMARK INTER + INTRA:         -18.761
REMARK INTER:                 -17.163
REMARK INTRA:                  -1.598
REMARK UNBOUND:                -3.307
REMARK  Name = 
REMARK  14 active torsions:
REMARK  status: ('A' for Active; 'I' for Inactive)
REMARK    1  A    between atoms: C_1  and  O_2
REMARK    2  A    between atoms: O_2  and  C_3
REMARK    3  A    between atoms: C_3  and  C_5
REMARK    4  A    between atoms: C_9  and  O_10
REMARK    5  A    between atoms: C_11  and  C_12
REMARK    6  A    between atoms: C_12  and  C_14
REMARK    7  A    between atoms: C_15  and  O_16
REMARK    8  A    between atoms: C_18  and  C_19
REMARK    9  A    between atoms: C_19  and  O_21
REMARK   10  A    between atoms: O_21  and  C_22
REMARK   11  A    between atoms: C_26  and  C_27
REMARK   12  A    between atoms: C_27  and  C_28
REMARK   13  A    between atoms: C_31  and  O_32
REMARK   14  A    between atoms: C_36  and  O_37
REMARK                            x       y       z     vdW  Elec       q    Type
REMARK                         _______ _______ _______ _____ _____    ______ ____
ROOT
ATOM      1  C   UNL     1      -7.316  -3.296  21.227  0.00  0.00    +0.000 A 
ATOM      2  C   UNL     1      -6.199  -4.100  20.906  0.00  0.00    +0.000 A 
ATOM      3  C   UNL     1      -6.252  -5.081  19.907  0.00  0.00    +0.000 A 
ATOM      4  C   UNL     1      -7.445  -5.318  19.227  0.00  0.00    +0.000 A 
ATOM      5  C   UNL     1      -8.570  -4.537  19.524  0.00  0.00    +0.000 A 
ATOM      6  C   UNL     1      -8.490  -3.514  20.481  0.00  0.00    +0.000 A 
ATOM      7  H   UNL     1      -5.365  -5.677  19.697  0.00  0.00    +0.000 HD
ATOM      8  H   UNL     1      -9.505  -4.732  19.001  0.00  0.00    +0.000 HD
ENDROOT
BRANCH   1   9
ATOM      9  C   UNL     1      -7.216  -2.328  22.382  0.00  0.00    +0.000 C 
ATOM     10  O   UNL     1      -6.219  -1.605  22.443  0.00  0.00    +0.000 OA
BRANCH   9  16
ATOM     11  C   UNL     1      -9.112  -1.273  23.735  0.00  0.00    +0.000 A 
ATOM     12  C   UNL     1      -9.998  -1.351  24.841  0.00  0.00    +0.000 A 
ATOM     13  C   UNL     1      -9.972  -2.425  25.716  0.00  0.00    +0.000 A 
ATOM     14  C   UNL     1      -9.032  -3.432  25.544  0.00  0.00    +0.000 A 
ATOM     15  C   UNL     1      -8.116  -3.338  24.488  0.00  0.00    +0.000 A 
ATOM     16  C   UNL     1      -8.174  -2.304  23.532  0.00  0.00    +0.000 A 
ATOM     17  H   UNL     1     -10.741  -0.571  25.012  0.00  0.00    +0.000 HD
ATOM     18  H   UNL     1     -10.686  -2.479  26.539  0.00  0.00    +0.000 HD
ATOM     19  H   UNL     1      -9.006  -4.265  26.229  0.00  0.00    +0.000 HD
BRANCH  11  20
ATOM     20  C   UNL     1      -9.317  -0.129  22.800  0.00  0.00    +0.000 C 
ATOM     21  O   UNL     1      -9.704  -0.229  21.644  0.00  0.00    +0.000 OA
BRANCH  20  22
ATOM     22  O   UNL     1      -9.130   1.039  23.476  0.00  0.00    +0.000 OA
BRANCH  22  23
ATOM     23  C   UNL     1     -10.120   2.049  23.274  0.00  0.00    +0.000 C 
ATOM     24  H   UNL     1     -11.071   1.673  23.667  0.00  0.00    +0.000 HD
ATOM     25  H   UNL     1     -10.265   2.270  22.211  0.00  0.00    +0.000 HD
ATOM     26  H   UNL     1      -9.845   2.948  23.828  0.00  0.00    +0.000 HD
ENDBRANCH  22  23
ENDBRANCH  20  22
ENDBRANCH  11  20
BRANCH  15  27
ATOM     27  O   UNL     1      -7.153  -4.309  24.421  0.00  0.00    +0.000 OA
ATOM     28  H   UNL     1      -6.291  -3.862  24.407  0.00  0.00    +0.000 HD
ENDBRANCH  15  27
ENDBRANCH   9  16
ENDBRANCH   1   9
BRANCH   2  29
ATOM     29  O   UNL     1      -5.000  -4.020  21.573  0.00  0.00    +0.000 OA
ATOM     30  H   UNL     1      -5.183  -4.167  22.529  0.00  0.00    +0.000 HD
ENDBRANCH   2  29
BRANCH   4  31
ATOM     31  C   UNL     1      -7.583  -6.428  18.251  0.00  0.00    +0.000 C 
ATOM     32  O   UNL     1      -6.836  -6.547  17.289  0.00  0.00    +0.000 OA
BRANCH  31  33
ATOM     33  O   UNL     1      -8.602  -7.261  18.583  0.00  0.00    +0.000 OA
BRANCH  33  34
ATOM     34  C   UNL     1      -9.526  -7.544  17.531  0.00  0.00    +0.000 C 
ATOM     35  C   UNL     1     -10.964  -7.560  18.023  0.00  0.00    +0.000 C 
ATOM     36  N   UNL     1     -11.729  -8.254  16.981  0.00  0.00    +0.000 NA
ATOM     37  C   UNL     1     -10.783  -9.134  16.273  0.00  0.00    +0.000 C 
ATOM     38  C   UNL     1      -9.389  -8.936  16.891  0.00  0.00    +0.000 C 
ATOM     39  H   UNL     1      -9.416  -6.802  16.723  0.00  0.00    +0.000 HD
ATOM     40  H   UNL     1     -11.357  -6.549  18.202  0.00  0.00    +0.000 HD
ATOM     41  H   UNL     1     -11.050  -8.099  18.973  0.00  0.00    +0.000 HD
ATOM     42  H   UNL     1     -12.080  -7.560  16.318  0.00  0.00    +0.000 HD
ATOM     43  H   UNL     1     -10.765  -8.864  15.210  0.00  0.00    +0.000 HD
ATOM     44  H   UNL     1     -11.128 -10.171  16.335  0.00  0.00    +0.000 HD
ATOM     45  H   UNL     1      -8.640  -8.897  16.092  0.00  0.00    +0.000 HD
BRANCH  38  46
ATOM     46  C   UNL     1      -9.071 -10.129  17.817  0.00  0.00    +0.000 C 
ATOM     47  H   UNL     1      -9.907 -10.251  18.521  0.00  0.00    +0.000 HD
ATOM     48  H   UNL     1      -8.194  -9.880  18.428  0.00  0.00    +0.000 HD
BRANCH  46  49
ATOM     49  C   UNL     1      -8.857 -11.480  17.179  0.00  0.00    +0.000 A 
ATOM     50  C   UNL     1      -8.643 -11.546  15.792  0.00  0.00    +0.000 A 
ATOM     51  C   UNL     1      -8.521 -12.778  15.149  0.00  0.00    +0.000 A 
ATOM     52  C   UNL     1      -8.596 -13.942  15.901  0.00  0.00    +0.000 A 
ATOM     53  C   UNL     1      -8.703 -13.899  17.283  0.00  0.00    +0.000 A 
ATOM     54  C   UNL     1      -8.826 -12.666  17.924  0.00  0.00    +0.000 A 
ATOM     55  H   UNL     1      -8.592 -10.635  15.200  0.00  0.00    +0.000 HD
ATOM     56  H   UNL     1      -8.376 -12.818  14.074  0.00  0.00    +0.000 HD
ATOM     57  H   UNL     1      -8.725 -14.820  17.855  0.00  0.00    +0.000 HD
ATOM     58  H   UNL     1      -8.926 -12.656  19.005  0.00  0.00    +0.000 HD
BRANCH  52  59
ATOM     59  O   UNL     1      -8.604 -15.160  15.293  0.00  0.00    +0.000 OA
ATOM     60  H   UNL     1      -8.981 -15.778  15.946  0.00  0.00    +0.000 HD
ENDBRANCH  52  59
ENDBRANCH  46  49
ENDBRANCH  38  46
ENDBRANCH  33  34
ENDBRANCH  31  33
ENDBRANCH   4  31
BRANCH   6  61
ATOM     61  O   UNL     1      -9.608  -2.748  20.685  0.00  0.00    +0.000 OA
ATOM     62  H   UNL     1      -9.846  -2.775  21.627  0.00  0.00    +0.000 HD
ENDBRANCH   6  61
TORSDOF 14
ENDMDL
MODEL 3
REMARK VINA RESULT:    -9.110      2.924      9.121
REMARK INTER + INTRA:         -18.541
REMARK INTER:                 -16.715
REMARK INTRA:                  -1.826
REMARK UNBOUND:                -3.307
REMARK  Name = 
REMARK  14 active torsions:
REMARK  status: ('A' for Active; 'I' for Inactive)
REMARK    1  A    between atoms: C_1  and  O_2
REMARK    2  A    between atoms: O_2  and  C_3
REMARK    3  A    between atoms: C_3  and  C_5
REMARK    4  A    between atoms: C_9  and  O_10
REMARK    5  A    between atoms: C_11  and  C_12
REMARK    6  A    between atoms: C_12  and  C_14
REMARK    7  A    between atoms: C_15  and  O_16
REMARK    8  A    between atoms: C_18  and  C_19
REMARK    9  A    between atoms: C_19  and  O_21
REMARK   10  A    between atoms: O_21  and  C_22
REMARK   11  A    between atoms: C_26  and  C_27
REMARK   12  A    between atoms: C_27  and  C_28
REMARK   13  A    between atoms: C_31  and  O_32
REMARK   14  A    between atoms: C_36  and  O_37
REMARK                            x       y       z     vdW  Elec       q    Type
REMARK                         _______ _______ _______ _____ _____    ______ ____
ROOT
ATOM      1  C   UNL     1      -8.346  -3.148  20.657  0.00  0.00    +0.000 A 
ATOM      2  C   UNL     1      -7.281  -4.049  20.879  0.00  0.00    +0.000 A 
ATOM      3  C   UNL     1      -7.006  -5.105  20.000  0.00  0.00    +0.000 A 
ATOM      4  C   UNL     1      -7.823  -5.318  18.891  0.00  0.00    +0.000 A 
ATOM      5  C   UNL     1      -8.888  -4.441  18.645  0.00  0.00    +0.000 A 
ATOM      6  C   UNL     1      -9.116  -3.348  19.496  0.00  0.00    +0.000 A 
ATOM      7  H   UNL     1      -6.175  -5.775  20.215  0.00  0.00    +0.000 HD
ATOM      8  H   UNL     1      -9.532  -4.616  17.786  0.00  0.00    +0.000 HD
ENDROOT
BRANCH   1   9
ATOM      9  C   UNL     1      -8.644  -2.095  21.698  0.00  0.00    +0.000 C 
ATOM     10  O   UNL     1      -8.009  -1.040  21.649  0.00  0.00    +0.000 OA
BRANCH   9  16
ATOM     11  C   UNL     1     -10.929  -2.026  22.846  0.00  0.00    +0.000 A 
ATOM     12  C   UNL     1     -11.713  -2.296  23.998  0.00  0.00    +0.000 A 
ATOM     13  C   UNL     1     -11.156  -2.852  25.139  0.00  0.00    +0.000 A 
ATOM     14  C   UNL     1      -9.794  -3.114  25.185  0.00  0.00    +0.000 A 
ATOM     15  C   UNL     1      -9.001  -2.801  24.073  0.00  0.00    +0.000 A 
ATOM     16  C   UNL     1      -9.551  -2.317  22.869  0.00  0.00    +0.000 A 
ATOM     17  H   UNL     1     -12.784  -2.092  24.000  0.00  0.00    +0.000 HD
ATOM     18  H   UNL     1     -11.786  -3.082  26.000  0.00  0.00    +0.000 HD
ATOM     19  H   UNL     1      -9.359  -3.540  26.075  0.00  0.00    +0.000 HD
BRANCH  11  20
ATOM     20  C   UNL     1     -11.663  -1.539  21.642  0.00  0.00    +0.000 C 
ATOM     21  O   UNL     1     -12.247  -2.254  20.840  0.00  0.00    +0.000 OA
BRANCH  20  22
ATOM     22  O   UNL     1     -11.687  -0.177  21.656  0.00  0.00    +0.000 OA
BRANCH  22  23
ATOM     23  C   UNL     1     -12.978   0.429  21.745  0.00  0.00    +0.000 C 
ATOM     24  H   UNL     1     -13.431   0.119  22.692  0.00  0.00    +0.000 HD
ATOM     25  H   UNL     1     -13.639   0.099  20.937  0.00  0.00    +0.000 HD
ATOM     26  H   UNL     1     -12.874   1.516  21.748  0.00  0.00    +0.000 HD
ENDBRANCH  22  23
ENDBRANCH  20  22
ENDBRANCH  11  20
BRANCH  15  27
ATOM     27  O   UNL     1      -7.651  -2.992  24.207  0.00  0.00    +0.000 OA
ATOM     28  H   UNL     1      -7.381  -3.632  23.528  0.00  0.00    +0.000 HD
ENDBRANCH  15  27
ENDBRANCH   9  16
ENDBRANCH   1   9
BRANCH   2  29
ATOM     29  O   UNL     1      -6.469  -3.994  21.986  0.00  0.00    +0.000 OA
ATOM     30  H   UNL     1      -5.603  -4.391  21.739  0.00  0.00    +0.000 HD
ENDBRANCH   2  29
BRANCH   4  31
ATOM     31  C   UNL     1      -7.646  -6.495  18.004  0.00  0.00    +0.000 C 
ATOM     32  O   UNL     1      -6.702  -6.594  17.232  0.00  0.00    +0.000 OA
BRANCH  31  33
ATOM     33  O   UNL     1      -8.634  -7.408  18.184  0.00  0.00    +0.000 OA
BRANCH  33  34
ATOM     34  C   UNL     1      -9.389  -7.729  17.014  0.00  0.00    +0.000 C 
ATOM     35  C   UNL     1     -10.885  -7.597  17.246  0.00  0.00    +0.000 C 
ATOM     36  N   UNL     1     -11.521  -8.335  16.149  0.00  0.00    +0.000 NA
ATOM     37  C   UNL     1     -10.548  -9.346  15.696  0.00  0.00    +0.000 C 
ATOM     38  C   UNL     1      -9.266  -9.184  16.530  0.00  0.00    +0.000 C 
ATOM     39  H   UNL     1      -9.082  -7.081  16.178  0.00  0.00    +0.000 HD
ATOM     40  H   UNL     1     -11.215  -6.548  17.266  0.00  0.00    +0.000 HD
ATOM     41  H   UNL     1     -11.176  -8.031  18.209  0.00  0.00    +0.000 HD
ATOM     42  H   UNL     1     -11.695  -7.688  15.379  0.00  0.00    +0.000 HD
ATOM     43  H   UNL     1     -10.329  -9.184  14.634  0.00  0.00    +0.000 HD
ATOM     44  H   UNL     1     -10.987 -10.345  15.786  0.00  0.00    +0.000 HD
ATOM     45  H   UNL     1      -8.392  -9.277  15.874  0.00  0.00    +0.000 HD
BRANCH  38  46
ATOM     46  C   UNL     1      -9.212 -10.298  17.597  0.00  0.00    +0.000 C 
ATOM     47  H   UNL     1     -10.183 -10.329  18.113  0.00  0.00    +0.000 HD
ATOM     48  H   UNL     1      -8.472 -10.024  18.360  0.00  0.00    +0.000 HD
BRANCH  46  49
ATOM     49  C   UNL     1      -8.937 -11.707  17.132  0.00  0.00    +0.000 A 
ATOM     50  C   UNL     1      -8.698 -11.934  15.766  0.00  0.00    +0.000 A 
ATOM     51  C   UNL     1      -8.520 -13.230  15.280  0.00  0.00    +0.000 A 
ATOM     52  C   UNL     1      -8.563 -14.295  16.168  0.00  0.00    +0.000 A 
ATOM     53  C   UNL     1      -8.694 -14.088  17.532  0.00  0.00    +0.000 A 
ATOM     54  C   UNL     1      -8.873 -12.792  18.016  0.00  0.00    +0.000 A 
ATOM     55  H   UNL     1      -8.672 -11.100  15.066  0.00  0.00    +0.000 HD
ATOM     56  H   UNL     1      -8.356 -13.394  14.219  0.00  0.00    +0.000 HD
ATOM     57  H   UNL     1      -8.691 -14.933  18.213  0.00  0.00    +0.000 HD
ATOM     58  H   UNL     1      -8.991 -12.654  19.087  0.00  0.00    +0.000 HD
BRANCH  52  59
ATOM     59  O   UNL     1      -8.516 -15.578  15.713  0.00  0.00    +0.000 OA
ATOM     60  H   UNL     1      -9.363 -15.982  15.976  0.00  0.00    +0.000 HD
ENDBRANCH  52  59
ENDBRANCH  46  49
ENDBRANCH  38  46
ENDBRANCH  33  34
ENDBRANCH  31  33
ENDBRANCH   4  31
BRANCH   6  61
ATOM     61  O   UNL     1     -10.137  -2.494  19.170  0.00  0.00    +0.000 OA
ATOM     62  H   UNL     1     -10.686  -2.901  18.479  0.00  0.00    +0.000 HD
ENDBRANCH   6  61
TORSDOF 14
ENDMDL
MODEL 4
REMARK VINA RESULT:    -8.905      2.855      8.998
REMARK INTER + INTRA:         -18.198
REMARK INTER:                 -17.580
REMARK INTRA:                  -0.618
REMARK UNBOUND:                -3.307
REMARK  Name = 
REMARK  14 active torsions:
REMARK  status: ('A' for Active; 'I' for Inactive)
REMARK    1  A    between atoms: C_1  and  O_2
REMARK    2  A    between atoms: O_2  and  C_3
REMARK    3  A    between atoms: C_3  and  C_5
REMARK    4  A    between atoms: C_9  and  O_10
REMARK    5  A    between atoms: C_11  and  C_12
REMARK    6  A    between atoms: C_12  and  C_14
REMARK    7  A    between atoms: C_15  and  O_16
REMARK    8  A    between atoms: C_18  and  C_19
REMARK    9  A    between atoms: C_19  and  O_21
REMARK   10  A    between atoms: O_21  and  C_22
REMARK   11  A    between atoms: C_26  and  C_27
REMARK   12  A    between atoms: C_27  and  C_28
REMARK   13  A    between atoms: C_31  and  O_32
REMARK   14  A    between atoms: C_36  and  O_37
REMARK                            x       y       z     vdW  Elec       q    Type
REMARK                         _______ _______ _______ _____ _____    ______ ____
ROOT
ATOM      1  C   UNL     1      -8.348  -2.721  21.079  0.00  0.00    +0.000 A 
ATOM      2  C   UNL     1      -9.093  -2.990  19.909  0.00  0.00    +0.000 A 
ATOM      3  C   UNL     1      -8.881  -4.144  19.143  0.00  0.00    +0.000 A 
ATOM      4  C   UNL     1      -7.879  -5.044  19.503  0.00  0.00    +0.000 A 
ATOM      5  C   UNL     1      -7.124  -4.803  20.658  0.00  0.00    +0.000 A 
ATOM      6  C   UNL     1      -7.387  -3.678  21.454  0.00  0.00    +0.000 A 
ATOM      7  H   UNL     1      -9.478  -4.307  18.247  0.00  0.00    +0.000 HD
ATOM      8  H   UNL     1      -6.334  -5.500  20.931  0.00  0.00    +0.000 HD
ENDROOT
BRANCH   1   9
ATOM      9  C   UNL     1      -8.562  -1.410  21.799  0.00  0.00    +0.000 C 
ATOM     10  O   UNL     1      -7.692  -1.036  22.587  0.00  0.00    +0.000 OA
BRANCH   9  16
ATOM     11  C   UNL     1     -10.930  -0.841  22.581  0.00  0.00    +0.000 A 
ATOM     12  C   UNL     1     -12.082  -0.023  22.454  0.00  0.00    +0.000 A 
ATOM     13  C   UNL     1     -12.147   0.997  21.517  0.00  0.00    +0.000 A 
ATOM     14  C   UNL     1     -11.085   1.203  20.648  0.00  0.00    +0.000 A 
ATOM     15  C   UNL     1      -9.964   0.366  20.728  0.00  0.00    +0.000 A 
ATOM     16  C   UNL     1      -9.832  -0.620  21.726  0.00  0.00    +0.000 A 
ATOM     17  H   UNL     1     -12.940  -0.166  23.113  0.00  0.00    +0.000 HD
ATOM     18  H   UNL     1     -13.031   1.634  21.460  0.00  0.00    +0.000 HD
ATOM     19  H   UNL     1     -11.137   1.992  19.913  0.00  0.00    +0.000 HD
BRANCH  11  20
ATOM     20  C   UNL     1     -10.935  -1.824  23.703  0.00  0.00    +0.000 C 
ATOM     21  O   UNL     1     -11.550  -2.880  23.708  0.00  0.00    +0.000 OA
BRANCH  20  22
ATOM     22  O   UNL     1     -10.048  -1.417  24.655  0.00  0.00    +0.000 OA
BRANCH  22  23
ATOM     23  C   UNL     1      -9.359  -2.453  25.357  0.00  0.00    +0.000 C 
ATOM     24  H   UNL     1      -9.722  -2.459  26.390  0.00  0.00    +0.000 HD
ATOM     25  H   UNL     1      -8.279  -2.276  25.386  0.00  0.00    +0.000 HD
ATOM     26  H   UNL     1      -9.586  -3.419  24.902  0.00  0.00    +0.000 HD
ENDBRANCH  22  23
ENDBRANCH  20  22
ENDBRANCH  11  20
BRANCH  15  27
ATOM     27  O   UNL     1      -8.987   0.554  19.787  0.00  0.00    +0.000 OA
ATOM     28  H   UNL     1      -9.299   0.148  18.962  0.00  0.00    +0.000 HD
ENDBRANCH  15  27
ENDBRANCH   9  16
ENDBRANCH   1   9
BRANCH   2  29
ATOM     29  O   UNL     1     -10.039  -2.130  19.406  0.00  0.00    +0.000 OA
ATOM     30  H   UNL     1     -10.159  -2.345  18.453  0.00  0.00    +0.000 HD
ENDBRANCH   2  29
BRANCH   4  31
ATOM     31  C   UNL     1      -7.535  -6.212  18.654  0.00  0.00    +0.000 C 
ATOM     32  O   UNL     1      -6.545  -6.227  17.934  0.00  0.00    +0.000 OA
BRANCH  31  33
ATOM     33  O   UNL     1      -8.431  -7.220  18.806  0.00  0.00    +0.000 OA
BRANCH  33  34
ATOM     34  C   UNL     1      -9.360  -7.377  17.732  0.00  0.00    +0.000 C 
ATOM     35  C   UNL     1     -10.801  -7.301  18.208  0.00  0.00    +0.000 C 
ATOM     36  N   UNL     1     -11.605  -7.880  17.125  0.00  0.00    +0.000 NA
ATOM     37  C   UNL     1     -10.723  -8.800  16.385  0.00  0.00    +0.000 C 
ATOM     38  C   UNL     1      -9.326  -8.744  17.027  0.00  0.00    +0.000 C 
ATOM     39  H   UNL     1      -9.180  -6.609  16.962  0.00  0.00    +0.000 HD
ATOM     40  H   UNL     1     -11.115  -6.272  18.432  0.00  0.00    +0.000 HD
ATOM     41  H   UNL     1     -10.944  -7.876  19.130  0.00  0.00    +0.000 HD
ATOM     42  H   UNL     1     -11.890  -7.130  16.494  0.00  0.00    +0.000 HD
ATOM     43  H   UNL     1     -10.669  -8.481  15.337  0.00  0.00    +0.000 HD
ATOM     44  H   UNL     1     -11.151  -9.807  16.393  0.00  0.00    +0.000 HD
ATOM     45  H   UNL     1      -8.565  -8.728  16.238  0.00  0.00    +0.000 HD
BRANCH  38  46
ATOM     46  C   UNL     1      -9.118 -10.001  17.897  0.00  0.00    +0.000 C 
ATOM     47  H   UNL     1     -10.016 -10.146  18.515  0.00  0.00    +0.000 HD
ATOM     48  H   UNL     1      -8.294  -9.815  18.599  0.00  0.00    +0.000 HD
BRANCH  46  49
ATOM     49  C   UNL     1      -8.874 -11.314  17.193  0.00  0.00    +0.000 A 
ATOM     50  C   UNL     1      -8.677 -11.309  15.802  0.00  0.00    +0.000 A 
ATOM     51  C   UNL     1      -8.530 -12.506  15.100  0.00  0.00    +0.000 A 
ATOM     52  C   UNL     1      -8.562 -13.705  15.797  0.00  0.00    +0.000 A 
ATOM     53  C   UNL     1      -8.652 -13.730  17.180  0.00  0.00    +0.000 A 
ATOM     54  C   UNL     1      -8.800 -12.533  17.880  0.00  0.00    +0.000 A 
ATOM     55  H   UNL     1      -8.660 -10.370  15.253  0.00  0.00    +0.000 HD
ATOM     56  H   UNL     1      -8.398 -12.490  14.022  0.00  0.00    +0.000 HD
ATOM     57  H   UNL     1      -8.641 -14.677  17.709  0.00  0.00    +0.000 HD
ATOM     58  H   UNL     1      -8.886 -12.576  18.962  0.00  0.00    +0.000 HD
BRANCH  52  59
ATOM     59  O   UNL     1      -8.545 -14.893  15.132  0.00  0.00    +0.000 OA
ATOM     60  H   UNL     1      -9.292 -15.407  15.491  0.00  0.00    +0.000 HD
ENDBRANCH  52  59
ENDBRANCH  46  49
ENDBRANCH  38  46
ENDBRANCH  33  34
ENDBRANCH  31  33
ENDBRANCH   4  31
BRANCH   6  61
ATOM     61  O   UNL     1      -6.653  -3.528  22.602  0.00  0.00    +0.000 OA
ATOM     62  H   UNL     1      -6.943  -2.723  23.064  0.00  0.00    +0.000 HD
ENDBRANCH   6  61
TORSDOF 14
ENDMDL
MODEL 5
REMARK VINA RESULT:    -8.796      3.177      9.353
REMARK INTER + INTRA:         -18.016
REMARK INTER:                 -16.771
REMARK INTRA:                  -1.246
REMARK UNBOUND:                -3.307
REMARK  Name = 
REMARK  14 active torsions:
REMARK  status: ('A' for Active; 'I' for Inactive)
REMARK    1  A    between atoms: C_1  and  O_2
REMARK    2  A    between atoms: O_2  and  C_3
REMARK    3  A    between atoms: C_3  and  C_5
REMARK    4  A    between atoms: C_9  and  O_10
REMARK    5  A    between atoms: C_11  and  C_12
REMARK    6  A    between atoms: C_12  and  C_14
REMARK    7  A    between atoms: C_15  and  O_16
REMARK    8  A    between atoms: C_18  and  C_19
REMARK    9  A    between atoms: C_19  and  O_21
REMARK   10  A    between atoms: O_21  and  C_22
REMARK   11  A    between atoms: C_26  and  C_27
REMARK   12  A    between atoms: C_27  and  C_28
REMARK   13  A    between atoms: C_31  and  O_32
REMARK   14  A    between atoms: C_36  and  O_37
REMARK                            x       y       z     vdW  Elec       q    Type
REMARK                         _______ _______ _______ _____ _____    ______ ____
ROOT
ATOM      1  C   UNL     1      -9.508  -2.495  21.707  0.00  0.00    +0.000 A 
ATOM      2  C   UNL     1      -8.768  -3.542  22.302  0.00  0.00    +0.000 A 
ATOM      3  C   UNL     1      -8.062  -4.480  21.538  0.00  0.00    +0.000 A 
ATOM      4  C   UNL     1      -8.114  -4.424  20.146  0.00  0.00    +0.000 A 
ATOM      5  C   UNL     1      -8.839  -3.398  19.527  0.00  0.00    +0.000 A 
ATOM      6  C   UNL     1      -9.491  -2.425  20.301  0.00  0.00    +0.000 A 
ATOM      7  H   UNL     1      -7.508  -5.271  22.042  0.00  0.00    +0.000 HD
ATOM      8  H   UNL     1      -8.889  -3.363  18.441  0.00  0.00    +0.000 HD
ENDROOT
BRANCH   1   9
ATOM      9  C   UNL     1     -10.325  -1.581  22.589  0.00  0.00    +0.000 C 
ATOM     10  O   UNL     1     -11.553  -1.642  22.503  0.00  0.00    +0.000 OA
BRANCH   9  16
ATOM     11  C   UNL     1      -9.466  -0.669  24.819  0.00  0.00    +0.000 A 
ATOM     12  C   UNL     1      -8.878   0.400  25.543  0.00  0.00    +0.000 A 
ATOM     13  C   UNL     1      -8.546   1.596  24.927  0.00  0.00    +0.000 A 
ATOM     14  C   UNL     1      -8.832   1.781  23.581  0.00  0.00    +0.000 A 
ATOM     15  C   UNL     1      -9.463   0.752  22.869  0.00  0.00    +0.000 A 
ATOM     16  C   UNL     1      -9.733  -0.506  23.446  0.00  0.00    +0.000 A 
ATOM     17  H   UNL     1      -8.651   0.292  26.604  0.00  0.00    +0.000 HD
ATOM     18  H   UNL     1      -8.064   2.391  25.497  0.00  0.00    +0.000 HD
ATOM     19  H   UNL     1      -8.580   2.714  23.102  0.00  0.00    +0.000 HD
BRANCH  11  20
ATOM     20  C   UNL     1      -9.667  -1.945  25.566  0.00  0.00    +0.000 C 
ATOM     21  O   UNL     1     -10.679  -2.631  25.525  0.00  0.00    +0.000 OA
BRANCH  20  22
ATOM     22  O   UNL     1      -8.504  -2.284  26.189  0.00  0.00    +0.000 OA
BRANCH  22  23
ATOM     23  C   UNL     1      -8.502  -2.186  27.615  0.00  0.00    +0.000 C 
ATOM     24  H   UNL     1      -9.534  -2.020  27.943  0.00  0.00    +0.000 HD
ATOM     25  H   UNL     1      -7.903  -1.338  27.964  0.00  0.00    +0.000 HD
ATOM     26  H   UNL     1      -8.145  -3.122  28.047  0.00  0.00    +0.000 HD
ENDBRANCH  22  23
ENDBRANCH  20  22
ENDBRANCH  11  20
BRANCH  15  27
ATOM     27  O   UNL     1      -9.805   1.023  21.571  0.00  0.00    +0.000 OA
ATOM     28  H   UNL     1      -9.151   0.585  21.002  0.00  0.00    +0.000 HD
ENDBRANCH  15  27
ENDBRANCH   9  16
ENDBRANCH   1   9
BRANCH   2  29
ATOM     29  O   UNL     1      -8.723  -3.752  23.659  0.00  0.00    +0.000 OA
ATOM     30  H   UNL     1      -9.615  -4.056  23.942  0.00  0.00    +0.000 HD
ENDBRANCH   2  29
BRANCH   4  31
ATOM     31  C   UNL     1      -7.485  -5.468  19.297  0.00  0.00    +0.000 C 
ATOM     32  O   UNL     1      -6.379  -5.321  18.794  0.00  0.00    +0.000 OA
BRANCH  31  33
ATOM     33  O   UNL     1      -8.278  -6.564  19.185  0.00  0.00    +0.000 OA
BRANCH  33  34
ATOM     34  C   UNL     1      -9.164  -6.564  18.064  0.00  0.00    +0.000 C 
ATOM     35  C   UNL     1     -10.610  -6.351  18.479  0.00  0.00    +0.000 C 
ATOM     36  N   UNL     1     -11.417  -6.783  17.331  0.00  0.00    +0.000 NA
ATOM     37  C   UNL     1     -10.604  -7.758  16.583  0.00  0.00    +0.000 C 
ATOM     38  C   UNL     1      -9.244  -7.890  17.288  0.00  0.00    +0.000 C 
ATOM     39  H   UNL     1      -8.862  -5.784  17.345  0.00  0.00    +0.000 HD
ATOM     40  H   UNL     1     -10.820  -5.305  18.743  0.00  0.00    +0.000 HD
ATOM     41  H   UNL     1     -10.861  -6.950  19.361  0.00  0.00    +0.000 HD
ATOM     42  H   UNL     1     -11.586  -5.976  16.729  0.00  0.00    +0.000 HD
ATOM     43  H   UNL     1     -10.463  -7.397  15.557  0.00  0.00    +0.000 HD
ATOM     44  H   UNL     1     -11.139  -8.711  16.517  0.00  0.00    +0.000 HD
ATOM     45  H   UNL     1      -8.446  -7.920  16.536  0.00  0.00    +0.000 HD
BRANCH  38  46
ATOM     46  C   UNL     1      -9.218  -9.203  18.098  0.00  0.00    +0.000 C 
ATOM     47  H   UNL     1     -10.206  -9.344  18.559  0.00  0.00    +0.000 HD
ATOM     48  H   UNL     1      -8.508  -9.094  18.929  0.00  0.00    +0.000 HD
BRANCH  46  49
ATOM     49  C   UNL     1      -8.912 -10.482  17.357  0.00  0.00    +0.000 A 
ATOM     50  C   UNL     1      -8.844 -10.452  15.954  0.00  0.00    +0.000 A 
ATOM     51  C   UNL     1      -8.645 -11.625  15.226  0.00  0.00    +0.000 A 
ATOM     52  C   UNL     1      -8.495 -12.825  15.906  0.00  0.00    +0.000 A 
ATOM     53  C   UNL     1      -8.455 -12.864  17.292  0.00  0.00    +0.000 A 
ATOM     54  C   UNL     1      -8.656 -11.691  18.019  0.00  0.00    +0.000 A 
ATOM     55  H   UNL     1      -8.969  -9.513  15.418  0.00  0.00    +0.000 HD
ATOM     56  H   UNL     1      -8.614 -11.592  14.141  0.00  0.00    +0.000 HD
ATOM     57  H   UNL     1      -8.303 -13.809  17.804  0.00  0.00    +0.000 HD
ATOM     58  H   UNL     1      -8.638 -11.748  19.103  0.00  0.00    +0.000 HD
BRANCH  52  59
ATOM     59  O   UNL     1      -8.422 -14.002  15.227  0.00  0.00    +0.000 OA
ATOM     60  H   UNL     1      -7.473 -14.147  15.053  0.00  0.00    +0.000 HD
ENDBRANCH  52  59
ENDBRANCH  46  49
ENDBRANCH  38  46
ENDBRANCH  33  34
ENDBRANCH  31  33
ENDBRANCH   4  31
BRANCH   6  61
ATOM     61  O   UNL     1     -10.135  -1.414  19.637  0.00  0.00    +0.000 OA
ATOM     62  H   UNL     1     -11.055  -1.365  19.946  0.00  0.00    +0.000 HD
ENDBRANCH   6  61
TORSDOF 14
ENDMDL
MODEL 6
REMARK VINA RESULT:    -8.766      3.228      9.728
REMARK INTER + INTRA:         -17.965
REMARK INTER:                 -16.216
REMARK INTRA:                  -1.749
REMARK UNBOUND:                -3.307
REMARK  Name = 
REMARK  14 active torsions:
REMARK  status: ('A' for Active; 'I' for Inactive)
REMARK    1  A    between atoms: C_1  and  O_2
REMARK    2  A    between atoms: O_2  and  C_3
REMARK    3  A    between atoms: C_3  and  C_5
REMARK    4  A    between atoms: C_9  and  O_10
REMARK    5  A    between atoms: C_11  and  C_12
REMARK    6  A    between atoms: C_12  and  C_14
REMARK    7  A    between atoms: C_15  and  O_16
REMARK    8  A    between atoms: C_18  and  C_19
REMARK    9  A    between atoms: C_19  and  O_21
REMARK   10  A    between atoms: O_21  and  C_22
REMARK   11  A    between atoms: C_26  and  C_27
REMARK   12  A    between atoms: C_27  and  C_28
REMARK   13  A    between atoms: C_31  and  O_32
REMARK   14  A    between atoms: C_36  and  O_37
REMARK                            x       y       z     vdW  Elec       q    Type
REMARK                         _______ _______ _______ _____ _____    ______ ____
ROOT
ATOM      1  C   UNL     1      -9.483  -2.494  22.168  0.00  0.00    +0.000 A 
ATOM      2  C   UNL     1      -8.428  -3.322  22.614  0.00  0.00    +0.000 A 
ATOM      3  C   UNL     1      -7.728  -4.167  21.743  0.00  0.00    +0.000 A 
ATOM      4  C   UNL     1      -8.097  -4.243  20.401  0.00  0.00    +0.000 A 
ATOM      5  C   UNL     1      -9.139  -3.433  19.930  0.00  0.00    +0.000 A 
ATOM      6  C   UNL     1      -9.792  -2.543  20.796  0.00  0.00    +0.000 A 
ATOM      7  H   UNL     1      -6.925  -4.790  22.135  0.00  0.00    +0.000 HD
ATOM      8  H   UNL     1      -9.434  -3.502  18.885  0.00  0.00    +0.000 HD
ENDROOT
BRANCH   1   9
ATOM      9  C   UNL     1     -10.257  -1.684  23.181  0.00  0.00    +0.000 C 
ATOM     10  O   UNL     1     -11.385  -2.072  23.491  0.00  0.00    +0.000 OA
BRANCH   9  16
ATOM     11  C   UNL     1      -9.948   0.849  23.007  0.00  0.00    +0.000 A 
ATOM     12  C   UNL     1      -9.506   2.058  23.604  0.00  0.00    +0.000 A 
ATOM     13  C   UNL     1      -8.944   2.078  24.871  0.00  0.00    +0.000 A 
ATOM     14  C   UNL     1      -8.763   0.888  25.563  0.00  0.00    +0.000 A 
ATOM     15  C   UNL     1      -9.145  -0.317  24.960  0.00  0.00    +0.000 A 
ATOM     16  C   UNL     1      -9.798  -0.361  23.712  0.00  0.00    +0.000 A 
ATOM     17  H   UNL     1      -9.622   3.009  23.083  0.00  0.00    +0.000 HD
ATOM     18  H   UNL     1      -8.642   3.024  25.323  0.00  0.00    +0.000 HD
ATOM     19  H   UNL     1      -8.319   0.901  26.546  0.00  0.00    +0.000 HD
BRANCH  11  20
ATOM     20  C   UNL     1     -10.643   0.974  21.693  0.00  0.00    +0.000 C 
ATOM     21  O   UNL     1     -10.084   1.113  20.614  0.00  0.00    +0.000 OA
BRANCH  20  22
ATOM     22  O   UNL     1     -11.979   0.778  21.875  0.00  0.00    +0.000 OA
BRANCH  22  23
ATOM     23  C   UNL     1     -12.840   1.358  20.894  0.00  0.00    +0.000 C 
ATOM     24  H   UNL     1     -13.715   1.764  21.413  0.00  0.00    +0.000 HD
ATOM     25  H   UNL     1     -13.197   0.614  20.174  0.00  0.00    +0.000 HD
ATOM     26  H   UNL     1     -12.323   2.177  20.390  0.00  0.00    +0.000 HD
ENDBRANCH  22  23
ENDBRANCH  20  22
ENDBRANCH  11  20
BRANCH  15  27
ATOM     27  O   UNL     1      -8.858  -1.467  25.648  0.00  0.00    +0.000 OA
ATOM     28  H   UNL     1      -9.699  -1.825  25.976  0.00  0.00    +0.000 HD
ENDBRANCH  15  27
ENDBRANCH   9  16
ENDBRANCH   1   9
BRANCH   2  29
ATOM     29  O   UNL     1      -8.041  -3.402  23.930  0.00  0.00    +0.000 OA
ATOM     30  H   UNL     1      -7.133  -3.782  23.950  0.00  0.00    +0.000 HD
ENDBRANCH   2  29
BRANCH   4  31
ATOM     31  C   UNL     1      -7.469  -5.213  19.470  0.00  0.00    +0.000 C 
ATOM     32  O   UNL     1      -6.285  -5.152  19.164  0.00  0.00    +0.000 OA
BRANCH  31  33
ATOM     33  O   UNL     1      -8.359  -6.145  19.046  0.00  0.00    +0.000 OA
BRANCH  33  34
ATOM     34  C   UNL     1      -8.522  -6.234  17.629  0.00  0.00    +0.000 C 
ATOM     35  C   UNL     1      -9.877  -5.718  17.177  0.00  0.00    +0.000 C 
ATOM     36  N   UNL     1     -10.065  -6.242  15.819  0.00  0.00    +0.000 NA
ATOM     37  C   UNL     1      -9.247  -7.463  15.717  0.00  0.00    +0.000 C 
ATOM     38  C   UNL     1      -8.512  -7.660  17.053  0.00  0.00    +0.000 C 
ATOM     39  H   UNL     1      -7.720  -5.673  17.122  0.00  0.00    +0.000 HD
ATOM     40  H   UNL     1      -9.934  -4.620  17.193  0.00  0.00    +0.000 HD
ATOM     41  H   UNL     1     -10.677  -6.080  17.832  0.00  0.00    +0.000 HD
ATOM     42  H   UNL     1      -9.705  -5.556  15.153  0.00  0.00    +0.000 HD
ATOM     43  H   UNL     1      -8.522  -7.343  14.903  0.00  0.00    +0.000 HD
ATOM     44  H   UNL     1      -9.885  -8.313  15.457  0.00  0.00    +0.000 HD
ATOM     45  H   UNL     1      -7.477  -7.967  16.857  0.00  0.00    +0.000 HD
BRANCH  38  46
ATOM     46  C   UNL     1      -9.218  -8.770  17.861  0.00  0.00    +0.000 C 
ATOM     47  H   UNL     1     -10.304  -8.635  17.756  0.00  0.00    +0.000 HD
ATOM     48  H   UNL     1      -8.996  -8.630  18.926  0.00  0.00    +0.000 HD
BRANCH  46  49
ATOM     49  C   UNL     1      -8.933 -10.204  17.486  0.00  0.00    +0.000 A 
ATOM     50  C   UNL     1      -9.047 -10.587  16.138  0.00  0.00    +0.000 A 
ATOM     51  C   UNL     1      -8.873 -11.918  15.759  0.00  0.00    +0.000 A 
ATOM     52  C   UNL     1      -8.566 -12.861  16.729  0.00  0.00    +0.000 A 
ATOM     53  C   UNL     1      -8.347 -12.491  18.047  0.00  0.00    +0.000 A 
ATOM     54  C   UNL     1      -8.523 -11.160  18.425  0.00  0.00    +0.000 A 
ATOM     55  H   UNL     1      -9.296  -9.849  15.377  0.00  0.00    +0.000 HD
ATOM     56  H   UNL     1      -8.983 -12.204  14.717  0.00  0.00    +0.000 HD
ATOM     57  H   UNL     1      -8.075 -13.240  18.783  0.00  0.00    +0.000 HD
ATOM     58  H   UNL     1      -8.364 -10.895  19.465  0.00  0.00    +0.000 HD
BRANCH  52  59
ATOM     59  O   UNL     1      -8.510 -14.185  16.414  0.00  0.00    +0.000 OA
ATOM     60  H   UNL     1      -7.577 -14.443  16.528  0.00  0.00    +0.000 HD
ENDBRANCH  52  59
ENDBRANCH  46  49
ENDBRANCH  38  46
ENDBRANCH  33  34
ENDBRANCH  31  33
ENDBRANCH   4  31
BRANCH   6  61
ATOM     61  O   UNL     1     -10.764  -1.737  20.263  0.00  0.00    +0.000 OA
ATOM     62  H   UNL     1     -10.350  -0.937  19.898  0.00  0.00    +0.000 HD
ENDBRANCH   6  61
TORSDOF 14
ENDMDL
MODEL 7
REMARK VINA RESULT:    -8.681      2.600      8.360
REMARK INTER + INTRA:         -17.823
REMARK INTER:                 -16.212
REMARK INTRA:                  -1.611
REMARK UNBOUND:                -3.307
REMARK  Name = 
REMARK  14 active torsions:
REMARK  status: ('A' for Active; 'I' for Inactive)
REMARK    1  A    between atoms: C_1  and  O_2
REMARK    2  A    between atoms: O_2  and  C_3
REMARK    3  A    between atoms: C_3  and  C_5
REMARK    4  A    between atoms: C_9  and  O_10
REMARK    5  A    between atoms: C_11  and  C_12
REMARK    6  A    between atoms: C_12  and  C_14
REMARK    7  A    between atoms: C_15  and  O_16
REMARK    8  A    between atoms: C_18  and  C_19
REMARK    9  A    between atoms: C_19  and  O_21
REMARK   10  A    between atoms: O_21  and  C_22
REMARK   11  A    between atoms: C_26  and  C_27
REMARK   12  A    between atoms: C_27  and  C_28
REMARK   13  A    between atoms: C_31  and  O_32
REMARK   14  A    between atoms: C_36  and  O_37
REMARK                            x       y       z     vdW  Elec       q    Type
REMARK                         _______ _______ _______ _____ _____    ______ ____
ROOT
ATOM      1  C   UNL     1     -10.836  -1.960  19.632  0.00  0.00    +0.000 A 
ATOM      2  C   UNL     1     -10.127  -1.702  18.437  0.00  0.00    +0.000 A 
ATOM      3  C   UNL     1     -10.382  -2.409  17.255  0.00  0.00    +0.000 A 
ATOM      4  C   UNL     1     -11.327  -3.434  17.247  0.00  0.00    +0.000 A 
ATOM      5  C   UNL     1     -12.045  -3.713  18.418  0.00  0.00    +0.000 A 
ATOM      6  C   UNL     1     -11.829  -2.956  19.579  0.00  0.00    +0.000 A 
ATOM      7  H   UNL     1      -9.808  -2.176  16.359  0.00  0.00    +0.000 HD
ATOM      8  H   UNL     1     -12.774  -4.521  18.414  0.00  0.00    +0.000 HD
ENDROOT
BRANCH   1   9
ATOM      9  C   UNL     1     -10.439  -1.227  20.892  0.00  0.00    +0.000 C 
ATOM     10  O   UNL     1     -10.181  -0.025  20.803  0.00  0.00    +0.000 OA
BRANCH   9  16
ATOM     11  C   UNL     1      -9.005  -2.594  22.509  0.00  0.00    +0.000 A 
ATOM     12  C   UNL     1      -8.853  -3.182  23.791  0.00  0.00    +0.000 A 
ATOM     13  C   UNL     1      -9.843  -3.080  24.757  0.00  0.00    +0.000 A 
ATOM     14  C   UNL     1     -11.032  -2.429  24.459  0.00  0.00    +0.000 A 
ATOM     15  C   UNL     1     -11.214  -1.892  23.178  0.00  0.00    +0.000 A 
ATOM     16  C   UNL     1     -10.194  -1.904  22.205  0.00  0.00    +0.000 A 
ATOM     17  H   UNL     1      -7.936  -3.711  24.054  0.00  0.00    +0.000 HD
ATOM     18  H   UNL     1      -9.689  -3.511  25.747  0.00  0.00    +0.000 HD
ATOM     19  H   UNL     1     -11.805  -2.354  25.207  0.00  0.00    +0.000 HD
BRANCH  11  20
ATOM     20  C   UNL     1      -7.824  -2.671  21.600  0.00  0.00    +0.000 C 
ATOM     21  O   UNL     1      -6.753  -2.115  21.794  0.00  0.00    +0.000 OA
BRANCH  20  22
ATOM     22  O   UNL     1      -8.089  -3.557  20.599  0.00  0.00    +0.000 OA
BRANCH  22  23
ATOM     23  C   UNL     1      -7.360  -4.785  20.636  0.00  0.00    +0.000 C 
ATOM     24  H   UNL     1      -8.048  -5.576  20.951  0.00  0.00    +0.000 HD
ATOM     25  H   UNL     1      -6.539  -4.750  21.360  0.00  0.00    +0.000 HD
ATOM     26  H   UNL     1      -6.990  -5.022  19.636  0.00  0.00    +0.000 HD
ENDBRANCH  22  23
ENDBRANCH  20  22
ENDBRANCH  11  20
BRANCH  15  27
ATOM     27  O   UNL     1     -12.440  -1.344  22.909  0.00  0.00    +0.000 OA
ATOM     28  H   UNL     1     -12.828  -1.073  23.758  0.00  0.00    +0.000 HD
ENDBRANCH  15  27
ENDBRANCH   9  16
ENDBRANCH   1   9
BRANCH   2  29
ATOM     29  O   UNL     1      -9.110  -0.782  18.351  0.00  0.00    +0.000 OA
ATOM     30  H   UNL     1      -8.448  -1.132  17.712  0.00  0.00    +0.000 HD
ENDBRANCH   2  29
BRANCH   4  31
ATOM     31  C   UNL     1     -11.541  -4.292  16.055  0.00  0.00    +0.000 C 
ATOM     32  O   UNL     1     -11.797  -3.826  14.953  0.00  0.00    +0.000 OA
BRANCH  31  33
ATOM     33  O   UNL     1     -11.398  -5.608  16.356  0.00  0.00    +0.000 OA
BRANCH  33  34
ATOM     34  C   UNL     1     -10.143  -5.968  16.937  0.00  0.00    +0.000 C 
ATOM     35  C   UNL     1      -9.010  -5.912  15.926  0.00  0.00    +0.000 C 
ATOM     36  N   UNL     1      -7.912  -6.683  16.522  0.00  0.00    +0.000 NA
ATOM     37  C   UNL     1      -8.525  -7.643  17.457  0.00  0.00    +0.000 C 
ATOM     38  C   UNL     1     -10.046  -7.415  17.449  0.00  0.00    +0.000 C 
ATOM     39  H   UNL     1      -9.918  -5.306  17.788  0.00  0.00    +0.000 HD
ATOM     40  H   UNL     1      -8.699  -4.881  15.703  0.00  0.00    +0.000 HD
ATOM     41  H   UNL     1      -9.308  -6.360  14.972  0.00  0.00    +0.000 HD
ATOM     42  H   UNL     1      -7.320  -6.046  17.057  0.00  0.00    +0.000 HD
ATOM     43  H   UNL     1      -8.125  -7.471  18.464  0.00  0.00    +0.000 HD
ATOM     44  H   UNL     1      -8.249  -8.663  17.171  0.00  0.00    +0.000 HD
ATOM     45  H   UNL     1     -10.426  -7.464  18.476  0.00  0.00    +0.000 HD
BRANCH  38  46
ATOM     46  C   UNL     1     -10.720  -8.524  16.613  0.00  0.00    +0.000 C 
ATOM     47  H   UNL     1     -10.949  -8.114  15.618  0.00  0.00    +0.000 HD
ATOM     48  H   UNL     1     -11.686  -8.775  17.069  0.00  0.00    +0.000 HD
BRANCH  46  49
ATOM     49  C   UNL     1      -9.945  -9.797  16.375  0.00  0.00    +0.000 A 
ATOM     50  C   UNL     1      -9.478 -10.073  15.078  0.00  0.00    +0.000 A 
ATOM     51  C   UNL     1      -8.829 -11.275  14.796  0.00  0.00    +0.000 A 
ATOM     52  C   UNL     1      -8.631 -12.191  15.819  0.00  0.00    +0.000 A 
ATOM     53  C   UNL     1      -8.989 -11.897  17.126  0.00  0.00    +0.000 A 
ATOM     54  C   UNL     1      -9.640 -10.696  17.406  0.00  0.00    +0.000 A 
ATOM     55  H   UNL     1      -9.640  -9.359  14.273  0.00  0.00    +0.000 HD
ATOM     56  H   UNL     1      -8.490 -11.485  13.786  0.00  0.00    +0.000 HD
ATOM     57  H   UNL     1      -8.795 -12.614  17.917  0.00  0.00    +0.000 HD
ATOM     58  H   UNL     1      -9.928 -10.493  18.433  0.00  0.00    +0.000 HD
BRANCH  52  59
ATOM     59  O   UNL     1      -8.112 -13.422  15.556  0.00  0.00    +0.000 OA
ATOM     60  H   UNL     1      -8.876 -14.027  15.518  0.00  0.00    +0.000 HD
ENDBRANCH  52  59
ENDBRANCH  46  49
ENDBRANCH  38  46
ENDBRANCH  33  34
ENDBRANCH  31  33
ENDBRANCH   4  31
BRANCH   6  61
ATOM     61  O   UNL     1     -12.603  -3.239  20.674  0.00  0.00    +0.000 OA
ATOM     62  H   UNL     1     -12.521  -2.517  21.319  0.00  0.00    +0.000 HD
ENDBRANCH   6  61
TORSDOF 14
ENDMDL
MODEL 8
REMARK VINA RESULT:    -8.534      3.154      9.112
REMARK INTER + INTRA:         -17.578
REMARK INTER:                 -16.256
REMARK INTRA:                  -1.321
REMARK UNBOUND:                -3.307
REMARK  Name = 
REMARK  14 active torsions:
REMARK  status: ('A' for Active; 'I' for Inactive)
REMARK    1  A    between atoms: C_1  and  O_2
REMARK    2  A    between atoms: O_2  and  C_3
REMARK    3  A    between atoms: C_3  and  C_5
REMARK    4  A    between atoms: C_9  and  O_10
REMARK    5  A    between atoms: C_11  and  C_12
REMARK    6  A    between atoms: C_12  and  C_14
REMARK    7  A    between atoms: C_15  and  O_16
REMARK    8  A    between atoms: C_18  and  C_19
REMARK    9  A    between atoms: C_19  and  O_21
REMARK   10  A    between atoms: O_21  and  C_22
REMARK   11  A    between atoms: C_26  and  C_27
REMARK   12  A    between atoms: C_27  and  C_28
REMARK   13  A    between atoms: C_31  and  O_32
REMARK   14  A    between atoms: C_36  and  O_37
REMARK                            x       y       z     vdW  Elec       q    Type
REMARK                         _______ _______ _______ _____ _____    ______ ____
ROOT
ATOM      1  C   UNL     1      -9.355  -2.187  19.647  0.00  0.00    +0.000 A 
ATOM      2  C   UNL     1     -10.050  -2.928  18.664  0.00  0.00    +0.000 A 
ATOM      3  C   UNL     1      -9.776  -4.280  18.422  0.00  0.00    +0.000 A 
ATOM      4  C   UNL     1      -8.761  -4.922  19.130  0.00  0.00    +0.000 A 
ATOM      5  C   UNL     1      -8.055  -4.213  20.111  0.00  0.00    +0.000 A 
ATOM      6  C   UNL     1      -8.380  -2.877  20.391  0.00  0.00    +0.000 A 
ATOM      7  H   UNL     1     -10.336  -4.808  17.652  0.00  0.00    +0.000 HD
ATOM      8  H   UNL     1      -7.255  -4.712  20.654  0.00  0.00    +0.000 HD
ENDROOT
BRANCH   1   9
ATOM      9  C   UNL     1      -9.634  -0.709  19.784  0.00  0.00    +0.000 C 
ATOM     10  O   UNL     1      -8.770   0.080  19.397  0.00  0.00    +0.000 OA
BRANCH   9  16
ATOM     11  C   UNL     1     -11.027  -0.284  21.887  0.00  0.00    +0.000 A 
ATOM     12  C   UNL     1     -12.175   0.303  22.480  0.00  0.00    +0.000 A 
ATOM     13  C   UNL     1     -13.096   1.015  21.726  0.00  0.00    +0.000 A 
ATOM     14  C   UNL     1     -12.924   1.126  20.353  0.00  0.00    +0.000 A 
ATOM     15  C   UNL     1     -11.823   0.505  19.750  0.00  0.00    +0.000 A 
ATOM     16  C   UNL     1     -10.826  -0.151  20.499  0.00  0.00    +0.000 A 
ATOM     17  H   UNL     1     -12.346   0.224  23.554  0.00  0.00    +0.000 HD
ATOM     18  H   UNL     1     -13.953   1.486  22.210  0.00  0.00    +0.000 HD
ATOM     19  H   UNL     1     -13.644   1.675  19.765  0.00  0.00    +0.000 HD
BRANCH  11  20
ATOM     20  C   UNL     1     -10.052  -0.922  22.818  0.00  0.00    +0.000 C 
ATOM     21  O   UNL     1      -9.096  -0.356  23.329  0.00  0.00    +0.000 OA
BRANCH  20  22
ATOM     22  O   UNL     1     -10.472  -2.185  23.106  0.00  0.00    +0.000 OA
BRANCH  22  23
ATOM     23  C   UNL     1     -10.630  -2.497  24.492  0.00  0.00    +0.000 C 
ATOM     24  H   UNL     1     -11.590  -3.009  24.614  0.00  0.00    +0.000 HD
ATOM     25  H   UNL     1     -10.654  -1.594  25.111  0.00  0.00    +0.000 HD
ATOM     26  H   UNL     1      -9.832  -3.170  24.809  0.00  0.00    +0.000 HD
ENDBRANCH  22  23
ENDBRANCH  20  22
ENDBRANCH  11  20
BRANCH  15  27
ATOM     27  O   UNL     1     -11.754   0.568  18.384  0.00  0.00    +0.000 OA
ATOM     28  H   UNL     1     -12.512   0.072  18.032  0.00  0.00    +0.000 HD
ENDBRANCH  15  27
ENDBRANCH   9  16
ENDBRANCH   1   9
BRANCH   2  29
ATOM     29  O   UNL     1     -11.003  -2.376  17.842  0.00  0.00    +0.000 OA
ATOM     30  H   UNL     1     -10.748  -1.439  17.681  0.00  0.00    +0.000 HD
ENDBRANCH   2  29
BRANCH   4  31
ATOM     31  C   UNL     1      -8.353  -6.315  18.821  0.00  0.00    +0.000 C 
ATOM     32  O   UNL     1      -7.179  -6.636  18.684  0.00  0.00    +0.000 OA
BRANCH  31  33
ATOM     33  O   UNL     1      -9.425  -7.142  18.736  0.00  0.00    +0.000 OA
BRANCH  33  34
ATOM     34  C   UNL     1      -9.836  -7.474  17.408  0.00  0.00    +0.000 C 
ATOM     35  C   UNL     1     -11.329  -7.748  17.325  0.00  0.00    +0.000 C 
ATOM     36  N   UNL     1     -11.528  -8.461  16.057  0.00  0.00    +0.000 NA
ATOM     37  C   UNL     1     -10.253  -9.127  15.738  0.00  0.00    +0.000 C 
ATOM     38  C   UNL     1      -9.239  -8.772  16.839  0.00  0.00    +0.000 C 
ATOM     39  H   UNL     1      -9.566  -6.660  16.716  0.00  0.00    +0.000 HD
ATOM     40  H   UNL     1     -11.927  -6.826  17.363  0.00  0.00    +0.000 HD
ATOM     41  H   UNL     1     -11.664  -8.370  18.161  0.00  0.00    +0.000 HD
ATOM     42  H   UNL     1     -11.725  -7.776  15.326  0.00  0.00    +0.000 HD
ATOM     43  H   UNL     1      -9.893  -8.770  14.766  0.00  0.00    +0.000 HD
ATOM     44  H   UNL     1     -10.415 -10.206  15.646  0.00  0.00    +0.000 HD
ATOM     45  H   UNL     1      -8.267  -8.555  16.380  0.00  0.00    +0.000 HD
BRANCH  38  46
ATOM     46  C   UNL     1      -9.084  -9.975  17.793  0.00  0.00    +0.000 C 
ATOM     47  H   UNL     1     -10.001 -10.059  18.394  0.00  0.00    +0.000 HD
ATOM     48  H   UNL     1      -8.274  -9.764  18.502  0.00  0.00    +0.000 HD
BRANCH  46  49
ATOM     49  C   UNL     1      -8.857 -11.336  17.180  0.00  0.00    +0.000 A 
ATOM     50  C   UNL     1      -8.631 -11.426  15.797  0.00  0.00    +0.000 A 
ATOM     51  C   UNL     1      -8.497 -12.669  15.177  0.00  0.00    +0.000 A 
ATOM     52  C   UNL     1      -8.572 -13.819  15.948  0.00  0.00    +0.000 A 
ATOM     53  C   UNL     1      -8.691 -13.752  17.328  0.00  0.00    +0.000 A 
ATOM     54  C   UNL     1      -8.826 -12.510  17.946  0.00  0.00    +0.000 A 
ATOM     55  H   UNL     1      -8.580 -10.525  15.188  0.00  0.00    +0.000 HD
ATOM     56  H   UNL     1      -8.342 -12.726  14.103  0.00  0.00    +0.000 HD
ATOM     57  H   UNL     1      -8.713 -14.664  17.916  0.00  0.00    +0.000 HD
ATOM     58  H   UNL     1      -8.935 -12.481  19.026  0.00  0.00    +0.000 HD
BRANCH  52  59
ATOM     59  O   UNL     1      -8.568 -15.048  15.361  0.00  0.00    +0.000 OA
ATOM     60  H   UNL     1      -7.637 -15.229  15.135  0.00  0.00    +0.000 HD
ENDBRANCH  52  59
ENDBRANCH  46  49
ENDBRANCH  38  46
ENDBRANCH  33  34
ENDBRANCH  31  33
ENDBRANCH   4  31
BRANCH   6  61
ATOM     61  O   UNL     1      -7.692  -2.256  21.401  0.00  0.00    +0.000 OA
ATOM     62  H   UNL     1      -6.812  -2.659  21.482  0.00  0.00    +0.000 HD
ENDBRANCH   6  61
TORSDOF 14
ENDMDL
MODEL 9
REMARK VINA RESULT:    -8.387      3.746      9.454
REMARK INTER + INTRA:         -17.331
REMARK INTER:                 -14.267
REMARK INTRA:                  -3.065
REMARK UNBOUND:                -3.307
REMARK  Name = 
REMARK  14 active torsions:
REMARK  status: ('A' for Active; 'I' for Inactive)
REMARK    1  A    between atoms: C_1  and  O_2
REMARK    2  A    between atoms: O_2  and  C_3
REMARK    3  A    between atoms: C_3  and  C_5
REMARK    4  A    between atoms: C_9  and  O_10
REMARK    5  A    between atoms: C_11  and  C_12
REMARK    6  A    between atoms: C_12  and  C_14
REMARK    7  A    between atoms: C_15  and  O_16
REMARK    8  A    between atoms: C_18  and  C_19
REMARK    9  A    between atoms: C_19  and  O_21
REMARK   10  A    between atoms: O_21  and  C_22
REMARK   11  A    between atoms: C_26  and  C_27
REMARK   12  A    between atoms: C_27  and  C_28
REMARK   13  A    between atoms: C_31  and  O_32
REMARK   14  A    between atoms: C_36  and  O_37
REMARK                            x       y       z     vdW  Elec       q    Type
REMARK                         _______ _______ _______ _____ _____    ______ ____
ROOT
ATOM      1  C   UNL     1     -10.920  -0.869  20.867  0.00  0.00    +0.000 A 
ATOM      2  C   UNL     1     -11.557  -2.125  20.750  0.00  0.00    +0.000 A 
ATOM      3  C   UNL     1     -11.346  -2.965  19.648  0.00  0.00    +0.000 A 
ATOM      4  C   UNL     1     -10.523  -2.549  18.604  0.00  0.00    +0.000 A 
ATOM      5  C   UNL     1      -9.877  -1.308  18.692  0.00  0.00    +0.000 A 
ATOM      6  C   UNL     1     -10.044  -0.502  19.828  0.00  0.00    +0.000 A 
ATOM      7  H   UNL     1     -11.862  -3.923  19.601  0.00  0.00    +0.000 HD
ATOM      8  H   UNL     1      -9.244  -0.980  17.870  0.00  0.00    +0.000 HD
ENDROOT
BRANCH   1   9
ATOM      9  C   UNL     1     -11.271   0.025  22.033  0.00  0.00    +0.000 C 
ATOM     10  O   UNL     1     -12.374   0.576  22.025  0.00  0.00    +0.000 OA
BRANCH   9  16
ATOM     11  C   UNL     1      -9.793  -0.523  24.046  0.00  0.00    +0.000 A 
ATOM     12  C   UNL     1      -8.859  -0.080  25.019  0.00  0.00    +0.000 A 
ATOM     13  C   UNL     1      -8.430   1.238  25.063  0.00  0.00    +0.000 A 
ATOM     14  C   UNL     1      -8.951   2.163  24.169  0.00  0.00    +0.000 A 
ATOM     15  C   UNL     1      -9.914   1.748  23.240  0.00  0.00    +0.000 A 
ATOM     16  C   UNL     1     -10.305   0.399  23.113  0.00  0.00    +0.000 A 
ATOM     17  H   UNL     1      -8.439  -0.778  25.743  0.00  0.00    +0.000 HD
ATOM     18  H   UNL     1      -7.687   1.547  25.798  0.00  0.00    +0.000 HD
ATOM     19  H   UNL     1      -8.623   3.190  24.207  0.00  0.00    +0.000 HD
BRANCH  11  20
ATOM     20  C   UNL     1     -10.085  -1.986  24.026  0.00  0.00    +0.000 C 
ATOM     21  O   UNL     1     -11.137  -2.496  24.383  0.00  0.00    +0.000 OA
BRANCH  20  22
ATOM     22  O   UNL     1      -9.049  -2.639  23.429  0.00  0.00    +0.000 OA
BRANCH  22  23
ATOM     23  C   UNL     1      -8.395  -3.636  24.217  0.00  0.00    +0.000 C 
ATOM     24  H   UNL     1      -8.151  -4.478  23.561  0.00  0.00    +0.000 HD
ATOM     25  H   UNL     1      -9.043  -4.014  25.015  0.00  0.00    +0.000 HD
ATOM     26  H   UNL     1      -7.467  -3.231  24.624  0.00  0.00    +0.000 HD
ENDBRANCH  22  23
ENDBRANCH  20  22
ENDBRANCH  11  20
BRANCH  15  27
ATOM     27  O   UNL     1     -10.462   2.720  22.446  0.00  0.00    +0.000 OA
ATOM     28  H   UNL     1     -10.272   2.481  21.524  0.00  0.00    +0.000 HD
ENDBRANCH  15  27
ENDBRANCH   9  16
ENDBRANCH   1   9
BRANCH   2  29
ATOM     29  O   UNL     1     -12.462  -2.597  21.670  0.00  0.00    +0.000 OA
ATOM     30  H   UNL     1     -12.136  -3.472  21.983  0.00  0.00    +0.000 HD
ENDBRANCH   2  29
BRANCH   4  31
ATOM     31  C   UNL     1     -10.369  -3.349  17.363  0.00  0.00    +0.000 C 
ATOM     32  O   UNL     1     -10.082  -2.837  16.288  0.00  0.00    +0.000 OA
BRANCH  31  33
ATOM     33  O   UNL     1     -10.566  -4.671  17.594  0.00  0.00    +0.000 OA
BRANCH  33  34
ATOM     34  C   UNL     1      -9.969  -5.553  16.641  0.00  0.00    +0.000 C 
ATOM     35  C   UNL     1     -10.785  -6.821  16.448  0.00  0.00    +0.000 C 
ATOM     36  N   UNL     1      -9.879  -7.776  15.800  0.00  0.00    +0.000 NA
ATOM     37  C   UNL     1      -8.508  -7.378  16.163  0.00  0.00    +0.000 C 
ATOM     38  C   UNL     1      -8.592  -6.114  17.035  0.00  0.00    +0.000 C 
ATOM     39  H   UNL     1      -9.846  -5.037  15.675  0.00  0.00    +0.000 HD
ATOM     40  H   UNL     1     -11.686  -6.650  15.842  0.00  0.00    +0.000 HD
ATOM     41  H   UNL     1     -11.127  -7.221  17.408  0.00  0.00    +0.000 HD
ATOM     42  H   UNL     1      -9.982  -7.688  14.787  0.00  0.00    +0.000 HD
ATOM     43  H   UNL     1      -7.939  -7.168  15.249  0.00  0.00    +0.000 HD
ATOM     44  H   UNL     1      -8.006  -8.208  16.671  0.00  0.00    +0.000 HD
ATOM     45  H   UNL     1      -7.810  -5.408  16.727  0.00  0.00    +0.000 HD
BRANCH  38  46
ATOM     46  C   UNL     1      -8.365  -6.500  18.512  0.00  0.00    +0.000 C 
ATOM     47  H   UNL     1      -8.115  -7.570  18.554  0.00  0.00    +0.000 HD
ATOM     48  H   UNL     1      -9.310  -6.387  19.058  0.00  0.00    +0.000 HD
BRANCH  46  49
ATOM     49  C   UNL     1      -7.273  -5.782  19.268  0.00  0.00    +0.000 A 
ATOM     50  C   UNL     1      -7.632  -4.907  20.306  0.00  0.00    +0.000 A 
ATOM     51  C   UNL     1      -6.662  -4.162  20.977  0.00  0.00    +0.000 A 
ATOM     52  C   UNL     1      -5.330  -4.311  20.619  0.00  0.00    +0.000 A 
ATOM     53  C   UNL     1      -4.941  -5.244  19.669  0.00  0.00    +0.000 A 
ATOM     54  C   UNL     1      -5.913  -5.986  18.999  0.00  0.00    +0.000 A 
ATOM     55  H   UNL     1      -8.677  -4.783  20.584  0.00  0.00    +0.000 HD
ATOM     56  H   UNL     1      -6.954  -3.474  21.765  0.00  0.00    +0.000 HD
ATOM     57  H   UNL     1      -3.891  -5.368  19.428  0.00  0.00    +0.000 HD
ATOM     58  H   UNL     1      -5.588  -6.699  18.247  0.00  0.00    +0.000 HD
BRANCH  52  59
ATOM     59  O   UNL     1      -4.372  -3.513  21.166  0.00  0.00    +0.000 OA
ATOM     60  H   UNL     1      -4.575  -3.474  22.120  0.00  0.00    +0.000 HD
ENDBRANCH  52  59
ENDBRANCH  46  49
ENDBRANCH  38  46
ENDBRANCH  33  34
ENDBRANCH  31  33
ENDBRANCH   4  31
BRANCH   6  61
ATOM     61  O   UNL     1      -9.341   0.673  19.880  0.00  0.00    +0.000 OA
ATOM     62  H   UNL     1      -8.648   0.601  20.558  0.00  0.00    +0.000 HD
ENDBRANCH   6  61
TORSDOF 14
ENDMDL
