REMARK  Name = 
REMARK  5 active torsions:
REMARK  status: ('A' for Active; 'I' for Inactive)
REMARK    1  A    between atoms: C_2  and  C_3
REMARK    2  A    between atoms: C_16  and  O_17
REMARK    3  A    between atoms: C_18  and  O_19
REMARK    4  A    between atoms: C_25  and  O_26
REMARK    5  A    between atoms: C_27  and  O_28
REMARK                            x       y       z     vdW  Elec       q    Type
REMARK                         _______ _______ _______ _____ _____    ______ ____
ROOT
ATOM      1  O   UNL     1       1.427  -2.418   0.995  0.00  0.00    +0.000 OA
ATOM      2  C   UNL     1       0.775  -1.413   0.717  0.00  0.00    +0.000 C 
ATOM      3  N   UNL     1       1.413  -0.404  -0.053  0.00  0.00    +0.000 N 
ATOM      4  C   UNL     1       2.477  -0.633  -0.946  0.00  0.00    +0.000 A 
ATOM      5  C   UNL     1       3.189  -1.818  -1.250  0.00  0.00    +0.000 A 
ATOM      6  C   UNL     1       4.164  -1.760  -2.246  0.00  0.00    +0.000 A 
ATOM      7  C   UNL     1       4.418  -0.581  -2.928  0.00  0.00    +0.000 A 
ATOM      8  C   UNL     1       3.720   0.585  -2.640  0.00  0.00    +0.000 A 
ATOM      9  C   UNL     1       2.722   0.556  -1.636  0.00  0.00    +0.000 A 
ATOM     10  C   UNL     1       1.839   1.549  -1.119  0.00  0.00    +0.000 A 
ATOM     11  C   UNL     1       1.634   2.915  -1.427  0.00  0.00    +0.000 A 
ATOM     12  C   UNL     1       0.680   3.667  -0.732  0.00  0.00    +0.000 A 
ATOM     13  C   UNL     1      -0.019   3.076   0.301  0.00  0.00    +0.000 A 
ATOM     14  C   UNL     1       0.210   1.750   0.661  0.00  0.00    +0.000 A 
ATOM     15  C   UNL     1       1.090   0.955  -0.096  0.00  0.00    +0.000 A 
ATOM     16  H   UNL     1       2.987  -2.746  -0.726  0.00  0.00    +0.000 HD
ATOM     17  H   UNL     1       3.934   1.495  -3.186  0.00  0.00    +0.000 HD
ATOM     18  H   UNL     1       2.222   3.385  -2.211  0.00  0.00    +0.000 HD
ATOM     19  H   UNL     1       0.525   4.707  -0.998  0.00  0.00    +0.000 HD
ENDROOT
BRANCH   2  20
ATOM     20  C   UNL     1      -0.639  -1.384   1.173  0.00  0.00    +0.000 A 
ATOM     21  C   UNL     1      -0.940  -1.889   2.441  0.00  0.00    +0.000 A 
ATOM     22  C   UNL     1      -2.245  -1.809   2.928  0.00  0.00    +0.000 A 
ATOM     23  C   UNL     1      -3.264  -1.229   2.155  0.00  0.00    +0.000 A 
ATOM     24  C   UNL     1      -4.577  -1.134   2.640  0.00  0.00    +0.000 A 
ATOM     25  C   UNL     1      -5.583  -0.555   1.865  0.00  0.00    +0.000 A 
ATOM     26  C   UNL     1      -5.285  -0.044   0.605  0.00  0.00    +0.000 A 
ATOM     27  C   UNL     1      -3.983  -0.123   0.111  0.00  0.00    +0.000 A 
ATOM     28  C   UNL     1      -2.966  -0.732   0.865  0.00  0.00    +0.000 A 
ATOM     29  C   UNL     1      -1.656  -0.844   0.372  0.00  0.00    +0.000 A 
ATOM     30  H   UNL     1      -0.156  -2.315   3.063  0.00  0.00    +0.000 HD
ATOM     31  H   UNL     1      -2.457  -2.188   3.925  0.00  0.00    +0.000 HD
ATOM     32  H   UNL     1      -4.828  -1.520   3.625  0.00  0.00    +0.000 HD
ATOM     33  H   UNL     1      -6.600  -0.506   2.247  0.00  0.00    +0.000 HD
ATOM     34  H   UNL     1      -6.068   0.412   0.005  0.00  0.00    +0.000 HD
ATOM     35  H   UNL     1      -3.768   0.294  -0.871  0.00  0.00    +0.000 HD
ATOM     36  H   UNL     1      -1.420  -0.448  -0.614  0.00  0.00    +0.000 HD
ENDBRANCH   2  20
BRANCH   6  37
ATOM     37  O   UNL     1       4.888  -2.866  -2.597  0.00  0.00    +0.000 OA
ATOM     38  H   UNL     1       4.588  -3.608  -2.037  0.00  0.00    +0.000 HD
ENDBRANCH   6  37
BRANCH   7  39
ATOM     39  O   UNL     1       5.373  -0.554  -3.907  0.00  0.00    +0.000 OA
ATOM     40  H   UNL     1       5.719  -1.469  -3.932  0.00  0.00    +0.000 HD
ENDBRANCH   7  39
BRANCH  13  41
ATOM     41  O   UNL     1      -0.966   3.757   1.023  0.00  0.00    +0.000 OA
ATOM     42  H   UNL     1      -1.009   4.666   0.690  0.00  0.00    +0.000 HD
ENDBRANCH  13  41
BRANCH  14  43
ATOM     43  O   UNL     1      -0.433   1.279   1.780  0.00  0.00    +0.000 OA
ATOM     44  H   UNL     1      -1.132   1.939   1.969  0.00  0.00    +0.000 HD
ENDBRANCH  14  43
TORSDOF 5
