MODEL 1
REMARK VINA RESULT:   -12.033      0.000      0.000
REMARK INTER + INTRA:         -18.723
REMARK INTER:                 -17.660
REMARK INTRA:                  -1.063
REMARK UNBOUND:                -1.063
REMARK  Name = 
REMARK  9 active torsions:
REMARK  status: ('A' for Active; 'I' for Inactive)
REMARK    1  A    between atoms: C_1  and  C_2
REMARK    2  A    between atoms: C_8  and  C_9
REMARK    3  A    between atoms: C_13  and  O_14
REMARK    4  A    between atoms: O_14  and  C_15
REMARK    5  A    between atoms: C_15  and  C_16
REMARK    6  A    between atoms: C_16  and  N_17
REMARK    7  A    between atoms: C_16  and  C_18
REMARK    8  A    between atoms: C_18  and  C_19
REMARK    9  A    between atoms: C_23  and  C_24
REMARK                            x       y       z     vdW  Elec       q    Type
REMARK                         _______ _______ _______ _____ _____    ______ ____
ROOT
ATOM      1  C   UNL     1      -8.023  -7.156  19.239  0.00  0.00    +0.000 A 
ATOM      2  C   UNL     1      -8.463  -8.278  19.945  0.00  0.00    +0.000 A 
ATOM      3  N   UNL     1      -9.142  -9.318  19.407  0.00  0.00    +0.000 NA
ATOM      4  C   UNL     1      -9.410  -9.241  18.085  0.00  0.00    +0.000 A 
ATOM      5  C   UNL     1      -9.034  -8.180  17.272  0.00  0.00    +0.000 A 
ATOM      6  C   UNL     1      -8.331  -7.136  17.867  0.00  0.00    +0.000 A 
ATOM      7  H   UNL     1      -8.283  -8.382  21.012  0.00  0.00    +0.000 HD
ATOM      8  H   UNL     1      -9.956 -10.087  17.675  0.00  0.00    +0.000 HD
ATOM      9  H   UNL     1      -7.996  -6.297  17.267  0.00  0.00    +0.000 HD
ENDROOT
BRANCH   1  16
ATOM     10  C   UNL     1      -7.525  -2.944  22.114  0.00  0.00    +0.000 A 
ATOM     11  N   UNL     1      -6.446  -2.205  22.381  0.00  0.00    +0.000 NA
ATOM     12  N   UNL     1      -5.452  -2.828  21.730  0.00  0.00    +0.000 N 
ATOM     13  C   UNL     1      -5.850  -3.946  21.039  0.00  0.00    +0.000 A 
ATOM     14  C   UNL     1      -5.149  -4.850  20.245  0.00  0.00    +0.000 A 
ATOM     15  C   UNL     1      -5.884  -5.895  19.668  0.00  0.00    +0.000 A 
ATOM     16  C   UNL     1      -7.268  -6.054  19.876  0.00  0.00    +0.000 A 
ATOM     17  C   UNL     1      -7.924  -5.115  20.702  0.00  0.00    +0.000 A 
ATOM     18  C   UNL     1      -7.211  -4.049  21.278  0.00  0.00    +0.000 A 
ATOM     19  H   UNL     1      -4.521  -2.441  21.786  0.00  0.00    +0.000 HD
ATOM     20  H   UNL     1      -4.082  -4.755  20.066  0.00  0.00    +0.000 HD
ATOM     21  H   UNL     1      -5.344  -6.588  19.024  0.00  0.00    +0.000 HD
ATOM     22  H   UNL     1      -8.986  -5.197  20.914  0.00  0.00    +0.000 HD
BRANCH  10  23
ATOM     23  C   UNL     1      -8.852  -2.578  22.662  0.00  0.00    +0.000 C 
ATOM     24  H   UNL     1      -9.593  -2.433  21.868  0.00  0.00    +0.000 HD
ATOM     25  H   UNL     1      -8.785  -1.649  23.237  0.00  0.00    +0.000 HD
ATOM     26  H   UNL     1      -9.219  -3.367  23.327  0.00  0.00    +0.000 HD
ENDBRANCH  10  23
ENDBRANCH   1  16
BRANCH   5  27
ATOM     27  O   UNL     1      -9.384  -8.266  15.958  0.00  0.00    +0.000 OA
BRANCH  27  28
ATOM     28  C   UNL     1     -10.189  -9.387  15.567  0.00  0.00    +0.000 C 
ATOM     29  H   UNL     1     -11.207  -9.052  15.334  0.00  0.00    +0.000 HD
ATOM     30  H   UNL     1     -10.219 -10.127  16.379  0.00  0.00    +0.000 HD
BRANCH  28  31
ATOM     31  C   UNL     1      -9.552 -10.024  14.313  0.00  0.00    +0.000 C 
ATOM     32  H   UNL     1     -10.278 -10.716  13.867  0.00  0.00    +0.000 HD
BRANCH  31  33
ATOM     33  N   UNL     1      -9.301  -8.968  13.310  0.00  0.00    +0.000 NA
ATOM     34  H   UNL     1      -8.326  -8.992  13.015  0.00  0.00    +0.000 HD
ATOM     35  H   UNL     1      -9.415  -8.065  13.779  0.00  0.00    +0.000 HD
ENDBRANCH  31  33
BRANCH  31  36
ATOM     36  C   UNL     1      -8.274 -10.803  14.701  0.00  0.00    +0.000 C 
ATOM     37  H   UNL     1      -7.707 -10.216  15.437  0.00  0.00    +0.000 HD
ATOM     38  H   UNL     1      -7.609 -10.900  13.832  0.00  0.00    +0.000 HD
BRANCH  36  39
ATOM     39  C   UNL     1      -8.529 -12.177  15.282  0.00  0.00    +0.000 A 
ATOM     40  C   UNL     1      -8.664 -13.296  14.451  0.00  0.00    +0.000 A 
ATOM     41  C   UNL     1      -8.864 -14.565  14.997  0.00  0.00    +0.000 A 
ATOM     42  C   UNL     1      -8.894 -14.736  16.381  0.00  0.00    +0.000 A 
ATOM     43  C   UNL     1      -8.732 -13.637  17.234  0.00  0.00    +0.000 A 
ATOM     44  C   UNL     1      -8.587 -12.357  16.672  0.00  0.00    +0.000 A 
ATOM     45  H   UNL     1      -8.604 -13.192  13.370  0.00  0.00    +0.000 HD
ATOM     46  H   UNL     1      -8.971 -15.428  14.344  0.00  0.00    +0.000 HD
ATOM     47  H   UNL     1      -9.018 -15.736  16.792  0.00  0.00    +0.000 HD
ATOM     48  H   UNL     1      -8.473 -11.496  17.331  0.00  0.00    +0.000 HD
BRANCH  43  49
ATOM     49  C   UNL     1      -8.651 -13.818  18.728  0.00  0.00    +0.000 C 
ATOM     50  F   UNL     1      -7.653 -14.659  19.122  0.00  0.00    +0.000 F 
ATOM     51  F   UNL     1      -8.422 -12.645  19.383  0.00  0.00    +0.000 F 
ATOM     52  F   UNL     1      -9.797 -14.325  19.265  0.00  0.00    +0.000 F 
ENDBRANCH  43  49
ENDBRANCH  36  39
ENDBRANCH  31  36
ENDBRANCH  28  31
ENDBRANCH  27  28
ENDBRANCH   5  27
TORSDOF 9
ENDMDL
MODEL 2
REMARK VINA RESULT:   -11.529      5.257     10.685
REMARK INTER + INTRA:         -17.984
REMARK INTER:                 -17.232
REMARK INTRA:                  -0.751
REMARK UNBOUND:                -1.063
REMARK  Name = 
REMARK  9 active torsions:
REMARK  status: ('A' for Active; 'I' for Inactive)
REMARK    1  A    between atoms: C_1  and  C_2
REMARK    2  A    between atoms: C_8  and  C_9
REMARK    3  A    between atoms: C_13  and  O_14
REMARK    4  A    between atoms: O_14  and  C_15
REMARK    5  A    between atoms: C_15  and  C_16
REMARK    6  A    between atoms: C_16  and  N_17
REMARK    7  A    between atoms: C_16  and  C_18
REMARK    8  A    between atoms: C_18  and  C_19
REMARK    9  A    between atoms: C_23  and  C_24
REMARK                            x       y       z     vdW  Elec       q    Type
REMARK                         _______ _______ _______ _____ _____    ______ ____
ROOT
ATOM      1  C   UNL     1      -9.385  -7.902  17.432  0.00  0.00    +0.000 A 
ATOM      2  C   UNL     1     -10.278  -6.923  16.988  0.00  0.00    +0.000 A 
ATOM      3  N   UNL     1     -10.450  -5.709  17.561  0.00  0.00    +0.000 NA
ATOM      4  C   UNL     1      -9.692  -5.447  18.649  0.00  0.00    +0.000 A 
ATOM      5  C   UNL     1      -8.773  -6.333  19.193  0.00  0.00    +0.000 A 
ATOM      6  C   UNL     1      -8.625  -7.567  18.566  0.00  0.00    +0.000 A 
ATOM      7  H   UNL     1     -10.919  -7.090  16.125  0.00  0.00    +0.000 HD
ATOM      8  H   UNL     1      -9.847  -4.466  19.091  0.00  0.00    +0.000 HD
ATOM      9  H   UNL     1      -7.902  -8.282  18.941  0.00  0.00    +0.000 HD
ENDROOT
BRANCH   1  16
ATOM     10  C   UNL     1      -8.656 -12.971  17.266  0.00  0.00    +0.000 A 
ATOM     11  N   UNL     1      -8.541 -13.792  16.220  0.00  0.00    +0.000 NA
ATOM     12  N   UNL     1      -8.683 -12.988  15.155  0.00  0.00    +0.000 N 
ATOM     13  C   UNL     1      -8.880 -11.666  15.474  0.00  0.00    +0.000 A 
ATOM     14  C   UNL     1      -9.059 -10.534  14.683  0.00  0.00    +0.000 A 
ATOM     15  C   UNL     1      -9.224  -9.312  15.350  0.00  0.00    +0.000 A 
ATOM     16  C   UNL     1      -9.227  -9.208  16.755  0.00  0.00    +0.000 A 
ATOM     17  C   UNL     1      -9.056 -10.392  17.505  0.00  0.00    +0.000 A 
ATOM     18  C   UNL     1      -8.871 -11.627  16.858  0.00  0.00    +0.000 A 
ATOM     19  H   UNL     1      -8.631 -13.395  14.232  0.00  0.00    +0.000 HD
ATOM     20  H   UNL     1      -9.062 -10.581  13.598  0.00  0.00    +0.000 HD
ATOM     21  H   UNL     1      -9.337  -8.420  14.735  0.00  0.00    +0.000 HD
ATOM     22  H   UNL     1      -9.068 -10.377  18.590  0.00  0.00    +0.000 HD
BRANCH  10  23
ATOM     23  C   UNL     1      -8.554 -13.486  18.652  0.00  0.00    +0.000 C 
ATOM     24  H   UNL     1      -9.469 -13.296  19.223  0.00  0.00    +0.000 HD
ATOM     25  H   UNL     1      -7.720 -13.010  19.176  0.00  0.00    +0.000 HD
ATOM     26  H   UNL     1      -8.380 -14.568  18.643  0.00  0.00    +0.000 HD
ENDBRANCH  10  23
ENDBRANCH   1  16
BRANCH   5  27
ATOM     27  O   UNL     1      -8.090  -5.904  20.292  0.00  0.00    +0.000 OA
BRANCH  27  28
ATOM     28  C   UNL     1      -7.706  -4.522  20.325  0.00  0.00    +0.000 C 
ATOM     29  H   UNL     1      -8.529  -3.916  20.724  0.00  0.00    +0.000 HD
ATOM     30  H   UNL     1      -7.452  -4.180  19.312  0.00  0.00    +0.000 HD
BRANCH  28  31
ATOM     31  C   UNL     1      -6.470  -4.388  21.240  0.00  0.00    +0.000 C 
ATOM     32  H   UNL     1      -6.575  -5.096  22.072  0.00  0.00    +0.000 HD
BRANCH  31  33
ATOM     33  N   UNL     1      -5.265  -4.793  20.487  0.00  0.00    +0.000 NA
ATOM     34  H   UNL     1      -5.494  -4.912  19.501  0.00  0.00    +0.000 HD
ATOM     35  H   UNL     1      -4.999  -5.727  20.813  0.00  0.00    +0.000 HD
ENDBRANCH  31  33
BRANCH  31  36
ATOM     36  C   UNL     1      -6.375  -2.951  21.802  0.00  0.00    +0.000 C 
ATOM     37  H   UNL     1      -6.558  -2.236  20.988  0.00  0.00    +0.000 HD
ATOM     38  H   UNL     1      -5.353  -2.744  22.147  0.00  0.00    +0.000 HD
BRANCH  36  39
ATOM     39  C   UNL     1      -7.344  -2.651  22.926  0.00  0.00    +0.000 A 
ATOM     40  C   UNL     1      -7.839  -3.675  23.742  0.00  0.00    +0.000 A 
ATOM     41  C   UNL     1      -8.706  -3.385  24.797  0.00  0.00    +0.000 A 
ATOM     42  C   UNL     1      -9.057  -2.063  25.073  0.00  0.00    +0.000 A 
ATOM     43  C   UNL     1      -8.551  -1.018  24.289  0.00  0.00    +0.000 A 
ATOM     44  C   UNL     1      -7.725  -1.328  23.195  0.00  0.00    +0.000 A 
ATOM     45  H   UNL     1      -7.547  -4.709  23.570  0.00  0.00    +0.000 HD
ATOM     46  H   UNL     1      -9.088  -4.187  25.425  0.00  0.00    +0.000 HD
ATOM     47  H   UNL     1      -9.707  -1.850  25.919  0.00  0.00    +0.000 HD
ATOM     48  H   UNL     1      -7.339  -0.520  22.574  0.00  0.00    +0.000 HD
BRANCH  43  49
ATOM     49  C   UNL     1      -8.831   0.421  24.639  0.00  0.00    +0.000 C 
ATOM     50  F   UNL     1      -8.945   0.644  25.979  0.00  0.00    +0.000 F 
ATOM     51  F   UNL     1      -7.849   1.262  24.209  0.00  0.00    +0.000 F 
ATOM     52  F   UNL     1      -9.987   0.887  24.086  0.00  0.00    +0.000 F 
ENDBRANCH  43  49
ENDBRANCH  36  39
ENDBRANCH  31  36
ENDBRANCH  28  31
ENDBRANCH  27  28
ENDBRANCH   5  27
TORSDOF 9
ENDMDL
MODEL 3
REMARK VINA RESULT:   -11.427      2.533      3.720
REMARK INTER + INTRA:         -17.834
REMARK INTER:                 -17.007
REMARK INTRA:                  -0.827
REMARK UNBOUND:                -1.063
REMARK  Name = 
REMARK  9 active torsions:
REMARK  status: ('A' for Active; 'I' for Inactive)
REMARK    1  A    between atoms: C_1  and  C_2
REMARK    2  A    between atoms: C_8  and  C_9
REMARK    3  A    between atoms: C_13  and  O_14
REMARK    4  A    between atoms: O_14  and  C_15
REMARK    5  A    between atoms: C_15  and  C_16
REMARK    6  A    between atoms: C_16  and  N_17
REMARK    7  A    between atoms: C_16  and  C_18
REMARK    8  A    between atoms: C_18  and  C_19
REMARK    9  A    between atoms: C_23  and  C_24
REMARK                            x       y       z     vdW  Elec       q    Type
REMARK                         _______ _______ _______ _____ _____    ______ ____
ROOT
ATOM      1  C   UNL     1      -7.810  -4.133  20.306  0.00  0.00    +0.000 A 
ATOM      2  C   UNL     1      -6.663  -4.923  20.417  0.00  0.00    +0.000 A 
ATOM      3  N   UNL     1      -6.384  -6.003  19.650  0.00  0.00    +0.000 NA
ATOM      4  C   UNL     1      -7.303  -6.327  18.714  0.00  0.00    +0.000 A 
ATOM      5  C   UNL     1      -8.485  -5.630  18.504  0.00  0.00    +0.000 A 
ATOM      6  C   UNL     1      -8.726  -4.523  19.312  0.00  0.00    +0.000 A 
ATOM      7  H   UNL     1      -5.899  -4.711  21.162  0.00  0.00    +0.000 HD
ATOM      8  H   UNL     1      -7.057  -7.197  18.110  0.00  0.00    +0.000 HD
ATOM      9  H   UNL     1      -9.624  -3.933  19.170  0.00  0.00    +0.000 HD
ENDROOT
BRANCH   1  16
ATOM     10  C   UNL     1     -10.455  -0.049  21.910  0.00  0.00    +0.000 A 
ATOM     11  N   UNL     1     -10.165   0.851  22.853  0.00  0.00    +0.000 NA
ATOM     12  N   UNL     1      -8.986   0.441  23.345  0.00  0.00    +0.000 N 
ATOM     13  C   UNL     1      -8.493  -0.693  22.747  0.00  0.00    +0.000 A 
ATOM     14  C   UNL     1      -7.324  -1.422  22.951  0.00  0.00    +0.000 A 
ATOM     15  C   UNL     1      -7.126  -2.547  22.139  0.00  0.00    +0.000 A 
ATOM     16  C   UNL     1      -8.055  -2.952  21.162  0.00  0.00    +0.000 A 
ATOM     17  C   UNL     1      -9.229  -2.183  21.008  0.00  0.00    +0.000 A 
ATOM     18  C   UNL     1      -9.443  -1.041  21.800  0.00  0.00    +0.000 A 
ATOM     19  H   UNL     1      -8.559   0.979  24.085  0.00  0.00    +0.000 HD
ATOM     20  H   UNL     1      -6.589  -1.136  23.697  0.00  0.00    +0.000 HD
ATOM     21  H   UNL     1      -6.199  -3.104  22.278  0.00  0.00    +0.000 HD
ATOM     22  H   UNL     1      -9.991  -2.456  20.285  0.00  0.00    +0.000 HD
BRANCH  10  23
ATOM     23  C   UNL     1     -11.703   0.056  21.117  0.00  0.00    +0.000 C 
ATOM     24  H   UNL     1     -11.539  -0.207  20.067  0.00  0.00    +0.000 HD
ATOM     25  H   UNL     1     -12.094   1.077  21.155  0.00  0.00    +0.000 HD
ATOM     26  H   UNL     1     -12.467  -0.619  21.520  0.00  0.00    +0.000 HD
ENDBRANCH  10  23
ENDBRANCH   1  16
BRANCH   5  27
ATOM     27  O   UNL     1      -9.298  -6.094  17.514  0.00  0.00    +0.000 OA
BRANCH  27  28
ATOM     28  C   UNL     1      -8.782  -7.142  16.681  0.00  0.00    +0.000 C 
ATOM     29  H   UNL     1      -7.896  -7.588  17.150  0.00  0.00    +0.000 HD
ATOM     30  H   UNL     1      -8.516  -6.740  15.694  0.00  0.00    +0.000 HD
BRANCH  28  31
ATOM     31  C   UNL     1      -9.881  -8.215  16.523  0.00  0.00    +0.000 C 
ATOM     32  H   UNL     1     -10.060  -8.677  17.502  0.00  0.00    +0.000 HD
BRANCH  31  33
ATOM     33  N   UNL     1     -11.144  -7.557  16.126  0.00  0.00    +0.000 NA
ATOM     34  H   UNL     1     -11.422  -6.881  16.836  0.00  0.00    +0.000 HD
ATOM     35  H   UNL     1     -11.878  -8.271  16.138  0.00  0.00    +0.000 HD
ENDBRANCH  31  33
BRANCH  31  36
ATOM     36  C   UNL     1      -9.426  -9.301  15.521  0.00  0.00    +0.000 C 
ATOM     37  H   UNL     1      -8.556  -8.930  14.962  0.00  0.00    +0.000 HD
ATOM     38  H   UNL     1     -10.206  -9.472  14.765  0.00  0.00    +0.000 HD
BRANCH  36  39
ATOM     39  C   UNL     1      -9.056 -10.625  16.156  0.00  0.00    +0.000 A 
ATOM     40  C   UNL     1      -8.894 -10.738  17.541  0.00  0.00    +0.000 A 
ATOM     41  C   UNL     1      -8.587 -11.971  18.121  0.00  0.00    +0.000 A 
ATOM     42  C   UNL     1      -8.475 -13.111  17.326  0.00  0.00    +0.000 A 
ATOM     43  C   UNL     1      -8.662 -13.029  15.940  0.00  0.00    +0.000 A 
ATOM     44  C   UNL     1      -8.915 -11.773  15.362  0.00  0.00    +0.000 A 
ATOM     45  H   UNL     1      -9.016  -9.870  18.185  0.00  0.00    +0.000 HD
ATOM     46  H   UNL     1      -8.460 -12.049  19.198  0.00  0.00    +0.000 HD
ATOM     47  H   UNL     1      -8.267 -14.070  17.796  0.00  0.00    +0.000 HD
ATOM     48  H   UNL     1      -9.049 -11.701  14.283  0.00  0.00    +0.000 HD
BRANCH  43  49
ATOM     49  C   UNL     1      -8.654 -14.267  15.079  0.00  0.00    +0.000 C 
ATOM     50  F   UNL     1      -8.071 -15.343  15.680  0.00  0.00    +0.000 F 
ATOM     51  F   UNL     1      -9.910 -14.672  14.738  0.00  0.00    +0.000 F 
ATOM     52  F   UNL     1      -7.987 -14.092  13.903  0.00  0.00    +0.000 F 
ENDBRANCH  43  49
ENDBRANCH  36  39
ENDBRANCH  31  36
ENDBRANCH  28  31
ENDBRANCH  27  28
ENDBRANCH   5  27
TORSDOF 9
ENDMDL
MODEL 4
REMARK VINA RESULT:   -11.384      1.927      3.868
REMARK INTER + INTRA:         -17.771
REMARK INTER:                 -16.924
REMARK INTRA:                  -0.847
REMARK UNBOUND:                -1.063
REMARK  Name = 
REMARK  9 active torsions:
REMARK  status: ('A' for Active; 'I' for Inactive)
REMARK    1  A    between atoms: C_1  and  C_2
REMARK    2  A    between atoms: C_8  and  C_9
REMARK    3  A    between atoms: C_13  and  O_14
REMARK    4  A    between atoms: O_14  and  C_15
REMARK    5  A    between atoms: C_15  and  C_16
REMARK    6  A    between atoms: C_16  and  N_17
REMARK    7  A    between atoms: C_16  and  C_18
REMARK    8  A    between atoms: C_18  and  C_19
REMARK    9  A    between atoms: C_23  and  C_24
REMARK                            x       y       z     vdW  Elec       q    Type
REMARK                         _______ _______ _______ _____ _____    ______ ____
ROOT
ATOM      1  C   UNL     1      -6.924  -4.309  20.907  0.00  0.00    +0.000 A 
ATOM      2  C   UNL     1      -5.531  -4.367  20.994  0.00  0.00    +0.000 A 
ATOM      3  N   UNL     1      -4.726  -5.046  20.143  0.00  0.00    +0.000 NA
ATOM      4  C   UNL     1      -5.340  -5.717  19.144  0.00  0.00    +0.000 A 
ATOM      5  C   UNL     1      -6.714  -5.746  18.950  0.00  0.00    +0.000 A 
ATOM      6  C   UNL     1      -7.501  -5.027  19.845  0.00  0.00    +0.000 A 
ATOM      7  H   UNL     1      -4.991  -3.854  21.786  0.00  0.00    +0.000 HD
ATOM      8  H   UNL     1      -4.673  -6.254  18.473  0.00  0.00    +0.000 HD
ATOM      9  H   UNL     1      -8.578  -5.000  19.720  0.00  0.00    +0.000 HD
ENDROOT
BRANCH   1  16
ATOM     10  C   UNL     1      -8.562  -2.931  25.563  0.00  0.00    +0.000 A 
ATOM     11  N   UNL     1      -9.515  -2.068  25.921  0.00  0.00    +0.000 NA
ATOM     12  N   UNL     1      -9.974  -1.584  24.757  0.00  0.00    +0.000 N 
ATOM     13  C   UNL     1      -9.356  -2.111  23.649  0.00  0.00    +0.000 A 
ATOM     14  C   UNL     1      -9.538  -1.890  22.287  0.00  0.00    +0.000 A 
ATOM     15  C   UNL     1      -8.726  -2.622  21.408  0.00  0.00    +0.000 A 
ATOM     16  C   UNL     1      -7.754  -3.536  21.857  0.00  0.00    +0.000 A 
ATOM     17  C   UNL     1      -7.603  -3.709  23.251  0.00  0.00    +0.000 A 
ATOM     18  C   UNL     1      -8.417  -2.998  24.151  0.00  0.00    +0.000 A 
ATOM     19  H   UNL     1     -10.716  -0.899  24.778  0.00  0.00    +0.000 HD
ATOM     20  H   UNL     1     -10.279  -1.191  21.909  0.00  0.00    +0.000 HD
ATOM     21  H   UNL     1      -8.885  -2.471  20.341  0.00  0.00    +0.000 HD
ATOM     22  H   UNL     1      -6.858  -4.385  23.657  0.00  0.00    +0.000 HD
BRANCH  10  23
ATOM     23  C   UNL     1      -7.799  -3.689  26.583  0.00  0.00    +0.000 C 
ATOM     24  H   UNL     1      -8.381  -4.526  26.984  0.00  0.00    +0.000 HD
ATOM     25  H   UNL     1      -7.525  -3.036  27.417  0.00  0.00    +0.000 HD
ATOM     26  H   UNL     1      -6.880  -4.093  26.147  0.00  0.00    +0.000 HD
ENDBRANCH  10  23
ENDBRANCH   1  16
BRANCH   5  27
ATOM     27  O   UNL     1      -7.164  -6.471  17.888  0.00  0.00    +0.000 OA
BRANCH  27  28
ATOM     28  C   UNL     1      -8.577  -6.709  17.811  0.00  0.00    +0.000 C 
ATOM     29  H   UNL     1      -8.935  -6.499  16.796  0.00  0.00    +0.000 HD
ATOM     30  H   UNL     1      -9.104  -6.069  18.531  0.00  0.00    +0.000 HD
BRANCH  28  31
ATOM     31  C   UNL     1      -8.834  -8.192  18.155  0.00  0.00    +0.000 C 
ATOM     32  H   UNL     1      -7.867  -8.710  18.206  0.00  0.00    +0.000 HD
BRANCH  31  33
ATOM     33  N   UNL     1      -9.433  -8.279  19.503  0.00  0.00    +0.000 NA
ATOM     34  H   UNL     1      -8.759  -7.973  20.204  0.00  0.00    +0.000 HD
ATOM     35  H   UNL     1      -9.594  -9.270  19.704  0.00  0.00    +0.000 HD
ENDBRANCH  31  33
BRANCH  31  36
ATOM     36  C   UNL     1      -9.708  -8.850  17.063  0.00  0.00    +0.000 C 
ATOM     37  H   UNL     1      -9.700  -8.214  16.167  0.00  0.00    +0.000 HD
ATOM     38  H   UNL     1     -10.758  -8.885  17.385  0.00  0.00    +0.000 HD
BRANCH  36  39
ATOM     39  C   UNL     1      -9.270 -10.243  16.662  0.00  0.00    +0.000 A 
ATOM     40  C   UNL     1      -8.870 -10.521  15.350  0.00  0.00    +0.000 A 
ATOM     41  C   UNL     1      -8.435 -11.800  14.997  0.00  0.00    +0.000 A 
ATOM     42  C   UNL     1      -8.357 -12.805  15.961  0.00  0.00    +0.000 A 
ATOM     43  C   UNL     1      -8.723 -12.543  17.288  0.00  0.00    +0.000 A 
ATOM     44  C   UNL     1      -9.213 -11.268  17.618  0.00  0.00    +0.000 A 
ATOM     45  H   UNL     1      -8.884  -9.743  14.590  0.00  0.00    +0.000 HD
ATOM     46  H   UNL     1      -8.129 -12.008  13.975  0.00  0.00    +0.000 HD
ATOM     47  H   UNL     1      -7.985 -13.788  15.678  0.00  0.00    +0.000 HD
ATOM     48  H   UNL     1      -9.511 -11.062  18.646  0.00  0.00    +0.000 HD
BRANCH  43  49
ATOM     49  C   UNL     1      -8.542 -13.583  18.364  0.00  0.00    +0.000 C 
ATOM     50  F   UNL     1      -9.280 -13.342  19.485  0.00  0.00    +0.000 F 
ATOM     51  F   UNL     1      -8.903 -14.830  17.949  0.00  0.00    +0.000 F 
ATOM     52  F   UNL     1      -7.251 -13.692  18.786  0.00  0.00    +0.000 F 
ENDBRANCH  43  49
ENDBRANCH  36  39
ENDBRANCH  31  36
ENDBRANCH  28  31
ENDBRANCH  27  28
ENDBRANCH   5  27
TORSDOF 9
ENDMDL
MODEL 5
REMARK VINA RESULT:   -11.383      2.112      3.441
REMARK INTER + INTRA:         -17.770
REMARK INTER:                 -16.819
REMARK INTRA:                  -0.951
REMARK UNBOUND:                -1.063
REMARK  Name = 
REMARK  9 active torsions:
REMARK  status: ('A' for Active; 'I' for Inactive)
REMARK    1  A    between atoms: C_1  and  C_2
REMARK    2  A    between atoms: C_8  and  C_9
REMARK    3  A    between atoms: C_13  and  O_14
REMARK    4  A    between atoms: O_14  and  C_15
REMARK    5  A    between atoms: C_15  and  C_16
REMARK    6  A    between atoms: C_16  and  N_17
REMARK    7  A    between atoms: C_16  and  C_18
REMARK    8  A    between atoms: C_18  and  C_19
REMARK    9  A    between atoms: C_23  and  C_24
REMARK                            x       y       z     vdW  Elec       q    Type
REMARK                         _______ _______ _______ _____ _____    ______ ____
ROOT
ATOM      1  C   UNL     1      -7.879  -4.081  20.334  0.00  0.00    +0.000 A 
ATOM      2  C   UNL     1      -6.721  -4.861  20.365  0.00  0.00    +0.000 A 
ATOM      3  N   UNL     1      -6.469  -5.913  19.550  0.00  0.00    +0.000 NA
ATOM      4  C   UNL     1      -7.428  -6.217  18.649  0.00  0.00    +0.000 A 
ATOM      5  C   UNL     1      -8.625  -5.526  18.519  0.00  0.00    +0.000 A 
ATOM      6  C   UNL     1      -8.838  -4.448  19.373  0.00  0.00    +0.000 A 
ATOM      7  H   UNL     1      -5.924  -4.665  21.079  0.00  0.00    +0.000 HD
ATOM      8  H   UNL     1      -7.204  -7.064  18.006  0.00  0.00    +0.000 HD
ATOM      9  H   UNL     1      -9.748  -3.864  19.293  0.00  0.00    +0.000 HD
ENDROOT
BRANCH   1  16
ATOM     10  C   UNL     1     -10.573  -0.214  22.344  0.00  0.00    +0.000 A 
ATOM     11  N   UNL     1     -10.228   0.692  23.262  0.00  0.00    +0.000 NA
ATOM     12  N   UNL     1      -8.971   0.361  23.593  0.00  0.00    +0.000 N 
ATOM     13  C   UNL     1      -8.481  -0.729  22.914  0.00  0.00    +0.000 A 
ATOM     14  C   UNL     1      -7.249  -1.375  22.955  0.00  0.00    +0.000 A 
ATOM     15  C   UNL     1      -7.078  -2.474  22.101  0.00  0.00    +0.000 A 
ATOM     16  C   UNL     1      -8.094  -2.931  21.239  0.00  0.00    +0.000 A 
ATOM     17  C   UNL     1      -9.328  -2.245  21.251  0.00  0.00    +0.000 A 
ATOM     18  C   UNL     1      -9.518  -1.130  22.088  0.00  0.00    +0.000 A 
ATOM     19  H   UNL     1      -8.492   0.918  24.286  0.00  0.00    +0.000 HD
ATOM     20  H   UNL     1      -6.446  -1.048  23.609  0.00  0.00    +0.000 HD
ATOM     21  H   UNL     1      -6.106  -2.966  22.110  0.00  0.00    +0.000 HD
ATOM     22  H   UNL     1     -10.155  -2.561  20.623  0.00  0.00    +0.000 HD
BRANCH  10  23
ATOM     23  C   UNL     1     -11.916  -0.187  21.717  0.00  0.00    +0.000 C 
ATOM     24  H   UNL     1     -12.116  -1.103  21.151  0.00  0.00    +0.000 HD
ATOM     25  H   UNL     1     -12.000   0.661  21.031  0.00  0.00    +0.000 HD
ATOM     26  H   UNL     1     -12.691  -0.087  22.484  0.00  0.00    +0.000 HD
ENDBRANCH  10  23
ENDBRANCH   1  16
BRANCH   5  27
ATOM     27  O   UNL     1      -9.481  -5.967  17.554  0.00  0.00    +0.000 OA
BRANCH  27  28
ATOM     28  C   UNL     1      -9.199  -7.244  16.964  0.00  0.00    +0.000 C 
ATOM     29  H   UNL     1      -8.329  -7.697  17.454  0.00  0.00    +0.000 HD
ATOM     30  H   UNL     1      -8.999  -7.124  15.890  0.00  0.00    +0.000 HD
BRANCH  28  31
ATOM     31  C   UNL     1     -10.436  -8.147  17.161  0.00  0.00    +0.000 C 
ATOM     32  H   UNL     1     -10.272  -8.773  18.048  0.00  0.00    +0.000 HD
BRANCH  31  33
ATOM     33  N   UNL     1     -11.612  -7.300  17.452  0.00  0.00    +0.000 NA
ATOM     34  H   UNL     1     -12.288  -7.822  18.006  0.00  0.00    +0.000 HD
ATOM     35  H   UNL     1     -12.083  -7.115  16.562  0.00  0.00    +0.000 HD
ENDBRANCH  31  33
BRANCH  31  36
ATOM     36  C   UNL     1     -10.636  -9.055  15.926  0.00  0.00    +0.000 C 
ATOM     37  H   UNL     1     -10.375  -8.490  15.021  0.00  0.00    +0.000 HD
ATOM     38  H   UNL     1     -11.698  -9.312  15.811  0.00  0.00    +0.000 HD
BRANCH  36  39
ATOM     39  C   UNL     1      -9.820 -10.329  15.945  0.00  0.00    +0.000 A 
ATOM     40  C   UNL     1      -9.225 -10.820  14.776  0.00  0.00    +0.000 A 
ATOM     41  C   UNL     1      -8.445 -11.978  14.809  0.00  0.00    +0.000 A 
ATOM     42  C   UNL     1      -8.219 -12.636  16.017  0.00  0.00    +0.000 A 
ATOM     43  C   UNL     1      -8.779 -12.149  17.205  0.00  0.00    +0.000 A 
ATOM     44  C   UNL     1      -9.608 -11.015  17.150  0.00  0.00    +0.000 A 
ATOM     45  H   UNL     1      -9.355 -10.300  13.829  0.00  0.00    +0.000 HD
ATOM     46  H   UNL     1      -7.990 -12.353  13.896  0.00  0.00    +0.000 HD
ATOM     47  H   UNL     1      -7.583 -13.519  16.032  0.00  0.00    +0.000 HD
ATOM     48  H   UNL     1     -10.056 -10.638  18.069  0.00  0.00    +0.000 HD
BRANCH  43  49
ATOM     49  C   UNL     1      -8.456 -12.783  18.534  0.00  0.00    +0.000 C 
ATOM     50  F   UNL     1      -9.323 -13.773  18.890  0.00  0.00    +0.000 F 
ATOM     51  F   UNL     1      -7.219 -13.354  18.552  0.00  0.00    +0.000 F 
ATOM     52  F   UNL     1      -8.468 -11.891  19.565  0.00  0.00    +0.000 F 
ENDBRANCH  43  49
ENDBRANCH  36  39
ENDBRANCH  31  36
ENDBRANCH  28  31
ENDBRANCH  27  28
ENDBRANCH   5  27
TORSDOF 9
ENDMDL
MODEL 6
REMARK VINA RESULT:   -10.953      4.440     10.215
REMARK INTER + INTRA:         -17.138
REMARK INTER:                 -16.309
REMARK INTRA:                  -0.829
REMARK UNBOUND:                -1.063
REMARK  Name = 
REMARK  9 active torsions:
REMARK  status: ('A' for Active; 'I' for Inactive)
REMARK    1  A    between atoms: C_1  and  C_2
REMARK    2  A    between atoms: C_8  and  C_9
REMARK    3  A    between atoms: C_13  and  O_14
REMARK    4  A    between atoms: O_14  and  C_15
REMARK    5  A    between atoms: C_15  and  C_16
REMARK    6  A    between atoms: C_16  and  N_17
REMARK    7  A    between atoms: C_16  and  C_18
REMARK    8  A    between atoms: C_18  and  C_19
REMARK    9  A    between atoms: C_23  and  C_24
REMARK                            x       y       z     vdW  Elec       q    Type
REMARK                         _______ _______ _______ _____ _____    ______ ____
ROOT
ATOM      1  C   UNL     1      -9.515  -8.478  17.334  0.00  0.00    +0.000 A 
ATOM      2  C   UNL     1     -10.426  -7.563  16.800  0.00  0.00    +0.000 A 
ATOM      3  N   UNL     1     -10.693  -6.339  17.315  0.00  0.00    +0.000 NA
ATOM      4  C   UNL     1     -10.019  -6.001  18.436  0.00  0.00    +0.000 A 
ATOM      5  C   UNL     1      -9.093  -6.819  19.069  0.00  0.00    +0.000 A 
ATOM      6  C   UNL     1      -8.846  -8.064  18.499  0.00  0.00    +0.000 A 
ATOM      7  H   UNL     1     -11.002  -7.792  15.906  0.00  0.00    +0.000 HD
ATOM      8  H   UNL     1     -10.249  -5.015  18.831  0.00  0.00    +0.000 HD
ATOM      9  H   UNL     1      -8.113  -8.728  18.944  0.00  0.00    +0.000 HD
ENDROOT
BRANCH   1  16
ATOM     10  C   UNL     1      -8.730 -13.540  17.394  0.00  0.00    +0.000 A 
ATOM     11  N   UNL     1      -8.458 -14.383  16.395  0.00  0.00    +0.000 NA
ATOM     12  N   UNL     1      -8.452 -13.605  15.302  0.00  0.00    +0.000 N 
ATOM     13  C   UNL     1      -8.703 -12.278  15.558  0.00  0.00    +0.000 A 
ATOM     14  C   UNL     1      -8.774 -11.166  14.723  0.00  0.00    +0.000 A 
ATOM     15  C   UNL     1      -9.044  -9.931  15.331  0.00  0.00    +0.000 A 
ATOM     16  C   UNL     1      -9.251  -9.796  16.717  0.00  0.00    +0.000 A 
ATOM     17  C   UNL     1      -9.180 -10.961  17.512  0.00  0.00    +0.000 A 
ATOM     18  C   UNL     1      -8.895 -12.208  16.928  0.00  0.00    +0.000 A 
ATOM     19  H   UNL     1      -8.263 -14.031  14.406  0.00  0.00    +0.000 HD
ATOM     20  H   UNL     1      -8.621 -11.237  13.651  0.00  0.00    +0.000 HD
ATOM     21  H   UNL     1      -9.074  -9.054  14.685  0.00  0.00    +0.000 HD
ATOM     22  H   UNL     1      -9.349 -10.923  18.583  0.00  0.00    +0.000 HD
BRANCH  10  23
ATOM     23  C   UNL     1      -8.825 -14.024  18.792  0.00  0.00    +0.000 C 
ATOM     24  H   UNL     1      -7.860 -13.966  19.306  0.00  0.00    +0.000 HD
ATOM     25  H   UNL     1      -9.160 -15.065  18.813  0.00  0.00    +0.000 HD
ATOM     26  H   UNL     1      -9.545 -13.420  19.354  0.00  0.00    +0.000 HD
ENDBRANCH  10  23
ENDBRANCH   1  16
BRANCH   5  27
ATOM     27  O   UNL     1      -8.503  -6.317  20.190  0.00  0.00    +0.000 OA
BRANCH  27  28
ATOM     28  C   UNL     1      -7.335  -5.504  20.006  0.00  0.00    +0.000 C 
ATOM     29  H   UNL     1      -7.323  -5.095  18.989  0.00  0.00    +0.000 HD
ATOM     30  H   UNL     1      -6.431  -6.104  20.176  0.00  0.00    +0.000 HD
BRANCH  28  31
ATOM     31  C   UNL     1      -7.389  -4.349  21.030  0.00  0.00    +0.000 C 
ATOM     32  H   UNL     1      -7.898  -4.708  21.933  0.00  0.00    +0.000 HD
BRANCH  31  33
ATOM     33  N   UNL     1      -6.011  -3.995  21.432  0.00  0.00    +0.000 NA
ATOM     34  H   UNL     1      -5.490  -3.654  20.626  0.00  0.00    +0.000 HD
ATOM     35  H   UNL     1      -5.540  -4.862  21.706  0.00  0.00    +0.000 HD
ENDBRANCH  31  33
BRANCH  31  36
ATOM     36  C   UNL     1      -8.172  -3.152  20.444  0.00  0.00    +0.000 C 
ATOM     37  H   UNL     1      -8.760  -3.497  19.582  0.00  0.00    +0.000 HD
ATOM     38  H   UNL     1      -7.477  -2.403  20.040  0.00  0.00    +0.000 HD
BRANCH  36  39
ATOM     39  C   UNL     1      -9.111  -2.477  21.421  0.00  0.00    +0.000 A 
ATOM     40  C   UNL     1     -10.297  -1.877  20.982  0.00  0.00    +0.000 A 
ATOM     41  C   UNL     1     -11.173  -1.287  21.894  0.00  0.00    +0.000 A 
ATOM     42  C   UNL     1     -10.892  -1.324  23.260  0.00  0.00    +0.000 A 
ATOM     43  C   UNL     1      -9.726  -1.944  23.727  0.00  0.00    +0.000 A 
ATOM     44  C   UNL     1      -8.825  -2.484  22.794  0.00  0.00    +0.000 A 
ATOM     45  H   UNL     1     -10.555  -1.872  19.925  0.00  0.00    +0.000 HD
ATOM     46  H   UNL     1     -12.091  -0.821  21.544  0.00  0.00    +0.000 HD
ATOM     47  H   UNL     1     -11.601  -0.888  23.962  0.00  0.00    +0.000 HD
ATOM     48  H   UNL     1      -7.910  -2.958  23.151  0.00  0.00    +0.000 HD
BRANCH  43  49
ATOM     49  C   UNL     1      -9.462  -2.090  25.204  0.00  0.00    +0.000 C 
ATOM     50  F   UNL     1      -8.518  -3.028  25.498  0.00  0.00    +0.000 F 
ATOM     51  F   UNL     1      -9.017  -0.932  25.770  0.00  0.00    +0.000 F 
ATOM     52  F   UNL     1     -10.572  -2.446  25.910  0.00  0.00    +0.000 F 
ENDBRANCH  43  49
ENDBRANCH  36  39
ENDBRANCH  31  36
ENDBRANCH  28  31
ENDBRANCH  27  28
ENDBRANCH   5  27
TORSDOF 9
ENDMDL
MODEL 7
REMARK VINA RESULT:   -10.878      3.408      8.592
REMARK INTER + INTRA:         -17.029
REMARK INTER:                 -15.225
REMARK INTRA:                  -1.804
REMARK UNBOUND:                -1.063
REMARK  Name = 
REMARK  9 active torsions:
REMARK  status: ('A' for Active; 'I' for Inactive)
REMARK    1  A    between atoms: C_1  and  C_2
REMARK    2  A    between atoms: C_8  and  C_9
REMARK    3  A    between atoms: C_13  and  O_14
REMARK    4  A    between atoms: O_14  and  C_15
REMARK    5  A    between atoms: C_15  and  C_16
REMARK    6  A    between atoms: C_16  and  N_17
REMARK    7  A    between atoms: C_16  and  C_18
REMARK    8  A    between atoms: C_18  and  C_19
REMARK    9  A    between atoms: C_23  and  C_24
REMARK                            x       y       z     vdW  Elec       q    Type
REMARK                         _______ _______ _______ _____ _____    ______ ____
ROOT
ATOM      1  C   UNL     1      -9.515  -8.144  16.826  0.00  0.00    +0.000 A 
ATOM      2  C   UNL     1      -8.923  -7.591  15.688  0.00  0.00    +0.000 A 
ATOM      3  N   UNL     1      -9.207  -6.369  15.179  0.00  0.00    +0.000 NA
ATOM      4  C   UNL     1     -10.143  -5.649  15.835  0.00  0.00    +0.000 A 
ATOM      5  C   UNL     1     -10.809  -6.084  16.973  0.00  0.00    +0.000 A 
ATOM      6  C   UNL     1     -10.479  -7.344  17.464  0.00  0.00    +0.000 A 
ATOM      7  H   UNL     1      -8.174  -8.135  15.118  0.00  0.00    +0.000 HD
ATOM      8  H   UNL     1     -10.355  -4.672  15.409  0.00  0.00    +0.000 HD
ATOM      9  H   UNL     1     -10.956  -7.717  18.364  0.00  0.00    +0.000 HD
ENDROOT
BRANCH   1  16
ATOM     10  C   UNL     1      -8.682 -13.187  16.458  0.00  0.00    +0.000 A 
ATOM     11  N   UNL     1      -8.353 -14.077  17.396  0.00  0.00    +0.000 NA
ATOM     12  N   UNL     1      -8.253 -13.349  18.519  0.00  0.00    +0.000 N 
ATOM     13  C   UNL     1      -8.516 -12.012  18.344  0.00  0.00    +0.000 A 
ATOM     14  C   UNL     1      -8.531 -10.941  19.234  0.00  0.00    +0.000 A 
ATOM     15  C   UNL     1      -8.859  -9.683  18.710  0.00  0.00    +0.000 A 
ATOM     16  C   UNL     1      -9.152  -9.480  17.348  0.00  0.00    +0.000 A 
ATOM     17  C   UNL     1      -9.108 -10.601  16.489  0.00  0.00    +0.000 A 
ATOM     18  C   UNL     1      -8.797 -11.876  16.995  0.00  0.00    +0.000 A 
ATOM     19  H   UNL     1      -8.009 -13.819  19.379  0.00  0.00    +0.000 HD
ATOM     20  H   UNL     1      -8.308 -11.064  20.290  0.00  0.00    +0.000 HD
ATOM     21  H   UNL     1      -8.899  -8.848  19.409  0.00  0.00    +0.000 HD
ATOM     22  H   UNL     1      -9.306 -10.504  15.427  0.00  0.00    +0.000 HD
BRANCH  10  23
ATOM     23  C   UNL     1      -8.889 -13.605  15.052  0.00  0.00    +0.000 C 
ATOM     24  H   UNL     1      -8.114 -13.203  14.391  0.00  0.00    +0.000 HD
ATOM     25  H   UNL     1      -9.860 -13.256  14.688  0.00  0.00    +0.000 HD
ATOM     26  H   UNL     1      -8.867 -14.698  14.973  0.00  0.00    +0.000 HD
ENDBRANCH  10  23
ENDBRANCH   1  16
BRANCH   5  27
ATOM     27  O   UNL     1     -11.722  -5.227  17.510  0.00  0.00    +0.000 OA
BRANCH  27  28
ATOM     28  C   UNL     1     -11.666  -3.859  17.081  0.00  0.00    +0.000 C 
ATOM     29  H   UNL     1     -12.505  -3.644  16.409  0.00  0.00    +0.000 HD
ATOM     30  H   UNL     1     -10.716  -3.668  16.563  0.00  0.00    +0.000 HD
BRANCH  28  31
ATOM     31  C   UNL     1     -11.760  -2.960  18.333  0.00  0.00    +0.000 C 
ATOM     32  H   UNL     1     -12.589  -2.254  18.193  0.00  0.00    +0.000 HD
BRANCH  31  33
ATOM     33  N   UNL     1     -12.106  -3.794  19.503  0.00  0.00    +0.000 NA
ATOM     34  H   UNL     1     -12.267  -3.203  20.317  0.00  0.00    +0.000 HD
ATOM     35  H   UNL     1     -11.279  -4.351  19.738  0.00  0.00    +0.000 HD
ENDBRANCH  31  33
BRANCH  31  36
ATOM     36  C   UNL     1     -10.445  -2.170  18.523  0.00  0.00    +0.000 C 
ATOM     37  H   UNL     1     -10.682  -1.167  18.903  0.00  0.00    +0.000 HD
ATOM     38  H   UNL     1      -9.956  -2.006  17.553  0.00  0.00    +0.000 HD
BRANCH  36  39
ATOM     39  C   UNL     1      -9.455  -2.816  19.470  0.00  0.00    +0.000 A 
ATOM     40  C   UNL     1      -9.214  -2.275  20.738  0.00  0.00    +0.000 A 
ATOM     41  C   UNL     1      -8.325  -2.897  21.617  0.00  0.00    +0.000 A 
ATOM     42  C   UNL     1      -7.698  -4.088  21.253  0.00  0.00    +0.000 A 
ATOM     43  C   UNL     1      -7.946  -4.666  20.001  0.00  0.00    +0.000 A 
ATOM     44  C   UNL     1      -8.798  -4.000  19.104  0.00  0.00    +0.000 A 
ATOM     45  H   UNL     1      -9.723  -1.368  21.058  0.00  0.00    +0.000 HD
ATOM     46  H   UNL     1      -8.142  -2.467  22.599  0.00  0.00    +0.000 HD
ATOM     47  H   UNL     1      -7.033  -4.578  21.962  0.00  0.00    +0.000 HD
ATOM     48  H   UNL     1      -8.985  -4.439  18.124  0.00  0.00    +0.000 HD
BRANCH  43  49
ATOM     49  C   UNL     1      -7.363  -6.007  19.635  0.00  0.00    +0.000 C 
ATOM     50  F   UNL     1      -7.361  -6.252  18.294  0.00  0.00    +0.000 F 
ATOM     51  F   UNL     1      -6.066  -6.137  20.034  0.00  0.00    +0.000 F 
ATOM     52  F   UNL     1      -8.033  -7.050  20.202  0.00  0.00    +0.000 F 
ENDBRANCH  43  49
ENDBRANCH  36  39
ENDBRANCH  31  36
ENDBRANCH  28  31
ENDBRANCH  27  28
ENDBRANCH   5  27
TORSDOF 9
ENDMDL
MODEL 8
REMARK VINA RESULT:   -10.692      4.663      9.909
REMARK INTER + INTRA:         -16.755
REMARK INTER:                 -15.858
REMARK INTRA:                  -0.897
REMARK UNBOUND:                -1.063
REMARK  Name = 
REMARK  9 active torsions:
REMARK  status: ('A' for Active; 'I' for Inactive)
REMARK    1  A    between atoms: C_1  and  C_2
REMARK    2  A    between atoms: C_8  and  C_9
REMARK    3  A    between atoms: C_13  and  O_14
REMARK    4  A    between atoms: O_14  and  C_15
REMARK    5  A    between atoms: C_15  and  C_16
REMARK    6  A    between atoms: C_16  and  N_17
REMARK    7  A    between atoms: C_16  and  C_18
REMARK    8  A    between atoms: C_18  and  C_19
REMARK    9  A    between atoms: C_23  and  C_24
REMARK                            x       y       z     vdW  Elec       q    Type
REMARK                         _______ _______ _______ _____ _____    ______ ____
ROOT
ATOM      1  C   UNL     1      -9.032  -8.750  17.940  0.00  0.00    +0.000 A 
ATOM      2  C   UNL     1      -8.807  -8.773  19.319  0.00  0.00    +0.000 A 
ATOM      3  N   UNL     1      -8.860  -7.694  20.134  0.00  0.00    +0.000 NA
ATOM      4  C   UNL     1      -9.149  -6.512  19.546  0.00  0.00    +0.000 A 
ATOM      5  C   UNL     1      -9.389  -6.352  18.189  0.00  0.00    +0.000 A 
ATOM      6  C   UNL     1      -9.331  -7.491  17.391  0.00  0.00    +0.000 A 
ATOM      7  H   UNL     1      -8.558  -9.696  19.837  0.00  0.00    +0.000 HD
ATOM      8  H   UNL     1      -9.187  -5.660  20.221  0.00  0.00    +0.000 HD
ATOM      9  H   UNL     1      -9.534  -7.419  16.328  0.00  0.00    +0.000 HD
ENDROOT
BRANCH   1  16
ATOM     10  C   UNL     1      -8.767 -13.801  17.120  0.00  0.00    +0.000 A 
ATOM     11  N   UNL     1      -8.700 -14.486  15.976  0.00  0.00    +0.000 NA
ATOM     12  N   UNL     1      -8.741 -13.542  15.025  0.00  0.00    +0.000 N 
ATOM     13  C   UNL     1      -8.823 -12.259  15.511  0.00  0.00    +0.000 A 
ATOM     14  C   UNL     1      -8.877 -11.023  14.874  0.00  0.00    +0.000 A 
ATOM     15  C   UNL     1      -8.947  -9.887  15.694  0.00  0.00    +0.000 A 
ATOM     16  C   UNL     1      -8.977  -9.966  17.100  0.00  0.00    +0.000 A 
ATOM     17  C   UNL     1      -8.935 -11.248  17.690  0.00  0.00    +0.000 A 
ATOM     18  C   UNL     1      -8.848 -12.401  16.889  0.00  0.00    +0.000 A 
ATOM     19  H   UNL     1      -8.701 -13.829  14.057  0.00  0.00    +0.000 HD
ATOM     20  H   UNL     1      -8.856 -10.929  13.793  0.00  0.00    +0.000 HD
ATOM     21  H   UNL     1      -8.961  -8.916  15.200  0.00  0.00    +0.000 HD
ATOM     22  H   UNL     1      -8.974 -11.373  18.767  0.00  0.00    +0.000 HD
BRANCH  10  23
ATOM     23  C   UNL     1      -8.750 -14.499  18.427  0.00  0.00    +0.000 C 
ATOM     24  H   UNL     1      -8.001 -15.297  18.449  0.00  0.00    +0.000 HD
ATOM     25  H   UNL     1      -9.727 -14.943  18.635  0.00  0.00    +0.000 HD
ATOM     26  H   UNL     1      -8.516 -13.793  19.231  0.00  0.00    +0.000 HD
ENDBRANCH  10  23
ENDBRANCH   1  16
BRANCH   5  27
ATOM     27  O   UNL     1      -9.670  -5.088  17.764  0.00  0.00    +0.000 OA
BRANCH  27  28
ATOM     28  C   UNL     1     -10.286  -4.202  18.710  0.00  0.00    +0.000 C 
ATOM     29  H   UNL     1     -10.325  -4.680  19.697  0.00  0.00    +0.000 HD
ATOM     30  H   UNL     1     -11.303  -3.950  18.380  0.00  0.00    +0.000 HD
BRANCH  28  31
ATOM     31  C   UNL     1      -9.436  -2.916  18.789  0.00  0.00    +0.000 C 
ATOM     32  H   UNL     1      -8.376  -3.201  18.834  0.00  0.00    +0.000 HD
BRANCH  31  33
ATOM     33  N   UNL     1      -9.614  -2.141  17.543  0.00  0.00    +0.000 NA
ATOM     34  H   UNL     1     -10.053  -2.723  16.831  0.00  0.00    +0.000 HD
ATOM     35  H   UNL     1      -8.681  -1.930  17.177  0.00  0.00    +0.000 HD
ENDBRANCH  31  33
BRANCH  31  36
ATOM     36  C   UNL     1      -9.801  -2.111  20.057  0.00  0.00    +0.000 C 
ATOM     37  H   UNL     1     -10.885  -2.179  20.223  0.00  0.00    +0.000 HD
ATOM     38  H   UNL     1      -9.597  -1.043  19.903  0.00  0.00    +0.000 HD
BRANCH  36  39
ATOM     39  C   UNL     1      -9.097  -2.570  21.317  0.00  0.00    +0.000 A 
ATOM     40  C   UNL     1      -7.862  -3.226  21.253  0.00  0.00    +0.000 A 
ATOM     41  C   UNL     1      -7.204  -3.614  22.421  0.00  0.00    +0.000 A 
ATOM     42  C   UNL     1      -7.755  -3.317  23.667  0.00  0.00    +0.000 A 
ATOM     43  C   UNL     1      -8.975  -2.636  23.759  0.00  0.00    +0.000 A 
ATOM     44  C   UNL     1      -9.655  -2.300  22.575  0.00  0.00    +0.000 A 
ATOM     45  H   UNL     1      -7.395  -3.432  20.292  0.00  0.00    +0.000 HD
ATOM     46  H   UNL     1      -6.246  -4.126  22.362  0.00  0.00    +0.000 HD
ATOM     47  H   UNL     1      -7.214  -3.598  24.569  0.00  0.00    +0.000 HD
ATOM     48  H   UNL     1     -10.611  -1.780  22.640  0.00  0.00    +0.000 HD
BRANCH  43  49
ATOM     49  C   UNL     1      -9.530  -2.210  25.094  0.00  0.00    +0.000 C 
ATOM     50  F   UNL     1      -8.861  -2.742  26.156  0.00  0.00    +0.000 F 
ATOM     51  F   UNL     1      -9.484  -0.859  25.270  0.00  0.00    +0.000 F 
ATOM     52  F   UNL     1     -10.836  -2.562  25.264  0.00  0.00    +0.000 F 
ENDBRANCH  43  49
ENDBRANCH  36  39
ENDBRANCH  31  36
ENDBRANCH  28  31
ENDBRANCH  27  28
ENDBRANCH   5  27
TORSDOF 9
ENDMDL
MODEL 9
REMARK VINA RESULT:   -10.605      3.420      8.621
REMARK INTER + INTRA:         -16.627
REMARK INTER:                 -14.570
REMARK INTRA:                  -2.058
REMARK UNBOUND:                -1.063
REMARK  Name = 
REMARK  9 active torsions:
REMARK  status: ('A' for Active; 'I' for Inactive)
REMARK    1  A    between atoms: C_1  and  C_2
REMARK    2  A    between atoms: C_8  and  C_9
REMARK    3  A    between atoms: C_13  and  O_14
REMARK    4  A    between atoms: O_14  and  C_15
REMARK    5  A    between atoms: C_15  and  C_16
REMARK    6  A    between atoms: C_16  and  N_17
REMARK    7  A    between atoms: C_16  and  C_18
REMARK    8  A    between atoms: C_18  and  C_19
REMARK    9  A    between atoms: C_23  and  C_24
REMARK                            x       y       z     vdW  Elec       q    Type
REMARK                         _______ _______ _______ _____ _____    ______ ____
ROOT
ATOM      1  C   UNL     1     -10.360  -6.410  17.522  0.00  0.00    +0.000 A 
ATOM      2  C   UNL     1     -10.860  -6.180  16.238  0.00  0.00    +0.000 A 
ATOM      3  N   UNL     1     -11.366  -5.003  15.800  0.00  0.00    +0.000 NA
ATOM      4  C   UNL     1     -11.384  -3.988  16.692  0.00  0.00    +0.000 A 
ATOM      5  C   UNL     1     -10.923  -4.086  17.997  0.00  0.00    +0.000 A 
ATOM      6  C   UNL     1     -10.405  -5.314  18.401  0.00  0.00    +0.000 A 
ATOM      7  H   UNL     1     -10.880  -6.966  15.488  0.00  0.00    +0.000 HD
ATOM      8  H   UNL     1     -11.794  -3.053  16.317  0.00  0.00    +0.000 HD
ATOM      9  H   UNL     1     -10.011  -5.432  19.405  0.00  0.00    +0.000 HD
ENDROOT
BRANCH   1  16
ATOM     10  C   UNL     1      -8.910 -11.271  16.800  0.00  0.00    +0.000 A 
ATOM     11  N   UNL     1      -8.420 -12.162  17.665  0.00  0.00    +0.000 NA
ATOM     12  N   UNL     1      -8.356 -11.492  18.825  0.00  0.00    +0.000 N 
ATOM     13  C   UNL     1      -8.797 -10.193  18.747  0.00  0.00    +0.000 A 
ATOM     14  C   UNL     1      -8.902  -9.186  19.703  0.00  0.00    +0.000 A 
ATOM     15  C   UNL     1      -9.416  -7.954  19.274  0.00  0.00    +0.000 A 
ATOM     16  C   UNL     1      -9.803  -7.714  17.942  0.00  0.00    +0.000 A 
ATOM     17  C   UNL     1      -9.660  -8.769  17.013  0.00  0.00    +0.000 A 
ATOM     18  C   UNL     1      -9.163 -10.019  17.423  0.00  0.00    +0.000 A 
ATOM     19  H   UNL     1      -8.010 -11.974  19.643  0.00  0.00    +0.000 HD
ATOM     20  H   UNL     1      -8.611  -9.339  20.738  0.00  0.00    +0.000 HD
ATOM     21  H   UNL     1      -9.525  -7.172  20.025  0.00  0.00    +0.000 HD
ATOM     22  H   UNL     1      -9.924  -8.639  15.969  0.00  0.00    +0.000 HD
BRANCH  10  23
ATOM     23  C   UNL     1      -9.134 -11.633  15.381  0.00  0.00    +0.000 C 
ATOM     24  H   UNL     1      -8.195 -11.868  14.869  0.00  0.00    +0.000 HD
ATOM     25  H   UNL     1      -9.614 -10.806  14.847  0.00  0.00    +0.000 HD
ATOM     26  H   UNL     1      -9.786 -12.510  15.311  0.00  0.00    +0.000 HD
ENDBRANCH  10  23
ENDBRANCH   1  16
BRANCH   5  27
ATOM     27  O   UNL     1     -11.013  -2.962  18.761  0.00  0.00    +0.000 OA
BRANCH  27  28
ATOM     28  C   UNL     1     -10.038  -1.935  18.530  0.00  0.00    +0.000 C 
ATOM     29  H   UNL     1     -10.458  -1.164  17.873  0.00  0.00    +0.000 HD
ATOM     30  H   UNL     1      -9.140  -2.368  18.068  0.00  0.00    +0.000 HD
BRANCH  28  31
ATOM     31  C   UNL     1      -9.666  -1.310  19.893  0.00  0.00    +0.000 C 
ATOM     32  H   UNL     1      -8.715  -0.773  19.781  0.00  0.00    +0.000 HD
BRANCH  31  33
ATOM     33  N   UNL     1     -10.684  -0.301  20.256  0.00  0.00    +0.000 NA
ATOM     34  H   UNL     1     -11.204  -0.017  19.427  0.00  0.00    +0.000 HD
ATOM     35  H   UNL     1     -10.186   0.541  20.559  0.00  0.00    +0.000 HD
ENDBRANCH  31  33
BRANCH  31  36
ATOM     36  C   UNL     1      -9.506  -2.416  20.960  0.00  0.00    +0.000 C 
ATOM     37  H   UNL     1     -10.223  -3.222  20.752  0.00  0.00    +0.000 HD
ATOM     38  H   UNL     1      -9.782  -2.031  21.952  0.00  0.00    +0.000 HD
BRANCH  36  39
ATOM     39  C   UNL     1      -8.120  -3.021  21.035  0.00  0.00    +0.000 A 
ATOM     40  C   UNL     1      -7.215  -2.626  22.028  0.00  0.00    +0.000 A 
ATOM     41  C   UNL     1      -5.951  -3.213  22.110  0.00  0.00    +0.000 A 
ATOM     42  C   UNL     1      -5.592  -4.229  21.225  0.00  0.00    +0.000 A 
ATOM     43  C   UNL     1      -6.490  -4.663  20.241  0.00  0.00    +0.000 A 
ATOM     44  C   UNL     1      -7.738  -4.025  20.133  0.00  0.00    +0.000 A 
ATOM     45  H   UNL     1      -7.489  -1.863  22.753  0.00  0.00    +0.000 HD
ATOM     46  H   UNL     1      -5.254  -2.898  22.883  0.00  0.00    +0.000 HD
ATOM     47  H   UNL     1      -4.615  -4.700  21.322  0.00  0.00    +0.000 HD
ATOM     48  H   UNL     1      -8.436  -4.350  19.362  0.00  0.00    +0.000 HD
BRANCH  43  49
ATOM     49  C   UNL     1      -6.161  -5.832  19.349  0.00  0.00    +0.000 C 
ATOM     50  F   UNL     1      -6.913  -5.878  18.212  0.00  0.00    +0.000 F 
ATOM     51  F   UNL     1      -4.864  -5.819  18.931  0.00  0.00    +0.000 F 
ATOM     52  F   UNL     1      -6.342  -7.036  19.962  0.00  0.00    +0.000 F 
ENDBRANCH  43  49
ENDBRANCH  36  39
ENDBRANCH  31  36
ENDBRANCH  28  31
ENDBRANCH  27  28
ENDBRANCH   5  27
TORSDOF 9
ENDMDL
