
 OpenBabel01112422483D

 36 41  0  0  0  0  0  0  0  0999 V2000
    1.1812   -0.0642    0.0005 O   0  0  0  0  0  0  0  0  0  0  0  0
    2.3968    0.0758    0.0006 C   0  0  0  0  0  0  0  0  0  0  0  0
    3.2524   -0.9926    0.0002 N   0  0  0  0  0  0  0  0  0  0  0  0
    4.5910   -0.7112   -0.0004 C   0  0  0  0  0  0  0  0  0  0  0  0
    5.4404   -1.5924   -0.0022 O   0  0  0  0  0  0  0  0  0  0  0  0
    4.6263    0.7199    0.0005 C   0  0  0  0  0  0  0  0  0  0  0  0
    3.2785    1.2037    0.0009 C   0  0  0  0  0  0  0  0  0  0  0  0
    3.0484    2.6053    0.0015 C   0  0  0  0  0  0  0  0  0  0  0  0
    1.8270    3.2797    0.0012 C   0  0  0  0  0  0  0  0  0  0  0  0
    0.4496    2.9856    0.0004 C   0  0  0  0  0  0  0  0  0  0  0  0
   -0.4869    4.0288   -0.0002 C   0  0  0  0  0  0  0  0  0  0  0  0
   -0.0766    5.3577    0.0003 C   0  0  0  0  0  0  0  0  0  0  0  0
    1.2795    5.6871    0.0016 C   0  0  0  0  0  0  0  0  0  0  0  0
    2.2097    4.6386    0.0018 C   0  0  0  0  0  0  0  0  0  0  0  0
    3.5996    4.7059    0.0023 N   0  0  0  0  0  0  0  0  0  0  0  0
    4.1161    3.4454    0.0017 C   0  0  0  0  0  0  0  0  0  0  0  0
    5.4081    2.9814    0.0013 C   0  0  0  0  0  0  0  0  0  0  0  0
    6.6109    3.6219    0.0009 N   0  0  0  0  0  0  0  0  0  0  0  0
    7.6378    2.6823    0.0005 C   0  0  0  0  0  0  0  0  0  0  0  0
    9.0237    2.8924   -0.0000 C   0  0  0  0  0  0  0  0  0  0  0  0
    9.8551    1.7710   -0.0006 C   0  0  0  0  0  0  0  0  0  0  0  0
    9.3210    0.4871   -0.0002 C   0  0  0  0  0  0  0  0  0  0  0  0
    7.9346    0.2855    0.0006 C   0  0  0  0  0  0  0  0  0  0  0  0
    7.0645    1.3926    0.0006 C   0  0  0  0  0  0  0  0  0  0  0  0
    5.6949    1.6538    0.0010 C   0  0  0  0  0  0  0  0  0  0  0  0
    2.9150   -1.9396   -0.0005 H   0  0  0  0  0  0  0  0  0  0  0  0
    0.0855    1.9643    0.0001 H   0  0  0  0  0  0  0  0  0  0  0  0
   -1.5483    3.7913   -0.0012 H   0  0  0  0  0  0  0  0  0  0  0  0
   -0.8214    6.1502   -0.0003 H   0  0  0  0  0  0  0  0  0  0  0  0
    1.5951    6.7256    0.0022 H   0  0  0  0  0  0  0  0  0  0  0  0
    4.1259    5.5668    0.0029 H   0  0  0  0  0  0  0  0  0  0  0  0
    6.7553    4.6206    0.0007 H   0  0  0  0  0  0  0  0  0  0  0  0
    9.4461    3.8921   -0.0003 H   0  0  0  0  0  0  0  0  0  0  0  0
   10.9346    1.9026   -0.0013 H   0  0  0  0  0  0  0  0  0  0  0  0
    9.9833   -0.3755   -0.0005 H   0  0  0  0  0  0  0  0  0  0  0  0
    7.5618   -0.7324    0.0011 H   0  0  0  0  0  0  0  0  0  0  0  0
  1  2  2  0  0  0  0
  2  3  1  0  0  0  0
  2  7  1  0  0  0  0
  3  4  1  0  0  0  0
  3 26  1  0  0  0  0
  4  5  2  0  0  0  0
  4  6  1  0  0  0  0
  6  7  1  0  0  0  0
  6 25  2  0  0  0  0
  7  8  2  0  0  0  0
  8  9  1  0  0  0  0
  8 16  1  0  0  0  0
  9 10  1  0  0  0  0
  9 14  2  0  0  0  0
 10 11  2  0  0  0  0
 10 27  1  0  0  0  0
 11 12  1  0  0  0  0
 11 28  1  0  0  0  0
 12 13  2  0  0  0  0
 12 29  1  0  0  0  0
 13 14  1  0  0  0  0
 13 30  1  0  0  0  0
 14 15  1  0  0  0  0
 15 16  1  0  0  0  0
 15 31  1  0  0  0  0
 16 17  2  0  0  0  0
 17 18  1  0  0  0  0
 17 25  1  0  0  0  0
 18 19  1  0  0  0  0
 18 32  1  0  0  0  0
 19 20  1  0  0  0  0
 19 24  2  0  0  0  0
 20 21  2  0  0  0  0
 20 33  1  0  0  0  0
 21 22  1  0  0  0  0
 21 34  1  0  0  0  0
 22 23  2  0  0  0  0
 22 35  1  0  0  0  0
 23 24  1  0  0  0  0
 23 36  1  0  0  0  0
 24 25  1  0  0  0  0
M  END
$$$$
