MODEL 1
REMARK VINA RESULT:    -8.111      0.000      0.000
REMARK INTER + INTRA:         -10.728
REMARK INTER:                 -10.245
REMARK INTRA:                  -0.483
REMARK UNBOUND:                -0.483
REMARK  Name = 
REMARK  5 active torsions:
REMARK  status: ('A' for Active; 'I' for Inactive)
REMARK    1  A    between atoms: N_1  and  C_2
REMARK    2  A    between atoms: C_2  and  C_3
REMARK    3  A    between atoms: C_3  and  N_4
REMARK    4  A    between atoms: N_4  and  S_5
REMARK    5  A    between atoms: S_5  and  C_8
REMARK                            x       y       z     vdW  Elec       q    Type
REMARK                         _______ _______ _______ _____ _____    ______ ____
ROOT
ATOM      1  C   UNL     1      -9.066  -9.123  16.751  0.00  0.00    +0.000 A 
ATOM      2  C   UNL     1      -9.187  -8.738  15.400  0.00  0.00    +0.000 A 
ATOM      3  C   UNL     1      -9.051  -9.668  14.379  0.00  0.00    +0.000 A 
ATOM      4  C   UNL     1      -8.806 -10.997  14.696  0.00  0.00    +0.000 A 
ATOM      5  C   UNL     1      -8.697 -11.410  16.036  0.00  0.00    +0.000 A 
ATOM      6  C   UNL     1      -8.471 -12.757  16.332  0.00  0.00    +0.000 A 
ATOM      7  N   UNL     1      -8.362 -13.266  17.576  0.00  0.00    +0.000 NA
ATOM      8  C   UNL     1      -8.490 -12.390  18.585  0.00  0.00    +0.000 A 
ATOM      9  C   UNL     1      -8.713 -11.031  18.407  0.00  0.00    +0.000 A 
ATOM     10  C   UNL     1      -8.825 -10.485  17.105  0.00  0.00    +0.000 A 
ATOM     11  H   UNL     1      -9.420  -7.706  15.135  0.00  0.00    +0.000 HD
ATOM     12  H   UNL     1      -9.154  -9.365  13.339  0.00  0.00    +0.000 HD
ATOM     13  H   UNL     1      -8.716 -11.721  13.887  0.00  0.00    +0.000 HD
ATOM     14  H   UNL     1      -8.374 -13.499  15.542  0.00  0.00    +0.000 HD
ATOM     15  H   UNL     1      -8.411 -12.814  19.583  0.00  0.00    +0.000 HD
ATOM     16  H   UNL     1      -8.803 -10.436  19.306  0.00  0.00    +0.000 HD
ENDROOT
BRANCH   1  17
ATOM     17  S   UNL     1      -9.339  -7.798  17.925  0.00  0.00    +0.000 S 
ATOM     18  O   UNL     1      -8.451  -7.907  19.057  0.00  0.00    +0.000 OA
ATOM     19  O   UNL     1     -10.773  -7.714  18.103  0.00  0.00    +0.000 OA
BRANCH  17  20
ATOM     20  N   UNL     1      -8.885  -6.421  17.039  0.00  0.00    +0.000 NA
ATOM     21  H   UNL     1      -7.954  -6.105  17.311  0.00  0.00    +0.000 HD
BRANCH  20  22
ATOM     22  C   UNL     1      -9.843  -5.289  17.065  0.00  0.00    +0.000 C 
ATOM     23  H   UNL     1     -10.603  -5.461  17.832  0.00  0.00    +0.000 HD
ATOM     24  H   UNL     1      -9.309  -4.360  17.283  0.00  0.00    +0.000 HD
BRANCH  22  25
ATOM     25  C   UNL     1     -10.550  -5.183  15.702  0.00  0.00    +0.000 C 
ATOM     26  H   UNL     1     -10.844  -4.143  15.510  0.00  0.00    +0.000 HD
ATOM     27  H   UNL     1      -9.851  -5.478  14.913  0.00  0.00    +0.000 HD
BRANCH  25  28
ATOM     28  N   UNL     1     -11.748  -6.030  15.624  0.00  0.00    +0.000 NA
ATOM     29  H   UNL     1     -12.474  -5.511  15.128  0.00  0.00    +0.000 HD
ATOM     30  H   UNL     1     -12.123  -6.156  16.565  0.00  0.00    +0.000 HD
ENDBRANCH  25  28
ENDBRANCH  22  25
ENDBRANCH  20  22
ENDBRANCH  17  20
ENDBRANCH   1  17
TORSDOF 5
ENDMDL
MODEL 2
REMARK VINA RESULT:    -8.035      1.591      2.706
REMARK INTER + INTRA:         -10.633
REMARK INTER:                 -10.145
REMARK INTRA:                  -0.488
REMARK UNBOUND:                -0.483
REMARK  Name = 
REMARK  5 active torsions:
REMARK  status: ('A' for Active; 'I' for Inactive)
REMARK    1  A    between atoms: N_1  and  C_2
REMARK    2  A    between atoms: C_2  and  C_3
REMARK    3  A    between atoms: C_3  and  N_4
REMARK    4  A    between atoms: N_4  and  S_5
REMARK    5  A    between atoms: S_5  and  C_8
REMARK                            x       y       z     vdW  Elec       q    Type
REMARK                         _______ _______ _______ _____ _____    ______ ____
ROOT
ATOM      1  C   UNL     1      -9.211  -9.786  17.288  0.00  0.00    +0.000 A 
ATOM      2  C   UNL     1      -8.906  -9.530  18.641  0.00  0.00    +0.000 A 
ATOM      3  C   UNL     1      -8.403 -10.531  19.459  0.00  0.00    +0.000 A 
ATOM      4  C   UNL     1      -8.184 -11.797  18.932  0.00  0.00    +0.000 A 
ATOM      5  C   UNL     1      -8.463 -12.073  17.582  0.00  0.00    +0.000 A 
ATOM      6  C   UNL     1      -8.214 -13.349  17.067  0.00  0.00    +0.000 A 
ATOM      7  N   UNL     1      -8.432 -13.721  15.790  0.00  0.00    +0.000 NA
ATOM      8  C   UNL     1      -8.918 -12.773  14.973  0.00  0.00    +0.000 A 
ATOM      9  C   UNL     1      -9.204 -11.476  15.377  0.00  0.00    +0.000 A 
ATOM     10  C   UNL     1      -8.984 -11.075  16.718  0.00  0.00    +0.000 A 
ATOM     11  H   UNL     1      -9.034  -8.531  19.060  0.00  0.00    +0.000 HD
ATOM     12  H   UNL     1      -8.163 -10.324  20.500  0.00  0.00    +0.000 HD
ATOM     13  H   UNL     1      -7.774 -12.570  19.580  0.00  0.00    +0.000 HD
ATOM     14  H   UNL     1      -7.809 -14.140  17.694  0.00  0.00    +0.000 HD
ATOM     15  H   UNL     1      -9.080 -13.083  13.944  0.00  0.00    +0.000 HD
ATOM     16  H   UNL     1      -9.587 -10.808  14.617  0.00  0.00    +0.000 HD
ENDROOT
BRANCH   1  17
ATOM     17  S   UNL     1      -9.786  -8.354  16.376  0.00  0.00    +0.000 S 
ATOM     18  O   UNL     1     -11.173  -8.492  16.001  0.00  0.00    +0.000 OA
ATOM     19  O   UNL     1      -8.767  -8.078  15.386  0.00  0.00    +0.000 OA
BRANCH  17  20
ATOM     20  N   UNL     1      -9.680  -7.115  17.533  0.00  0.00    +0.000 NA
ATOM     21  H   UNL     1      -9.489  -7.497  18.459  0.00  0.00    +0.000 HD
BRANCH  20  22
ATOM     22  C   UNL     1     -10.832  -6.181  17.587  0.00  0.00    +0.000 C 
ATOM     23  H   UNL     1     -11.769  -6.740  17.512  0.00  0.00    +0.000 HD
ATOM     24  H   UNL     1     -10.813  -5.628  18.531  0.00  0.00    +0.000 HD
BRANCH  22  25
ATOM     25  C   UNL     1     -10.758  -5.203  16.402  0.00  0.00    +0.000 C 
ATOM     26  H   UNL     1     -10.915  -4.175  16.751  0.00  0.00    +0.000 HD
ATOM     27  H   UNL     1      -9.757  -5.251  15.961  0.00  0.00    +0.000 HD
BRANCH  25  28
ATOM     28  N   UNL     1     -11.754  -5.503  15.365  0.00  0.00    +0.000 NA
ATOM     29  H   UNL     1     -12.552  -4.881  15.499  0.00  0.00    +0.000 HD
ATOM     30  H   UNL     1     -12.129  -6.438  15.530  0.00  0.00    +0.000 HD
ENDBRANCH  25  28
ENDBRANCH  22  25
ENDBRANCH  20  22
ENDBRANCH  17  20
ENDBRANCH   1  17
TORSDOF 5
ENDMDL
MODEL 3
REMARK VINA RESULT:    -8.024      1.782      2.866
REMARK INTER + INTRA:         -10.618
REMARK INTER:                 -10.303
REMARK INTRA:                  -0.314
REMARK UNBOUND:                -0.483
REMARK  Name = 
REMARK  5 active torsions:
REMARK  status: ('A' for Active; 'I' for Inactive)
REMARK    1  A    between atoms: N_1  and  C_2
REMARK    2  A    between atoms: C_2  and  C_3
REMARK    3  A    between atoms: C_3  and  N_4
REMARK    4  A    between atoms: N_4  and  S_5
REMARK    5  A    between atoms: S_5  and  C_8
REMARK                            x       y       z     vdW  Elec       q    Type
REMARK                         _______ _______ _______ _____ _____    ______ ____
ROOT
ATOM      1  C   UNL     1      -9.095  -9.749  17.082  0.00  0.00    +0.000 A 
ATOM      2  C   UNL     1      -8.862  -9.414  18.432  0.00  0.00    +0.000 A 
ATOM      3  C   UNL     1      -8.478 -10.382  19.350  0.00  0.00    +0.000 A 
ATOM      4  C   UNL     1      -8.310 -11.693  18.927  0.00  0.00    +0.000 A 
ATOM      5  C   UNL     1      -8.520 -12.050  17.584  0.00  0.00    +0.000 A 
ATOM      6  C   UNL     1      -8.323 -13.373  17.177  0.00  0.00    +0.000 A 
ATOM      7  N   UNL     1      -8.482 -13.824  15.916  0.00  0.00    +0.000 NA
ATOM      8  C   UNL     1      -8.852 -12.910  15.004  0.00  0.00    +0.000 A 
ATOM      9  C   UNL     1      -9.078 -11.572  15.298  0.00  0.00    +0.000 A 
ATOM     10  C   UNL     1      -8.918 -11.088  16.620  0.00  0.00    +0.000 A 
ATOM     11  H   UNL     1      -8.951  -8.382  18.772  0.00  0.00    +0.000 HD
ATOM     12  H   UNL     1      -8.293 -10.114  20.389  0.00  0.00    +0.000 HD
ATOM     13  H   UNL     1      -7.994 -12.441  19.654  0.00  0.00    +0.000 HD
ATOM     14  H   UNL     1      -8.011 -14.139  17.883  0.00  0.00    +0.000 HD
ATOM     15  H   UNL     1      -8.967 -13.284  13.990  0.00  0.00    +0.000 HD
ATOM     16  H   UNL     1      -9.367 -10.939  14.469  0.00  0.00    +0.000 HD
ENDROOT
BRANCH   1  17
ATOM     17  S   UNL     1      -9.516  -8.356  16.037  0.00  0.00    +0.000 S 
ATOM     18  O   UNL     1     -10.925  -8.054  16.106  0.00  0.00    +0.000 OA
ATOM     19  O   UNL     1      -8.863  -8.600  14.768  0.00  0.00    +0.000 OA
BRANCH  17  20
ATOM     20  N   UNL     1      -8.673  -7.077  16.772  0.00  0.00    +0.000 NA
ATOM     21  H   UNL     1      -8.239  -7.381  17.644  0.00  0.00    +0.000 HD
BRANCH  20  22
ATOM     22  C   UNL     1      -9.448  -5.831  16.989  0.00  0.00    +0.000 C 
ATOM     23  H   UNL     1      -8.841  -4.962  16.721  0.00  0.00    +0.000 HD
ATOM     24  H   UNL     1     -10.352  -5.848  16.373  0.00  0.00    +0.000 HD
BRANCH  22  25
ATOM     25  C   UNL     1      -9.827  -5.714  18.476  0.00  0.00    +0.000 C 
ATOM     26  H   UNL     1      -9.066  -6.200  19.099  0.00  0.00    +0.000 HD
ATOM     27  H   UNL     1      -9.854  -4.656  18.756  0.00  0.00    +0.000 HD
BRANCH  25  28
ATOM     28  N   UNL     1     -11.132  -6.322  18.772  0.00  0.00    +0.000 NA
ATOM     29  H   UNL     1     -11.177  -6.508  19.775  0.00  0.00    +0.000 HD
ATOM     30  H   UNL     1     -11.170  -7.245  18.339  0.00  0.00    +0.000 HD
ENDBRANCH  25  28
ENDBRANCH  22  25
ENDBRANCH  20  22
ENDBRANCH  17  20
ENDBRANCH   1  17
TORSDOF 5
ENDMDL
MODEL 4
REMARK VINA RESULT:    -7.997      1.871      3.329
REMARK INTER + INTRA:         -10.584
REMARK INTER:                  -9.969
REMARK INTRA:                  -0.615
REMARK UNBOUND:                -0.483
REMARK  Name = 
REMARK  5 active torsions:
REMARK  status: ('A' for Active; 'I' for Inactive)
REMARK    1  A    between atoms: N_1  and  C_2
REMARK    2  A    between atoms: C_2  and  C_3
REMARK    3  A    between atoms: C_3  and  N_4
REMARK    4  A    between atoms: N_4  and  S_5
REMARK    5  A    between atoms: S_5  and  C_8
REMARK                            x       y       z     vdW  Elec       q    Type
REMARK                         _______ _______ _______ _____ _____    ______ ____
ROOT
ATOM      1  C   UNL     1      -9.230  -8.779  18.002  0.00  0.00    +0.000 A 
ATOM      2  C   UNL     1      -8.849  -8.826  19.359  0.00  0.00    +0.000 A 
ATOM      3  C   UNL     1      -8.382 -10.003  19.927  0.00  0.00    +0.000 A 
ATOM      4  C   UNL     1      -8.277 -11.143  19.142  0.00  0.00    +0.000 A 
ATOM      5  C   UNL     1      -8.634 -11.119  17.782  0.00  0.00    +0.000 A 
ATOM      6  C   UNL     1      -8.499 -12.273  17.006  0.00  0.00    +0.000 A 
ATOM      7  N   UNL     1      -8.798 -12.360  15.694  0.00  0.00    +0.000 NA
ATOM      8  C   UNL     1      -9.252 -11.237  15.116  0.00  0.00    +0.000 A 
ATOM      9  C   UNL     1      -9.427 -10.036  15.791  0.00  0.00    +0.000 A 
ATOM     10  C   UNL     1      -9.121  -9.934  17.170  0.00  0.00    +0.000 A 
ATOM     11  H   UNL     1      -8.888  -7.930  19.979  0.00  0.00    +0.000 HD
ATOM     12  H   UNL     1      -8.083 -10.030  20.973  0.00  0.00    +0.000 HD
ATOM     13  H   UNL     1      -7.895 -12.057  19.595  0.00  0.00    +0.000 HD
ATOM     14  H   UNL     1      -8.124 -13.200  17.435  0.00  0.00    +0.000 HD
ATOM     15  H   UNL     1      -9.480 -11.317  14.057  0.00  0.00    +0.000 HD
ATOM     16  H   UNL     1      -9.795  -9.204  15.206  0.00  0.00    +0.000 HD
ENDROOT
BRANCH   1  17
ATOM     17  S   UNL     1      -9.742  -7.158  17.434  0.00  0.00    +0.000 S 
ATOM     18  O   UNL     1     -11.084  -7.187  16.903  0.00  0.00    +0.000 OA
ATOM     19  O   UNL     1      -8.638  -6.644  16.653  0.00  0.00    +0.000 OA
BRANCH  17  20
ATOM     20  N   UNL     1      -9.772  -6.256  18.874  0.00  0.00    +0.000 NA
ATOM     21  H   UNL     1     -10.730  -6.107  19.189  0.00  0.00    +0.000 HD
BRANCH  20  22
ATOM     22  C   UNL     1      -9.030  -4.972  18.849  0.00  0.00    +0.000 C 
ATOM     23  H   UNL     1      -8.815  -4.686  17.815  0.00  0.00    +0.000 HD
ATOM     24  H   UNL     1      -9.629  -4.191  19.326  0.00  0.00    +0.000 HD
BRANCH  22  25
ATOM     25  C   UNL     1      -7.692  -5.136  19.591  0.00  0.00    +0.000 C 
ATOM     26  H   UNL     1      -7.433  -4.207  20.112  0.00  0.00    +0.000 HD
ATOM     27  H   UNL     1      -7.797  -5.920  20.348  0.00  0.00    +0.000 HD
BRANCH  25  28
ATOM     28  N   UNL     1      -6.589  -5.488  18.687  0.00  0.00    +0.000 NA
ATOM     29  H   UNL     1      -6.846  -6.341  18.187  0.00  0.00    +0.000 HD
ATOM     30  H   UNL     1      -5.778  -5.755  19.246  0.00  0.00    +0.000 HD
ENDBRANCH  25  28
ENDBRANCH  22  25
ENDBRANCH  20  22
ENDBRANCH  17  20
ENDBRANCH   1  17
TORSDOF 5
ENDMDL
MODEL 5
REMARK VINA RESULT:    -7.944      1.815      2.987
REMARK INTER + INTRA:         -10.518
REMARK INTER:                 -10.034
REMARK INTRA:                  -0.484
REMARK UNBOUND:                -0.483
REMARK  Name = 
REMARK  5 active torsions:
REMARK  status: ('A' for Active; 'I' for Inactive)
REMARK    1  A    between atoms: N_1  and  C_2
REMARK    2  A    between atoms: C_2  and  C_3
REMARK    3  A    between atoms: C_3  and  N_4
REMARK    4  A    between atoms: N_4  and  S_5
REMARK    5  A    between atoms: S_5  and  C_8
REMARK                            x       y       z     vdW  Elec       q    Type
REMARK                         _______ _______ _______ _____ _____    ______ ____
ROOT
ATOM      1  C   UNL     1      -9.249  -8.781  17.999  0.00  0.00    +0.000 A 
ATOM      2  C   UNL     1      -8.843  -8.896  19.345  0.00  0.00    +0.000 A 
ATOM      3  C   UNL     1      -8.371 -10.102  19.846  0.00  0.00    +0.000 A 
ATOM      4  C   UNL     1      -8.286 -11.202  19.004  0.00  0.00    +0.000 A 
ATOM      5  C   UNL     1      -8.668 -11.110  17.655  0.00  0.00    +0.000 A 
ATOM      6  C   UNL     1      -8.553 -12.225  16.821  0.00  0.00    +0.000 A 
ATOM      7  N   UNL     1      -8.877 -12.247  15.512  0.00  0.00    +0.000 NA
ATOM      8  C   UNL     1      -9.335 -11.095  14.998  0.00  0.00    +0.000 A 
ATOM      9  C   UNL     1      -9.493  -9.928  15.734  0.00  0.00    +0.000 A 
ATOM     10  C   UNL     1      -9.160  -9.895  17.110  0.00  0.00    +0.000 A 
ATOM     11  H   UNL     1      -8.866  -8.031  20.009  0.00  0.00    +0.000 HD
ATOM     12  H   UNL     1      -8.053 -10.181  20.884  0.00  0.00    +0.000 HD
ATOM     13  H   UNL     1      -7.900 -12.139  19.405  0.00  0.00    +0.000 HD
ATOM     14  H   UNL     1      -8.174 -13.173  17.197  0.00  0.00    +0.000 HD
ATOM     15  H   UNL     1      -9.583 -11.123  13.940  0.00  0.00    +0.000 HD
ATOM     16  H   UNL     1      -9.868  -9.067  15.197  0.00  0.00    +0.000 HD
ENDROOT
BRANCH   1  17
ATOM     17  S   UNL     1      -9.764  -7.133  17.521  0.00  0.00    +0.000 S 
ATOM     18  O   UNL     1     -11.150  -7.111  17.119  0.00  0.00    +0.000 OA
ATOM     19  O   UNL     1      -8.723  -6.628  16.651  0.00  0.00    +0.000 OA
BRANCH  17  20
ATOM     20  N   UNL     1      -9.632  -6.269  18.978  0.00  0.00    +0.000 NA
ATOM     21  H   UNL     1     -10.524  -6.252  19.472  0.00  0.00    +0.000 HD
BRANCH  20  22
ATOM     22  C   UNL     1      -9.075  -4.898  18.870  0.00  0.00    +0.000 C 
ATOM     23  H   UNL     1      -8.637  -4.597  19.826  0.00  0.00    +0.000 HD
ATOM     24  H   UNL     1      -8.305  -4.874  18.093  0.00  0.00    +0.000 HD
BRANCH  22  25
ATOM     25  C   UNL     1     -10.203  -3.911  18.524  0.00  0.00    +0.000 C 
ATOM     26  H   UNL     1     -10.041  -2.956  19.041  0.00  0.00    +0.000 HD
ATOM     27  H   UNL     1     -10.185  -3.710  17.448  0.00  0.00    +0.000 HD
BRANCH  25  28
ATOM     28  N   UNL     1     -11.530  -4.423  18.894  0.00  0.00    +0.000 NA
ATOM     29  H   UNL     1     -11.426  -5.396  19.186  0.00  0.00    +0.000 HD
ATOM     30  H   UNL     1     -12.110  -4.469  18.056  0.00  0.00    +0.000 HD
ENDBRANCH  25  28
ENDBRANCH  22  25
ENDBRANCH  20  22
ENDBRANCH  17  20
ENDBRANCH   1  17
TORSDOF 5
ENDMDL
MODEL 6
REMARK VINA RESULT:    -7.872      1.211      1.847
REMARK INTER + INTRA:         -10.426
REMARK INTER:                 -10.220
REMARK INTRA:                  -0.206
REMARK UNBOUND:                -0.483
REMARK  Name = 
REMARK  5 active torsions:
REMARK  status: ('A' for Active; 'I' for Inactive)
REMARK    1  A    between atoms: N_1  and  C_2
REMARK    2  A    between atoms: C_2  and  C_3
REMARK    3  A    between atoms: C_3  and  N_4
REMARK    4  A    between atoms: N_4  and  S_5
REMARK    5  A    between atoms: S_5  and  C_8
REMARK                            x       y       z     vdW  Elec       q    Type
REMARK                         _______ _______ _______ _____ _____    ______ ____
ROOT
ATOM      1  C   UNL     1      -9.201  -9.338  16.768  0.00  0.00    +0.000 A 
ATOM      2  C   UNL     1      -9.309  -8.881  15.438  0.00  0.00    +0.000 A 
ATOM      3  C   UNL     1      -9.102  -9.742  14.370  0.00  0.00    +0.000 A 
ATOM      4  C   UNL     1      -8.798 -11.074  14.618  0.00  0.00    +0.000 A 
ATOM      5  C   UNL     1      -8.700 -11.559  15.934  0.00  0.00    +0.000 A 
ATOM      6  C   UNL     1      -8.414 -12.908  16.159  0.00  0.00    +0.000 A 
ATOM      7  N   UNL     1      -8.310 -13.483  17.374  0.00  0.00    +0.000 NA
ATOM      8  C   UNL     1      -8.506 -12.675  18.428  0.00  0.00    +0.000 A 
ATOM      9  C   UNL     1      -8.793 -11.320  18.322  0.00  0.00    +0.000 A 
ATOM     10  C   UNL     1      -8.900 -10.705  17.050  0.00  0.00    +0.000 A 
ATOM     11  H   UNL     1      -9.587  -7.848  15.227  0.00  0.00    +0.000 HD
ATOM     12  H   UNL     1      -9.194  -9.384  13.347  0.00  0.00    +0.000 HD
ATOM     13  H   UNL     1      -8.652 -11.744  13.771  0.00  0.00    +0.000 HD
ATOM     14  H   UNL     1      -8.261 -13.597  15.331  0.00  0.00    +0.000 HD
ATOM     15  H   UNL     1      -8.430 -13.152  19.402  0.00  0.00    +0.000 HD
ATOM     16  H   UNL     1      -8.934 -10.783  19.250  0.00  0.00    +0.000 HD
ENDROOT
BRANCH   1  17
ATOM     17  S   UNL     1      -9.569  -8.098  18.008  0.00  0.00    +0.000 S 
ATOM     18  O   UNL     1      -9.035  -8.470  19.297  0.00  0.00    +0.000 OA
ATOM     19  O   UNL     1     -10.970  -7.775  17.843  0.00  0.00    +0.000 OA
BRANCH  17  20
ATOM     20  N   UNL     1      -8.696  -6.751  17.452  0.00  0.00    +0.000 NA
ATOM     21  H   UNL     1      -7.692  -6.926  17.495  0.00  0.00    +0.000 HD
BRANCH  20  22
ATOM     22  C   UNL     1      -9.023  -5.457  18.098  0.00  0.00    +0.000 C 
ATOM     23  H   UNL     1      -9.034  -4.659  17.350  0.00  0.00    +0.000 HD
ATOM     24  H   UNL     1     -10.005  -5.521  18.576  0.00  0.00    +0.000 HD
BRANCH  22  25
ATOM     25  C   UNL     1      -7.948  -5.119  19.146  0.00  0.00    +0.000 C 
ATOM     26  H   UNL     1      -6.984  -5.552  18.851  0.00  0.00    +0.000 HD
ATOM     27  H   UNL     1      -7.821  -4.032  19.190  0.00  0.00    +0.000 HD
BRANCH  25  28
ATOM     28  N   UNL     1      -8.294  -5.616  20.484  0.00  0.00    +0.000 NA
ATOM     29  H   UNL     1      -9.266  -5.370  20.675  0.00  0.00    +0.000 HD
ATOM     30  H   UNL     1      -7.758  -5.092  21.178  0.00  0.00    +0.000 HD
ENDBRANCH  25  28
ENDBRANCH  22  25
ENDBRANCH  20  22
ENDBRANCH  17  20
ENDBRANCH   1  17
TORSDOF 5
ENDMDL
MODEL 7
REMARK VINA RESULT:    -7.545      1.742      2.888
REMARK INTER + INTRA:         -10.013
REMARK INTER:                  -9.658
REMARK INTRA:                  -0.355
REMARK UNBOUND:                -0.483
REMARK  Name = 
REMARK  5 active torsions:
REMARK  status: ('A' for Active; 'I' for Inactive)
REMARK    1  A    between atoms: N_1  and  C_2
REMARK    2  A    between atoms: C_2  and  C_3
REMARK    3  A    between atoms: C_3  and  N_4
REMARK    4  A    between atoms: N_4  and  S_5
REMARK    5  A    between atoms: S_5  and  C_8
REMARK                            x       y       z     vdW  Elec       q    Type
REMARK                         _______ _______ _______ _____ _____    ______ ____
ROOT
ATOM      1  C   UNL     1      -9.012  -8.788  18.058  0.00  0.00    +0.000 A 
ATOM      2  C   UNL     1      -8.659  -9.243  19.345  0.00  0.00    +0.000 A 
ATOM      3  C   UNL     1      -8.390 -10.585  19.578  0.00  0.00    +0.000 A 
ATOM      4  C   UNL     1      -8.456 -11.486  18.523  0.00  0.00    +0.000 A 
ATOM      5  C   UNL     1      -8.788 -11.055  17.227  0.00  0.00    +0.000 A 
ATOM      6  C   UNL     1      -8.827 -11.976  16.176  0.00  0.00    +0.000 A 
ATOM      7  N   UNL     1      -9.121 -11.674  14.895  0.00  0.00    +0.000 NA
ATOM      8  C   UNL     1      -9.386 -10.383  14.639  0.00  0.00    +0.000 A 
ATOM      9  C   UNL     1      -9.378  -9.385  15.605  0.00  0.00    +0.000 A 
ATOM     10  C   UNL     1      -9.076  -9.692  16.954  0.00  0.00    +0.000 A 
ATOM     11  H   UNL     1      -8.564  -8.543  20.176  0.00  0.00    +0.000 HD
ATOM     12  H   UNL     1      -8.111 -10.928  20.572  0.00  0.00    +0.000 HD
ATOM     13  H   UNL     1      -8.227 -12.533  18.715  0.00  0.00    +0.000 HD
ATOM     14  H   UNL     1      -8.607 -13.029  16.341  0.00  0.00    +0.000 HD
ATOM     15  H   UNL     1      -9.611 -10.150  13.602  0.00  0.00    +0.000 HD
ATOM     16  H   UNL     1      -9.604  -8.383  15.264  0.00  0.00    +0.000 HD
ENDROOT
BRANCH   1  17
ATOM     17  S   UNL     1      -9.256  -7.017  17.941  0.00  0.00    +0.000 S 
ATOM     18  O   UNL     1      -8.501  -6.454  16.847  0.00  0.00    +0.000 OA
ATOM     19  O   UNL     1      -9.118  -6.507  19.288  0.00  0.00    +0.000 OA
BRANCH  17  20
ATOM     20  N   UNL     1     -10.905  -6.898  17.550  0.00  0.00    +0.000 NA
ATOM     21  H   UNL     1     -11.271  -7.799  17.242  0.00  0.00    +0.000 HD
BRANCH  20  22
ATOM     22  C   UNL     1     -11.265  -5.836  16.580  0.00  0.00    +0.000 C 
ATOM     23  H   UNL     1     -10.479  -5.737  15.825  0.00  0.00    +0.000 HD
ATOM     24  H   UNL     1     -12.209  -6.090  16.089  0.00  0.00    +0.000 HD
BRANCH  22  25
ATOM     25  C   UNL     1     -11.398  -4.491  17.315  0.00  0.00    +0.000 C 
ATOM     26  H   UNL     1     -10.495  -3.886  17.163  0.00  0.00    +0.000 HD
ATOM     27  H   UNL     1     -12.241  -3.935  16.893  0.00  0.00    +0.000 HD
BRANCH  25  28
ATOM     28  N   UNL     1     -11.610  -4.660  18.759  0.00  0.00    +0.000 NA
ATOM     29  H   UNL     1     -11.627  -5.660  18.964  0.00  0.00    +0.000 HD
ATOM     30  H   UNL     1     -12.548  -4.335  18.993  0.00  0.00    +0.000 HD
ENDBRANCH  25  28
ENDBRANCH  22  25
ENDBRANCH  20  22
ENDBRANCH  17  20
ENDBRANCH   1  17
TORSDOF 5
ENDMDL
MODEL 8
REMARK VINA RESULT:    -7.390      2.483      5.763
REMARK INTER + INTRA:          -9.818
REMARK INTER:                  -9.546
REMARK INTRA:                  -0.272
REMARK UNBOUND:                -0.483
REMARK  Name = 
REMARK  5 active torsions:
REMARK  status: ('A' for Active; 'I' for Inactive)
REMARK    1  A    between atoms: N_1  and  C_2
REMARK    2  A    between atoms: C_2  and  C_3
REMARK    3  A    between atoms: C_3  and  N_4
REMARK    4  A    between atoms: N_4  and  S_5
REMARK    5  A    between atoms: S_5  and  C_8
REMARK                            x       y       z     vdW  Elec       q    Type
REMARK                         _______ _______ _______ _____ _____    ______ ____
ROOT
ATOM      1  C   UNL     1      -8.987  -9.479  17.528  0.00  0.00    +0.000 A 
ATOM      2  C   UNL     1      -8.737 -10.583  18.368  0.00  0.00    +0.000 A 
ATOM      3  C   UNL     1      -8.387 -10.401  19.699  0.00  0.00    +0.000 A 
ATOM      4  C   UNL     1      -8.297  -9.113  20.209  0.00  0.00    +0.000 A 
ATOM      5  C   UNL     1      -8.557  -7.995  19.397  0.00  0.00    +0.000 A 
ATOM      6  C   UNL     1      -8.481  -6.709  19.938  0.00  0.00    +0.000 A 
ATOM      7  N   UNL     1      -8.722  -5.570  19.257  0.00  0.00    +0.000 NA
ATOM      8  C   UNL     1      -9.064  -5.714  17.967  0.00  0.00    +0.000 A 
ATOM      9  C   UNL     1      -9.167  -6.942  17.327  0.00  0.00    +0.000 A 
ATOM     10  C   UNL     1      -8.912  -8.145  18.031  0.00  0.00    +0.000 A 
ATOM     11  H   UNL     1      -8.843 -11.602  17.994  0.00  0.00    +0.000 HD
ATOM     12  H   UNL     1      -8.202 -11.258  20.343  0.00  0.00    +0.000 HD
ATOM     13  H   UNL     1      -8.036  -8.983  21.258  0.00  0.00    +0.000 HD
ATOM     14  H   UNL     1      -8.219  -6.551  20.982  0.00  0.00    +0.000 HD
ATOM     15  H   UNL     1      -9.266  -4.790  17.432  0.00  0.00    +0.000 HD
ATOM     16  H   UNL     1      -9.458  -6.919  16.284  0.00  0.00    +0.000 HD
ENDROOT
BRANCH   1  17
ATOM     17  S   UNL     1      -9.491  -9.915  15.864  0.00  0.00    +0.000 S 
ATOM     18  O   UNL     1      -8.483  -9.548  14.897  0.00  0.00    +0.000 OA
ATOM     19  O   UNL     1     -10.858  -9.461  15.731  0.00  0.00    +0.000 OA
BRANCH  17  20
ATOM     20  N   UNL     1      -9.553 -11.611  15.932  0.00  0.00    +0.000 NA
ATOM     21  H   UNL     1      -9.424 -11.942  16.888  0.00  0.00    +0.000 HD
BRANCH  20  22
ATOM     22  C   UNL     1      -8.639 -12.329  15.010  0.00  0.00    +0.000 C 
ATOM     23  H   UNL     1      -9.079 -12.377  14.010  0.00  0.00    +0.000 HD
ATOM     24  H   UNL     1      -7.679 -11.805  14.960  0.00  0.00    +0.000 HD
BRANCH  22  25
ATOM     25  C   UNL     1      -8.428 -13.768  15.513  0.00  0.00    +0.000 C 
ATOM     26  H   UNL     1      -7.357 -14.008  15.532  0.00  0.00    +0.000 HD
ATOM     27  H   UNL     1      -8.801 -13.847  16.539  0.00  0.00    +0.000 HD
BRANCH  25  28
ATOM     28  N   UNL     1      -9.114 -14.761  14.675  0.00  0.00    +0.000 NA
ATOM     29  H   UNL     1      -9.684 -14.262  13.990  0.00  0.00    +0.000 HD
ATOM     30  H   UNL     1      -9.790 -15.265  15.251  0.00  0.00    +0.000 HD
ENDBRANCH  25  28
ENDBRANCH  22  25
ENDBRANCH  20  22
ENDBRANCH  17  20
ENDBRANCH   1  17
TORSDOF 5
ENDMDL
MODEL 9
REMARK VINA RESULT:    -7.013      2.101      3.199
REMARK INTER + INTRA:          -9.342
REMARK INTER:                  -9.698
REMARK INTRA:                   0.356
REMARK UNBOUND:                -0.483
REMARK  Name = 
REMARK  5 active torsions:
REMARK  status: ('A' for Active; 'I' for Inactive)
REMARK    1  A    between atoms: N_1  and  C_2
REMARK    2  A    between atoms: C_2  and  C_3
REMARK    3  A    between atoms: C_3  and  N_4
REMARK    4  A    between atoms: N_4  and  S_5
REMARK    5  A    between atoms: S_5  and  C_8
REMARK                            x       y       z     vdW  Elec       q    Type
REMARK                         _______ _______ _______ _____ _____    ______ ____
ROOT
ATOM      1  C   UNL     1      -9.118  -9.250  16.654  0.00  0.00    +0.000 A 
ATOM      2  C   UNL     1      -9.219  -8.756  15.338  0.00  0.00    +0.000 A 
ATOM      3  C   UNL     1      -9.072  -9.600  14.246  0.00  0.00    +0.000 A 
ATOM      4  C   UNL     1      -8.836 -10.952  14.458  0.00  0.00    +0.000 A 
ATOM      5  C   UNL     1      -8.748 -11.474  15.760  0.00  0.00    +0.000 A 
ATOM      6  C   UNL     1      -8.532 -12.841  15.949  0.00  0.00    +0.000 A 
ATOM      7  N   UNL     1      -8.443 -13.450  17.150  0.00  0.00    +0.000 NA
ATOM      8  C   UNL     1      -8.582 -12.659  18.225  0.00  0.00    +0.000 A 
ATOM      9  C   UNL     1      -8.797 -11.288  18.154  0.00  0.00    +0.000 A 
ATOM     10  C   UNL     1      -8.888 -10.638  16.899  0.00  0.00    +0.000 A 
ATOM     11  H   UNL     1      -9.444  -7.704  15.154  0.00  0.00    +0.000 HD
ATOM     12  H   UNL     1      -9.158  -9.213  13.233  0.00  0.00    +0.000 HD
ATOM     13  H   UNL     1      -8.737 -11.608  13.594  0.00  0.00    +0.000 HD
ATOM     14  H   UNL     1      -8.426 -13.517  15.103  0.00  0.00    +0.000 HD
ATOM     15  H   UNL     1      -8.518 -13.163  19.186  0.00  0.00    +0.000 HD
ATOM     16  H   UNL     1      -8.898 -10.768  19.097  0.00  0.00    +0.000 HD
ENDROOT
BRANCH   1  17
ATOM     17  S   UNL     1      -9.404  -8.023  17.929  0.00  0.00    +0.000 S 
ATOM     18  O   UNL     1     -10.753  -8.099  18.438  0.00  0.00    +0.000 OA
ATOM     19  O   UNL     1      -8.867  -6.783  17.414  0.00  0.00    +0.000 OA
BRANCH  17  20
ATOM     20  N   UNL     1      -8.352  -8.526  19.165  0.00  0.00    +0.000 NA
ATOM     21  H   UNL     1      -7.882  -9.394  18.911  0.00  0.00    +0.000 HD
BRANCH  20  22
ATOM     22  C   UNL     1      -8.951  -8.640  20.517  0.00  0.00    +0.000 C 
ATOM     23  H   UNL     1      -8.593  -7.825  21.154  0.00  0.00    +0.000 HD
ATOM     24  H   UNL     1     -10.042  -8.590  20.443  0.00  0.00    +0.000 HD
BRANCH  22  25
ATOM     25  C   UNL     1      -8.527  -9.973  21.157  0.00  0.00    +0.000 C 
ATOM     26  H   UNL     1      -8.941 -10.814  20.587  0.00  0.00    +0.000 HD
ATOM     27  H   UNL     1      -7.435 -10.056  21.118  0.00  0.00    +0.000 HD
BRANCH  25  28
ATOM     28  N   UNL     1      -8.968 -10.091  22.553  0.00  0.00    +0.000 NA
ATOM     29  H   UNL     1      -8.400  -9.460  23.121  0.00  0.00    +0.000 HD
ATOM     30  H   UNL     1      -8.732 -11.023  22.895  0.00  0.00    +0.000 HD
ENDBRANCH  25  28
ENDBRANCH  22  25
ENDBRANCH  20  22
ENDBRANCH  17  20
ENDBRANCH   1  17
TORSDOF 5
ENDMDL
