MODEL 1
REMARK VINA RESULT:   -12.129      0.000      0.000
REMARK INTER + INTRA:         -13.237
REMARK INTER:                 -13.192
REMARK INTRA:                  -0.044
REMARK UNBOUND:                -0.044
REMARK  Name = 
REMARK  2 active torsions:
REMARK  status: ('A' for Active; 'I' for Inactive)
REMARK    1  A    between atoms: C_1  and  O_2
REMARK    2  A    between atoms: O_2  and  C_3
REMARK                            x       y       z     vdW  Elec       q    Type
REMARK                         _______ _______ _______ _____ _____    ______ ____
ROOT
ATOM      1  C   UNL     1     -10.982  -3.326  15.931  0.00  0.00    +0.000 A 
ATOM      2  C   UNL     1     -10.449  -3.266  17.217  0.00  0.00    +0.000 A 
ATOM      3  C   UNL     1      -9.981  -4.419  17.869  0.00  0.00    +0.000 A 
ATOM      4  C   UNL     1     -10.036  -5.656  17.211  0.00  0.00    +0.000 A 
ATOM      5  C   UNL     1     -10.550  -5.686  15.900  0.00  0.00    +0.000 A 
ATOM      6  C   UNL     1     -11.043  -4.544  15.256  0.00  0.00    +0.000 A 
ATOM      7  N   UNL     1     -10.490  -6.979  15.421  0.00  0.00    +0.000 N 
ATOM      8  C   UNL     1      -9.945  -7.822  16.358  0.00  0.00    +0.000 A 
ATOM      9  C   UNL     1      -9.618  -9.185  16.313  0.00  0.00    +0.000 A 
ATOM     10  C   UNL     1      -9.699  -9.886  15.102  0.00  0.00    +0.000 A 
ATOM     11  C   UNL     1      -9.231 -11.196  15.031  0.00  0.00    +0.000 A 
ATOM     12  C   UNL     1      -8.875 -11.860  16.217  0.00  0.00    +0.000 A 
ATOM     13  C   UNL     1      -8.401 -13.168  16.488  0.00  0.00    +0.000 A 
ATOM     14  C   UNL     1      -8.574 -13.374  17.835  0.00  0.00    +0.000 A 
ATOM     15  N   UNL     1      -8.802 -12.151  18.413  0.00  0.00    +0.000 N 
ATOM     16  C   UNL     1      -8.952 -11.182  17.441  0.00  0.00    +0.000 A 
ATOM     17  C   UNL     1      -9.176  -9.796  17.511  0.00  0.00    +0.000 A 
ATOM     18  C   UNL     1      -8.964  -8.955  18.617  0.00  0.00    +0.000 A 
ATOM     19  C   UNL     1      -9.173  -7.543  18.622  0.00  0.00    +0.000 A 
ATOM     20  C   UNL     1      -9.724  -7.005  17.438  0.00  0.00    +0.000 A 
ATOM     21  C   UNL     1      -8.726  -6.997  19.869  0.00  0.00    +0.000 C 
ATOM     22  O   UNL     1      -8.690  -5.867  20.344  0.00  0.00    +0.000 OA
ATOM     23  N   UNL     1      -8.282  -8.102  20.539  0.00  0.00    +0.000 N 
ATOM     24  C   UNL     1      -8.410  -9.306  19.900  0.00  0.00    +0.000 C 
ATOM     25  O   UNL     1      -8.106 -10.376  20.415  0.00  0.00    +0.000 OA
ATOM     26  H   UNL     1     -10.378  -2.328  17.758  0.00  0.00    +0.000 HD
ATOM     27  H   UNL     1      -9.574  -4.326  18.866  0.00  0.00    +0.000 HD
ATOM     28  H   UNL     1     -11.453  -4.597  14.253  0.00  0.00    +0.000 HD
ATOM     29  H   UNL     1     -10.807  -7.255  14.505  0.00  0.00    +0.000 HD
ATOM     30  H   UNL     1     -10.057  -9.416  14.192  0.00  0.00    +0.000 HD
ATOM     31  H   UNL     1      -9.207 -11.720  14.080  0.00  0.00    +0.000 HD
ATOM     32  H   UNL     1      -8.103 -13.913  15.762  0.00  0.00    +0.000 HD
ATOM     33  H   UNL     1      -8.531 -14.275  18.431  0.00  0.00    +0.000 HD
ATOM     34  H   UNL     1      -8.908 -11.984  19.407  0.00  0.00    +0.000 HD
ATOM     35  H   UNL     1      -7.893  -8.031  21.467  0.00  0.00    +0.000 HD
ENDROOT
BRANCH   1  36
ATOM     36  O   UNL     1     -11.471  -2.275  15.208  0.00  0.00    +0.000 OA
BRANCH  36  37
ATOM     37  C   UNL     1     -12.570  -1.569  15.765  0.00  0.00    +0.000 C 
ATOM     38  H   UNL     1     -12.377  -1.435  16.833  0.00  0.00    +0.000 HD
ATOM     39  H   UNL     1     -13.495  -2.146  15.664  0.00  0.00    +0.000 HD
ATOM     40  H   UNL     1     -12.672  -0.576  15.317  0.00  0.00    +0.000 HD
ENDBRANCH  36  37
ENDBRANCH   1  36
TORSDOF 2
ENDMDL
MODEL 2
REMARK VINA RESULT:   -11.082      2.458      4.284
REMARK INTER + INTRA:         -12.098
REMARK INTER:                 -12.032
REMARK INTRA:                  -0.066
REMARK UNBOUND:                -0.044
REMARK  Name = 
REMARK  2 active torsions:
REMARK  status: ('A' for Active; 'I' for Inactive)
REMARK    1  A    between atoms: C_1  and  O_2
REMARK    2  A    between atoms: O_2  and  C_3
REMARK                            x       y       z     vdW  Elec       q    Type
REMARK                         _______ _______ _______ _____ _____    ______ ____
ROOT
ATOM      1  C   UNL     1      -8.738  -2.408  20.615  0.00  0.00    +0.000 A 
ATOM      2  C   UNL     1      -9.634  -2.332  19.552  0.00  0.00    +0.000 A 
ATOM      3  C   UNL     1      -9.951  -3.464  18.781  0.00  0.00    +0.000 A 
ATOM      4  C   UNL     1      -9.366  -4.699  19.094  0.00  0.00    +0.000 A 
ATOM      5  C   UNL     1      -8.487  -4.756  20.192  0.00  0.00    +0.000 A 
ATOM      6  C   UNL     1      -8.147  -3.626  20.947  0.00  0.00    +0.000 A 
ATOM      7  N   UNL     1      -8.047  -6.054  20.351  0.00  0.00    +0.000 N 
ATOM      8  C   UNL     1      -8.605  -6.879  19.406  0.00  0.00    +0.000 A 
ATOM      9  C   UNL     1      -8.522  -8.264  19.205  0.00  0.00    +0.000 A 
ATOM     10  C   UNL     1      -7.889  -9.074  20.159  0.00  0.00    +0.000 A 
ATOM     11  C   UNL     1      -7.941 -10.460  20.030  0.00  0.00    +0.000 A 
ATOM     12  C   UNL     1      -8.451 -11.017  18.845  0.00  0.00    +0.000 A 
ATOM     13  C   UNL     1      -8.614 -12.353  18.397  0.00  0.00    +0.000 A 
ATOM     14  C   UNL     1      -8.813 -12.287  17.040  0.00  0.00    +0.000 A 
ATOM     15  N   UNL     1      -9.112 -10.985  16.730  0.00  0.00    +0.000 N 
ATOM     16  C   UNL     1      -8.938 -10.177  17.836  0.00  0.00    +0.000 A 
ATOM     17  C   UNL     1      -9.128  -8.799  18.043  0.00  0.00    +0.000 A 
ATOM     18  C   UNL     1      -9.887  -7.918  17.255  0.00  0.00    +0.000 A 
ATOM     19  C   UNL     1     -10.078  -6.530  17.533  0.00  0.00    +0.000 A 
ATOM     20  C   UNL     1      -9.357  -6.025  18.638  0.00  0.00    +0.000 A 
ATOM     21  C   UNL     1     -11.015  -5.979  16.599  0.00  0.00    +0.000 C 
ATOM     22  O   UNL     1     -11.498  -4.865  16.429  0.00  0.00    +0.000 OA
ATOM     23  N   UNL     1     -11.328  -7.055  15.817  0.00  0.00    +0.000 N 
ATOM     24  C   UNL     1     -10.692  -8.233  16.102  0.00  0.00    +0.000 C 
ATOM     25  O   UNL     1     -10.839  -9.254  15.439  0.00  0.00    +0.000 OA
ATOM     26  H   UNL     1     -10.118  -1.399  19.283  0.00  0.00    +0.000 HD
ATOM     27  H   UNL     1     -10.653  -3.360  17.966  0.00  0.00    +0.000 HD
ATOM     28  H   UNL     1      -7.451  -3.692  21.777  0.00  0.00    +0.000 HD
ATOM     29  H   UNL     1      -7.402  -6.346  21.069  0.00  0.00    +0.000 HD
ATOM     30  H   UNL     1      -7.409  -8.655  21.037  0.00  0.00    +0.000 HD
ATOM     31  H   UNL     1      -7.530 -11.099  20.806  0.00  0.00    +0.000 HD
ATOM     32  H   UNL     1      -8.463 -13.254  18.977  0.00  0.00    +0.000 HD
ATOM     33  H   UNL     1      -8.793 -13.053  16.278  0.00  0.00    +0.000 HD
ATOM     34  H   UNL     1      -9.364 -10.645  15.809  0.00  0.00    +0.000 HD
ATOM     35  H   UNL     1     -11.987  -6.977  15.057  0.00  0.00    +0.000 HD
ENDROOT
BRANCH   1  36
ATOM     36  O   UNL     1      -8.353  -1.375  21.423  0.00  0.00    +0.000 OA
BRANCH  36  37
ATOM     37  C   UNL     1      -7.533  -1.702  22.536  0.00  0.00    +0.000 C 
ATOM     38  H   UNL     1      -6.756  -0.936  22.616  0.00  0.00    +0.000 HD
ATOM     39  H   UNL     1      -7.037  -2.665  22.384  0.00  0.00    +0.000 HD
ATOM     40  H   UNL     1      -8.107  -1.694  23.468  0.00  0.00    +0.000 HD
ENDBRANCH  36  37
ENDBRANCH   1  36
TORSDOF 2
ENDMDL
MODEL 3
REMARK VINA RESULT:   -11.073      1.798      6.746
REMARK INTER + INTRA:         -12.088
REMARK INTER:                 -12.038
REMARK INTRA:                  -0.050
REMARK UNBOUND:                -0.044
REMARK  Name = 
REMARK  2 active torsions:
REMARK  status: ('A' for Active; 'I' for Inactive)
REMARK    1  A    between atoms: C_1  and  O_2
REMARK    2  A    between atoms: O_2  and  C_3
REMARK                            x       y       z     vdW  Elec       q    Type
REMARK                         _______ _______ _______ _____ _____    ______ ____
ROOT
ATOM      1  C   UNL     1      -8.920 -12.409  15.672  0.00  0.00    +0.000 A 
ATOM      2  C   UNL     1      -8.518 -12.326  17.003  0.00  0.00    +0.000 A 
ATOM      3  C   UNL     1      -8.520 -11.101  17.692  0.00  0.00    +0.000 A 
ATOM      4  C   UNL     1      -8.949  -9.940  17.037  0.00  0.00    +0.000 A 
ATOM      5  C   UNL     1      -9.380 -10.055  15.701  0.00  0.00    +0.000 A 
ATOM      6  C   UNL     1      -9.354 -11.267  15.001  0.00  0.00    +0.000 A 
ATOM      7  N   UNL     1      -9.788  -8.815  15.250  0.00  0.00    +0.000 N 
ATOM      8  C   UNL     1      -9.657  -7.869  16.236  0.00  0.00    +0.000 A 
ATOM      9  C   UNL     1      -9.999  -6.510  16.281  0.00  0.00    +0.000 A 
ATOM     10  C   UNL     1     -10.735  -5.937  15.233  0.00  0.00    +0.000 A 
ATOM     11  C   UNL     1     -11.201  -4.630  15.352  0.00  0.00    +0.000 A 
ATOM     12  C   UNL     1     -10.756  -3.841  16.427  0.00  0.00    +0.000 A 
ATOM     13  C   UNL     1     -11.011  -2.501  16.813  0.00  0.00    +0.000 A 
ATOM     14  C   UNL     1     -10.036  -2.164  17.719  0.00  0.00    +0.000 A 
ATOM     15  N   UNL     1      -9.440  -3.328  18.134  0.00  0.00    +0.000 N 
ATOM     16  C   UNL     1      -9.894  -4.393  17.383  0.00  0.00    +0.000 A 
ATOM     17  C   UNL     1      -9.613  -5.770  17.424  0.00  0.00    +0.000 A 
ATOM     18  C   UNL     1      -9.041  -6.490  18.487  0.00  0.00    +0.000 A 
ATOM     19  C   UNL     1      -8.811  -7.899  18.490  0.00  0.00    +0.000 A 
ATOM     20  C   UNL     1      -9.108  -8.567  17.282  0.00  0.00    +0.000 A 
ATOM     21  C   UNL     1      -8.345  -8.305  19.783  0.00  0.00    +0.000 C 
ATOM     22  O   UNL     1      -8.022  -9.381  20.277  0.00  0.00    +0.000 OA
ATOM     23  N   UNL     1      -8.315  -7.128  20.476  0.00  0.00    +0.000 N 
ATOM     24  C   UNL     1      -8.675  -5.998  19.791  0.00  0.00    +0.000 C 
ATOM     25  O   UNL     1      -8.633  -4.874  20.279  0.00  0.00    +0.000 OA
ATOM     26  H   UNL     1      -8.189 -13.202  17.551  0.00  0.00    +0.000 HD
ATOM     27  H   UNL     1      -8.202 -11.084  18.725  0.00  0.00    +0.000 HD
ATOM     28  H   UNL     1      -9.673 -11.326  13.965  0.00  0.00    +0.000 HD
ATOM     29  H   UNL     1     -10.134  -8.641  14.319  0.00  0.00    +0.000 HD
ATOM     30  H   UNL     1     -11.010  -6.505  14.351  0.00  0.00    +0.000 HD
ATOM     31  H   UNL     1     -11.843  -4.204  14.587  0.00  0.00    +0.000 HD
ATOM     32  H   UNL     1     -11.735  -1.827  16.374  0.00  0.00    +0.000 HD
ATOM     33  H   UNL     1      -9.735  -1.207  18.121  0.00  0.00    +0.000 HD
ATOM     34  H   UNL     1      -8.722  -3.396  18.847  0.00  0.00    +0.000 HD
ATOM     35  H   UNL     1      -8.028  -7.095  21.442  0.00  0.00    +0.000 HD
ENDROOT
BRANCH   1  36
ATOM     36  O   UNL     1      -8.950 -13.539  14.905  0.00  0.00    +0.000 OA
BRANCH  36  37
ATOM     37  C   UNL     1      -8.920 -14.782  15.591  0.00  0.00    +0.000 C 
ATOM     38  H   UNL     1      -8.074 -14.762  16.284  0.00  0.00    +0.000 HD
ATOM     39  H   UNL     1      -8.759 -15.609  14.892  0.00  0.00    +0.000 HD
ATOM     40  H   UNL     1      -9.830 -14.932  16.180  0.00  0.00    +0.000 HD
ENDBRANCH  36  37
ENDBRANCH   1  36
TORSDOF 2
ENDMDL
MODEL 4
REMARK VINA RESULT:   -10.455      2.656      4.521
REMARK INTER + INTRA:         -11.416
REMARK INTER:                 -11.373
REMARK INTRA:                  -0.043
REMARK UNBOUND:                -0.044
REMARK  Name = 
REMARK  2 active torsions:
REMARK  status: ('A' for Active; 'I' for Inactive)
REMARK    1  A    between atoms: C_1  and  O_2
REMARK    2  A    between atoms: O_2  and  C_3
REMARK                            x       y       z     vdW  Elec       q    Type
REMARK                         _______ _______ _______ _____ _____    ______ ____
ROOT
ATOM      1  C   UNL     1      -8.276  -5.361  20.371  0.00  0.00    +0.000 A 
ATOM      2  C   UNL     1      -8.569  -4.967  19.068  0.00  0.00    +0.000 A 
ATOM      3  C   UNL     1      -8.709  -5.909  18.034  0.00  0.00    +0.000 A 
ATOM      4  C   UNL     1      -8.565  -7.274  18.318  0.00  0.00    +0.000 A 
ATOM      5  C   UNL     1      -8.298  -7.648  19.649  0.00  0.00    +0.000 A 
ATOM      6  C   UNL     1      -8.132  -6.713  20.678  0.00  0.00    +0.000 A 
ATOM      7  N   UNL     1      -8.224  -9.025  19.725  0.00  0.00    +0.000 N 
ATOM      8  C   UNL     1      -8.439  -9.594  18.494  0.00  0.00    +0.000 A 
ATOM      9  C   UNL     1      -8.532 -10.932  18.085  0.00  0.00    +0.000 A 
ATOM     10  C   UNL     1      -8.554 -11.958  19.040  0.00  0.00    +0.000 A 
ATOM     11  C   UNL     1      -8.798 -13.269  18.639  0.00  0.00    +0.000 A 
ATOM     12  C   UNL     1      -8.815 -13.571  17.267  0.00  0.00    +0.000 A 
ATOM     13  C   UNL     1      -9.002 -14.777  16.545  0.00  0.00    +0.000 A 
ATOM     14  C   UNL     1      -8.556 -14.540  15.268  0.00  0.00    +0.000 A 
ATOM     15  N   UNL     1      -8.439 -13.182  15.118  0.00  0.00    +0.000 N 
ATOM     16  C   UNL     1      -8.634 -12.547  16.328  0.00  0.00    +0.000 A 
ATOM     17  C   UNL     1      -8.640 -11.191  16.697  0.00  0.00    +0.000 A 
ATOM     18  C   UNL     1      -8.788 -10.080  15.849  0.00  0.00    +0.000 A 
ATOM     19  C   UNL     1      -8.824  -8.720  16.284  0.00  0.00    +0.000 A 
ATOM     20  C   UNL     1      -8.596  -8.514  17.662  0.00  0.00    +0.000 A 
ATOM     21  C   UNL     1      -9.124  -7.870  15.170  0.00  0.00    +0.000 C 
ATOM     22  O   UNL     1      -9.266  -6.659  15.031  0.00  0.00    +0.000 OA
ATOM     23  N   UNL     1      -9.245  -8.757  14.138  0.00  0.00    +0.000 N 
ATOM     24  C   UNL     1      -9.033 -10.078  14.430  0.00  0.00    +0.000 C 
ATOM     25  O   UNL     1      -9.052 -10.965  13.584  0.00  0.00    +0.000 OA
ATOM     26  H   UNL     1      -8.700  -3.922  18.806  0.00  0.00    +0.000 HD
ATOM     27  H   UNL     1      -8.939  -5.559  17.037  0.00  0.00    +0.000 HD
ATOM     28  H   UNL     1      -7.907  -7.026  21.692  0.00  0.00    +0.000 HD
ATOM     29  H   UNL     1      -8.035  -9.532  20.575  0.00  0.00    +0.000 HD
ATOM     30  H   UNL     1      -8.451 -11.754  20.101  0.00  0.00    +0.000 HD
ATOM     31  H   UNL     1      -8.904 -14.059  19.377  0.00  0.00    +0.000 HD
ATOM     32  H   UNL     1      -9.296 -15.736  16.950  0.00  0.00    +0.000 HD
ATOM     33  H   UNL     1      -8.338 -15.214  14.452  0.00  0.00    +0.000 HD
ATOM     34  H   UNL     1      -8.184 -12.708  14.259  0.00  0.00    +0.000 HD
ATOM     35  H   UNL     1      -9.467  -8.448  13.203  0.00  0.00    +0.000 HD
ENDROOT
BRANCH   1  36
ATOM     36  O   UNL     1      -8.111  -4.535  21.447  0.00  0.00    +0.000 OA
BRANCH  36  37
ATOM     37  C   UNL     1      -6.894  -3.808  21.519  0.00  0.00    +0.000 C 
ATOM     38  H   UNL     1      -7.127  -2.797  21.866  0.00  0.00    +0.000 HD
ATOM     39  H   UNL     1      -6.433  -3.722  20.530  0.00  0.00    +0.000 HD
ATOM     40  H   UNL     1      -6.204  -4.258  22.240  0.00  0.00    +0.000 HD
ENDBRANCH  36  37
ENDBRANCH   1  36
TORSDOF 2
ENDMDL
MODEL 5
REMARK VINA RESULT:   -10.125      2.243      7.587
REMARK INTER + INTRA:         -11.058
REMARK INTER:                 -11.010
REMARK INTRA:                  -0.047
REMARK UNBOUND:                -0.044
REMARK  Name = 
REMARK  2 active torsions:
REMARK  status: ('A' for Active; 'I' for Inactive)
REMARK    1  A    between atoms: C_1  and  O_2
REMARK    2  A    between atoms: O_2  and  C_3
REMARK                            x       y       z     vdW  Elec       q    Type
REMARK                         _______ _______ _______ _____ _____    ______ ____
ROOT
ATOM      1  C   UNL     1      -8.597 -13.219  17.758  0.00  0.00    +0.000 A 
ATOM      2  C   UNL     1      -8.712 -12.815  16.430  0.00  0.00    +0.000 A 
ATOM      3  C   UNL     1      -8.844 -11.458  16.088  0.00  0.00    +0.000 A 
ATOM      4  C   UNL     1      -8.847 -10.487  17.098  0.00  0.00    +0.000 A 
ATOM      5  C   UNL     1      -8.699 -10.919  18.431  0.00  0.00    +0.000 A 
ATOM      6  C   UNL     1      -8.594 -12.271  18.779  0.00  0.00    +0.000 A 
ATOM      7  N   UNL     1      -8.696  -9.818  19.264  0.00  0.00    +0.000 N 
ATOM      8  C   UNL     1      -8.827  -8.658  18.542  0.00  0.00    +0.000 A 
ATOM      9  C   UNL     1      -8.807  -7.309  18.925  0.00  0.00    +0.000 A 
ATOM     10  C   UNL     1      -8.467  -6.958  20.240  0.00  0.00    +0.000 A 
ATOM     11  C   UNL     1      -8.302  -5.617  20.575  0.00  0.00    +0.000 A 
ATOM     12  C   UNL     1      -8.674  -4.630  19.646  0.00  0.00    +0.000 A 
ATOM     13  C   UNL     1      -8.659  -3.212  19.683  0.00  0.00    +0.000 A 
ATOM     14  C   UNL     1      -9.467  -2.787  18.658  0.00  0.00    +0.000 A 
ATOM     15  N   UNL     1      -9.675  -3.858  17.825  0.00  0.00    +0.000 N 
ATOM     16  C   UNL     1      -9.159  -5.009  18.388  0.00  0.00    +0.000 A 
ATOM     17  C   UNL     1      -9.099  -6.339  17.936  0.00  0.00    +0.000 A 
ATOM     18  C   UNL     1      -9.246  -6.796  16.616  0.00  0.00    +0.000 A 
ATOM     19  C   UNL     1      -9.137  -8.160  16.206  0.00  0.00    +0.000 A 
ATOM     20  C   UNL     1      -8.961  -9.097  17.248  0.00  0.00    +0.000 A 
ATOM     21  C   UNL     1      -9.207  -8.238  14.777  0.00  0.00    +0.000 C 
ATOM     22  O   UNL     1      -9.159  -9.157  13.967  0.00  0.00    +0.000 OA
ATOM     23  N   UNL     1      -9.359  -6.929  14.412  0.00  0.00    +0.000 N 
ATOM     24  C   UNL     1      -9.426  -6.009  15.423  0.00  0.00    +0.000 C 
ATOM     25  O   UNL     1      -9.620  -4.814  15.232  0.00  0.00    +0.000 OA
ATOM     26  H   UNL     1      -8.703 -13.532  15.616  0.00  0.00    +0.000 HD
ATOM     27  H   UNL     1      -8.928 -11.189  15.044  0.00  0.00    +0.000 HD
ATOM     28  H   UNL     1      -8.501 -12.579  19.816  0.00  0.00    +0.000 HD
ATOM     29  H   UNL     1      -8.608  -9.872  20.267  0.00  0.00    +0.000 HD
ATOM     30  H   UNL     1      -8.264  -7.708  20.997  0.00  0.00    +0.000 HD
ATOM     31  H   UNL     1      -7.955  -5.336  21.565  0.00  0.00    +0.000 HD
ATOM     32  H   UNL     1      -8.224  -2.589  20.453  0.00  0.00    +0.000 HD
ATOM     33  H   UNL     1      -9.888  -1.817  18.436  0.00  0.00    +0.000 HD
ATOM     34  H   UNL     1     -10.187  -3.829  16.951  0.00  0.00    +0.000 HD
ATOM     35  H   UNL     1      -9.431  -6.661  13.442  0.00  0.00    +0.000 HD
ENDROOT
BRANCH   1  36
ATOM     36  O   UNL     1      -8.472 -14.504  18.204  0.00  0.00    +0.000 OA
BRANCH  36  37
ATOM     37  C   UNL     1      -9.241 -15.494  17.536  0.00  0.00    +0.000 C 
ATOM     38  H   UNL     1      -8.885 -15.555  16.503  0.00  0.00    +0.000 HD
ATOM     39  H   UNL     1     -10.299 -15.211  17.508  0.00  0.00    +0.000 HD
ATOM     40  H   UNL     1      -9.106 -16.478  17.995  0.00  0.00    +0.000 HD
ENDBRANCH  36  37
ENDBRANCH   1  36
TORSDOF 2
ENDMDL
MODEL 6
REMARK VINA RESULT:    -9.750      2.950      5.012
REMARK INTER + INTRA:         -10.650
REMARK INTER:                 -10.605
REMARK INTRA:                  -0.045
REMARK UNBOUND:                -0.044
REMARK  Name = 
REMARK  2 active torsions:
REMARK  status: ('A' for Active; 'I' for Inactive)
REMARK    1  A    between atoms: C_1  and  O_2
REMARK    2  A    between atoms: O_2  and  C_3
REMARK                            x       y       z     vdW  Elec       q    Type
REMARK                         _______ _______ _______ _____ _____    ______ ____
ROOT
ATOM      1  C   UNL     1      -8.005  -1.883  21.903  0.00  0.00    +0.000 A 
ATOM      2  C   UNL     1      -8.805  -1.472  20.839  0.00  0.00    +0.000 A 
ATOM      3  C   UNL     1      -9.220  -2.374  19.845  0.00  0.00    +0.000 A 
ATOM      4  C   UNL     1      -8.836  -3.719  19.929  0.00  0.00    +0.000 A 
ATOM      5  C   UNL     1      -8.052  -4.116  21.030  0.00  0.00    +0.000 A 
ATOM      6  C   UNL     1      -7.614  -3.216  22.008  0.00  0.00    +0.000 A 
ATOM      7  N   UNL     1      -7.809  -5.472  20.945  0.00  0.00    +0.000 N 
ATOM      8  C   UNL     1      -8.407  -6.008  19.831  0.00  0.00    +0.000 A 
ATOM      9  C   UNL     1      -8.503  -7.325  19.362  0.00  0.00    +0.000 A 
ATOM     10  C   UNL     1      -8.057  -8.389  20.159  0.00  0.00    +0.000 A 
ATOM     11  C   UNL     1      -8.292  -9.701  19.755  0.00  0.00    +0.000 A 
ATOM     12  C   UNL     1      -8.789  -9.938  18.462  0.00  0.00    +0.000 A 
ATOM     13  C   UNL     1      -9.104 -11.123  17.750  0.00  0.00    +0.000 A 
ATOM     14  C   UNL     1      -9.196 -10.769  16.426  0.00  0.00    +0.000 A 
ATOM     15  N   UNL     1      -9.289  -9.402  16.370  0.00  0.00    +0.000 N 
ATOM     16  C   UNL     1      -9.083  -8.856  17.622  0.00  0.00    +0.000 A 
ATOM     17  C   UNL     1      -9.094  -7.531  18.091  0.00  0.00    +0.000 A 
ATOM     18  C   UNL     1      -9.667  -6.412  17.464  0.00  0.00    +0.000 A 
ATOM     19  C   UNL     1      -9.683  -5.090  18.005  0.00  0.00    +0.000 A 
ATOM     20  C   UNL     1      -8.978  -4.920  19.218  0.00  0.00    +0.000 A 
ATOM     21  C   UNL     1     -10.466  -4.237  17.163  0.00  0.00    +0.000 C 
ATOM     22  O   UNL     1     -10.778  -3.051  17.198  0.00  0.00    +0.000 OA
ATOM     23  N   UNL     1     -10.869  -5.084  16.169  0.00  0.00    +0.000 N 
ATOM     24  C   UNL     1     -10.424  -6.376  16.239  0.00  0.00    +0.000 C 
ATOM     25  O   UNL     1     -10.664  -7.218  15.380  0.00  0.00    +0.000 OA
ATOM     26  H   UNL     1      -9.135  -0.442  20.742  0.00  0.00    +0.000 HD
ATOM     27  H   UNL     1      -9.843  -2.012  19.039  0.00  0.00    +0.000 HD
ATOM     28  H   UNL     1      -6.994  -3.543  22.837  0.00  0.00    +0.000 HD
ATOM     29  H   UNL     1      -7.263  -5.989  21.616  0.00  0.00    +0.000 HD
ATOM     30  H   UNL     1      -7.587  -8.222  21.123  0.00  0.00    +0.000 HD
ATOM     31  H   UNL     1      -8.029 -10.531  20.404  0.00  0.00    +0.000 HD
ATOM     32  H   UNL     1      -9.120 -12.131  18.144  0.00  0.00    +0.000 HD
ATOM     33  H   UNL     1      -9.228 -11.369  15.528  0.00  0.00    +0.000 HD
ATOM     34  H   UNL     1      -9.426  -8.858  15.526  0.00  0.00    +0.000 HD
ATOM     35  H   UNL     1     -11.456  -4.764  15.413  0.00  0.00    +0.000 HD
ENDROOT
BRANCH   1  36
ATOM     36  O   UNL     1      -7.539  -1.093  22.916  0.00  0.00    +0.000 OA
BRANCH  36  37
ATOM     37  C   UNL     1      -8.506  -0.375  23.668  0.00  0.00    +0.000 C 
ATOM     38  H   UNL     1      -7.985   0.418  24.213  0.00  0.00    +0.000 HD
ATOM     39  H   UNL     1      -8.988  -1.025  24.404  0.00  0.00    +0.000 HD
ATOM     40  H   UNL     1      -9.245   0.099  23.014  0.00  0.00    +0.000 HD
ENDBRANCH  36  37
ENDBRANCH   1  36
TORSDOF 2
ENDMDL
MODEL 7
REMARK VINA RESULT:    -9.354      2.752      7.571
REMARK INTER + INTRA:         -10.219
REMARK INTER:                 -10.154
REMARK INTRA:                  -0.065
REMARK UNBOUND:                -0.044
REMARK  Name = 
REMARK  2 active torsions:
REMARK  status: ('A' for Active; 'I' for Inactive)
REMARK    1  A    between atoms: C_1  and  O_2
REMARK    2  A    between atoms: O_2  and  C_3
REMARK                            x       y       z     vdW  Elec       q    Type
REMARK                         _______ _______ _______ _____ _____    ______ ____
ROOT
ATOM      1  C   UNL     1      -9.471 -10.412  16.749  0.00  0.00    +0.000 A 
ATOM      2  C   UNL     1     -10.283  -9.650  15.913  0.00  0.00    +0.000 A 
ATOM      3  C   UNL     1     -10.518  -8.288  16.168  0.00  0.00    +0.000 A 
ATOM      4  C   UNL     1      -9.915  -7.676  17.275  0.00  0.00    +0.000 A 
ATOM      5  C   UNL     1      -9.074  -8.462  18.088  0.00  0.00    +0.000 A 
ATOM      6  C   UNL     1      -8.857  -9.825  17.854  0.00  0.00    +0.000 A 
ATOM      7  N   UNL     1      -8.559  -7.674  19.097  0.00  0.00    +0.000 N 
ATOM      8  C   UNL     1      -9.013  -6.383  18.991  0.00  0.00    +0.000 A 
ATOM      9  C   UNL     1      -8.721  -5.224  19.724  0.00  0.00    +0.000 A 
ATOM     10  C   UNL     1      -7.695  -5.238  20.679  0.00  0.00    +0.000 A 
ATOM     11  C   UNL     1      -7.309  -4.050  21.294  0.00  0.00    +0.000 A 
ATOM     12  C   UNL     1      -8.087  -2.896  21.099  0.00  0.00    +0.000 A 
ATOM     13  C   UNL     1      -7.987  -1.569  21.589  0.00  0.00    +0.000 A 
ATOM     14  C   UNL     1      -9.207  -0.979  21.367  0.00  0.00    +0.000 A 
ATOM     15  N   UNL     1      -9.891  -1.769  20.478  0.00  0.00    +0.000 N 
ATOM     16  C   UNL     1      -9.205  -2.946  20.257  0.00  0.00    +0.000 A 
ATOM     17  C   UNL     1      -9.466  -4.055  19.434  0.00  0.00    +0.000 A 
ATOM     18  C   UNL     1     -10.342  -4.112  18.336  0.00  0.00    +0.000 A 
ATOM     19  C   UNL     1     -10.542  -5.258  17.508  0.00  0.00    +0.000 A 
ATOM     20  C   UNL     1      -9.862  -6.428  17.913  0.00  0.00    +0.000 A 
ATOM     21  C   UNL     1     -11.396  -4.913  16.411  0.00  0.00    +0.000 C 
ATOM     22  O   UNL     1     -11.848  -5.529  15.451  0.00  0.00    +0.000 OA
ATOM     23  N   UNL     1     -11.663  -3.593  16.641  0.00  0.00    +0.000 N 
ATOM     24  C   UNL     1     -11.116  -3.038  17.767  0.00  0.00    +0.000 C 
ATOM     25  O   UNL     1     -11.327  -1.883  18.119  0.00  0.00    +0.000 OA
ATOM     26  H   UNL     1     -10.760 -10.080  15.039  0.00  0.00    +0.000 HD
ATOM     27  H   UNL     1     -11.154  -7.733  15.491  0.00  0.00    +0.000 HD
ATOM     28  H   UNL     1      -8.220 -10.413  18.507  0.00  0.00    +0.000 HD
ATOM     29  H   UNL     1      -7.933  -8.013  19.811  0.00  0.00    +0.000 HD
ATOM     30  H   UNL     1      -7.141  -6.142  20.910  0.00  0.00    +0.000 HD
ATOM     31  H   UNL     1      -6.459  -4.032  21.970  0.00  0.00    +0.000 HD
ATOM     32  H   UNL     1      -7.170  -1.148  22.160  0.00  0.00    +0.000 HD
ATOM     33  H   UNL     1      -9.635  -0.060  21.742  0.00  0.00    +0.000 HD
ATOM     34  H   UNL     1     -10.800  -1.554  20.083  0.00  0.00    +0.000 HD
ATOM     35  H   UNL     1     -12.248  -3.059  16.016  0.00  0.00    +0.000 HD
ENDROOT
BRANCH   1  36
ATOM     36  O   UNL     1      -9.180 -11.739  16.603  0.00  0.00    +0.000 OA
BRANCH  36  37
ATOM     37  C   UNL     1      -8.644 -12.408  17.735  0.00  0.00    +0.000 C 
ATOM     38  H   UNL     1      -8.737 -13.485  17.563  0.00  0.00    +0.000 HD
ATOM     39  H   UNL     1      -9.215 -12.165  18.637  0.00  0.00    +0.000 HD
ATOM     40  H   UNL     1      -7.582 -12.181  17.865  0.00  0.00    +0.000 HD
ENDBRANCH  36  37
ENDBRANCH   1  36
TORSDOF 2
ENDMDL
