REMARK  Name = 
REMARK  4 active torsions:
REMARK  status: ('A' for Active; 'I' for Inactive)
REMARK    1  A    between atoms: C_1  and  N_2
REMARK    2  A    between atoms: C_13  and  O_14
REMARK    3  A    between atoms: O_14  and  C_15
REMARK    4  A    between atoms: C_15  and  C_16
REMARK                            x       y       z     vdW  Elec       q    Type
REMARK                         _______ _______ _______ _____ _____    ______ ____
ROOT
ATOM      1  N   UNL     1      -4.941   0.753  -4.015  0.00  0.00    +0.000 N 
ATOM      2  C   UNL     1      -5.390  -0.169  -4.941  0.00  0.00    +0.000 A 
ATOM      3  C   UNL     1      -5.498  -1.344  -4.246  0.00  0.00    +0.000 A 
ATOM      4  C   UNL     1      -4.557  -1.241  -3.194  0.00  0.00    +0.000 A 
ATOM      5  C   UNL     1      -3.989  -2.246  -2.396  0.00  0.00    +0.000 A 
ATOM      6  C   UNL     1      -2.797  -1.970  -1.754  0.00  0.00    +0.000 A 
ATOM      7  C   UNL     1      -2.288  -0.674  -1.790  0.00  0.00    +0.000 A 
ATOM      8  C   UNL     1      -0.993  -0.441  -1.302  0.00  0.00    +0.000 A 
ATOM      9  N   UNL     1      -0.136  -1.229  -0.589  0.00  0.00    +0.000 N 
ATOM     10  C   UNL     1       0.746  -0.426   0.100  0.00  0.00    +0.000 A 
ATOM     11  C   UNL     1       1.513  -0.759   1.209  0.00  0.00    +0.000 A 
ATOM     12  C   UNL     1       2.330   0.230   1.757  0.00  0.00    +0.000 A 
ATOM     13  C   UNL     1       2.342   1.514   1.222  0.00  0.00    +0.000 A 
ATOM     14  C   UNL     1       1.561   1.836   0.108  0.00  0.00    +0.000 A 
ATOM     15  C   UNL     1       0.721   0.855  -0.466  0.00  0.00    +0.000 A 
ATOM     16  C   UNL     1      -0.316   0.747  -1.402  0.00  0.00    +0.000 A 
ATOM     17  C   UNL     1      -1.006   1.895  -1.882  0.00  0.00    +0.000 A 
ATOM     18  C   UNL     1      -2.414   1.691  -1.985  0.00  0.00    +0.000 A 
ATOM     19  C   UNL     1      -3.017   0.446  -2.266  0.00  0.00    +0.000 A 
ATOM     20  C   UNL     1      -4.125   0.106  -3.095  0.00  0.00    +0.000 A 
ATOM     21  C   UNL     1      -2.903   2.744  -1.100  0.00  0.00    +0.000 C 
ATOM     22  O   UNL     1      -3.790   2.758  -0.254  0.00  0.00    +0.000 OA
ATOM     23  N   UNL     1      -1.907   3.706  -1.136  0.00  0.00    +0.000 N 
ATOM     24  C   UNL     1      -0.714   3.276  -1.646  0.00  0.00    +0.000 C 
ATOM     25  O   UNL     1       0.275   3.962  -1.759  0.00  0.00    +0.000 OA
ATOM     26  H   UNL     1      -5.779   0.131  -5.906  0.00  0.00    +0.000 HD
ATOM     27  H   UNL     1      -6.014  -2.236  -4.572  0.00  0.00    +0.000 HD
ATOM     28  H   UNL     1      -4.363  -3.266  -2.446  0.00  0.00    +0.000 HD
ATOM     29  H   UNL     1      -2.261  -2.799  -1.291  0.00  0.00    +0.000 HD
ATOM     30  H   UNL     1      -0.315  -2.191  -0.350  0.00  0.00    +0.000 HD
ATOM     31  H   UNL     1       1.431  -1.755   1.628  0.00  0.00    +0.000 HD
ATOM     32  H   UNL     1       2.953   2.292   1.693  0.00  0.00    +0.000 HD
ATOM     33  H   UNL     1       1.592   2.856  -0.261  0.00  0.00    +0.000 HD
ATOM     34  H   UNL     1      -1.857   4.429  -0.436  0.00  0.00    +0.000 HD
ENDROOT
BRANCH   1  35
ATOM     35  C   UNL     1      -5.648   2.007  -3.912  0.00  0.00    +0.000 C 
ATOM     36  H   UNL     1      -5.107   2.789  -4.447  0.00  0.00    +0.000 HD
ATOM     37  H   UNL     1      -5.822   2.244  -2.859  0.00  0.00    +0.000 HD
ATOM     38  H   UNL     1      -6.629   1.869  -4.387  0.00  0.00    +0.000 HD
ENDBRANCH   1  35
BRANCH  12  39
ATOM     39  O   UNL     1       3.148   0.012   2.832  0.00  0.00    +0.000 OA
BRANCH  39  40
ATOM     40  C   UNL     1       3.450  -1.366   3.049  0.00  0.00    +0.000 C 
ATOM     41  H   UNL     1       3.635  -1.887   2.100  0.00  0.00    +0.000 HD
ATOM     42  H   UNL     1       2.618  -1.859   3.567  0.00  0.00    +0.000 HD
BRANCH  40  43
ATOM     43  C   UNL     1       4.684  -1.466   3.891  0.00  0.00    +0.000 A 
ATOM     44  C   UNL     1       4.647  -1.084   5.238  0.00  0.00    +0.000 A 
ATOM     45  C   UNL     1       5.797  -1.183   6.018  0.00  0.00    +0.000 A 
ATOM     46  C   UNL     1       6.980  -1.659   5.459  0.00  0.00    +0.000 A 
ATOM     47  C   UNL     1       7.024  -2.034   4.117  0.00  0.00    +0.000 A 
ATOM     48  C   UNL     1       5.880  -1.935   3.333  0.00  0.00    +0.000 A 
ATOM     49  H   UNL     1       3.730  -0.698   5.672  0.00  0.00    +0.000 HD
ATOM     50  H   UNL     1       5.767  -0.879   7.059  0.00  0.00    +0.000 HD
ATOM     51  H   UNL     1       7.874  -1.731   6.072  0.00  0.00    +0.000 HD
ATOM     52  H   UNL     1       7.952  -2.397   3.680  0.00  0.00    +0.000 HD
ATOM     53  H   UNL     1       5.925  -2.218   2.283  0.00  0.00    +0.000 HD
ENDBRANCH  40  43
ENDBRANCH  39  40
ENDBRANCH  12  39
TORSDOF 4
