REMARK  Name = 
REMARK  9 active torsions:
REMARK  status: ('A' for Active; 'I' for Inactive)
REMARK    1  A    between atoms: C_1  and  C_2
REMARK    2  A    between atoms: C_2  and  C_3
REMARK    3  A    between atoms: C_3  and  C_4
REMARK    4  A    between atoms: C_8  and  C_9
REMARK    5  A    between atoms: C_9  and  N_10
REMARK    6  A    between atoms: N_10  and  C_11
REMARK    7  A    between atoms: C_18  and  C_19
REMARK    8  A    between atoms: C_21  and  N_22
REMARK    9  A    between atoms: N_22  and  C_23
REMARK                            x       y       z     vdW  Elec       q    Type
REMARK                         _______ _______ _______ _____ _____    ______ ____
ROOT
ATOM      1  C   UNL     1      -2.506  -1.051   0.740  0.00  0.00    +0.000 A 
ATOM      2  C   UNL     1      -3.500  -1.229   1.694  0.00  0.00    +0.000 A 
ATOM      3  C   UNL     1      -3.811  -0.207   2.592  0.00  0.00    +0.000 A 
ATOM      4 CL   UNL     1      -5.029  -0.545   3.783  0.00  0.00    +0.000 Cl
ATOM      5  C   UNL     1      -3.187   1.046   2.547  0.00  0.00    +0.000 A 
ATOM      6  N   UNL     1      -3.527   2.003   3.435  0.00  0.00    +0.000 NA
ATOM      7  C   UNL     1      -2.968   3.222   3.336  0.00  0.00    +0.000 A 
ATOM      8  C   UNL     1      -2.029   3.563   2.384  0.00  0.00    +0.000 A 
ATOM      9  C   UNL     1      -1.583   2.566   1.501  0.00  0.00    +0.000 A 
ATOM     10  C   UNL     1      -2.209   1.276   1.552  0.00  0.00    +0.000 A 
ATOM     11  C   UNL     1      -1.893   0.210   0.665  0.00  0.00    +0.000 A 
ATOM     12  H   UNL     1      -4.032  -2.176   1.756  0.00  0.00    +0.000 HD
ATOM     13  H   UNL     1      -3.326   3.942   4.069  0.00  0.00    +0.000 HD
ATOM     14  H   UNL     1      -1.152   0.381  -0.113  0.00  0.00    +0.000 HD
ENDROOT
BRANCH   1  15
ATOM     15  N   UNL     1      -2.250  -2.075  -0.171  0.00  0.00    +0.000 N 
ATOM     16  H   UNL     1      -2.592  -2.997   0.110  0.00  0.00    +0.000 HD
BRANCH  15  17
ATOM     17  C   UNL     1      -0.893  -2.211  -0.698  0.00  0.00    +0.000 C 
ATOM     18  H   UNL     1      -0.807  -1.585  -1.594  0.00  0.00    +0.000 HD
ATOM     19  H   UNL     1      -0.165  -1.845   0.038  0.00  0.00    +0.000 HD
BRANCH  17  24
ATOM     20  C   UNL     1       0.762  -4.008  -1.564  0.00  0.00    +0.000 A 
ATOM     21  N   UNL     1       0.656  -5.371  -1.693  0.00  0.00    +0.000 N 
ATOM     22  C   UNL     1      -0.591  -5.734  -1.273  0.00  0.00    +0.000 A 
ATOM     23  N   UNL     1      -1.287  -4.696  -0.870  0.00  0.00    +0.000 NA
ATOM     24  C   UNL     1      -0.461  -3.605  -1.058  0.00  0.00    +0.000 A 
ATOM     25  H   UNL     1       1.367  -5.998  -2.048  0.00  0.00    +0.000 HD
ATOM     26  H   UNL     1      -0.932  -6.760  -1.289  0.00  0.00    +0.000 HD
BRANCH  20  27
ATOM     27  C   UNL     1       1.987  -3.237  -1.914  0.00  0.00    +0.000 C 
ATOM     28  H   UNL     1       1.842  -2.182  -1.651  0.00  0.00    +0.000 HD
ATOM     29  H   UNL     1       2.828  -3.596  -1.308  0.00  0.00    +0.000 HD
BRANCH  27  30
ATOM     30  C   UNL     1       2.318  -3.344  -3.401  0.00  0.00    +0.000 C 
ATOM     31  H   UNL     1       2.490  -4.391  -3.675  0.00  0.00    +0.000 HD
ATOM     32  H   UNL     1       1.468  -2.993  -4.001  0.00  0.00    +0.000 HD
BRANCH  30  33
ATOM     33  C   UNL     1       3.552  -2.531  -3.755  0.00  0.00    +0.000 C 
ATOM     34  H   UNL     1       3.782  -2.641  -4.819  0.00  0.00    +0.000 HD
ATOM     35  H   UNL     1       4.421  -2.868  -3.182  0.00  0.00    +0.000 HD
ATOM     36  H   UNL     1       3.394  -1.468  -3.549  0.00  0.00    +0.000 HD
ENDBRANCH  30  33
ENDBRANCH  27  30
ENDBRANCH  20  27
ENDBRANCH  17  24
ENDBRANCH  15  17
ENDBRANCH   1  15
BRANCH   8  37
ATOM     37  C   UNL     1      -1.616   4.930   2.328  0.00  0.00    +0.000 C 
ATOM     38  N   UNL     1      -1.309   6.047   2.317  0.00  0.00    +0.000 NA
ENDBRANCH   8  37
BRANCH   9  39
ATOM     39  N   UNL     1      -0.555   2.807   0.540  0.00  0.00    +0.000 N 
ATOM     40  H   UNL     1      -0.888   2.731  -0.420  0.00  0.00    +0.000 HD
BRANCH  39  41
ATOM     41  C   UNL     1       0.677   3.487   0.686  0.00  0.00    +0.000 A 
ATOM     42  C   UNL     1       1.270   3.688   1.944  0.00  0.00    +0.000 A 
ATOM     43  C   UNL     1       2.510   4.323   2.072  0.00  0.00    +0.000 A 
ATOM     44  C   UNL     1       3.190   4.734   0.936  0.00  0.00    +0.000 A 
ATOM     45  F   UNL     1       4.398   5.301   1.075  0.00  0.00    +0.000 F 
ATOM     46  C   UNL     1       2.631   4.535  -0.323  0.00  0.00    +0.000 A 
ATOM     47 CL   UNL     1       3.482   5.027  -1.740  0.00  0.00    +0.000 Cl
ATOM     48  C   UNL     1       1.380   3.918  -0.450  0.00  0.00    +0.000 A 
ATOM     49  H   UNL     1       0.781   3.348   2.853  0.00  0.00    +0.000 HD
ATOM     50  H   UNL     1       2.948   4.486   3.052  0.00  0.00    +0.000 HD
ATOM     51  H   UNL     1       0.963   3.775  -1.443  0.00  0.00    +0.000 HD
ENDBRANCH  39  41
ENDBRANCH   9  39
TORSDOF 9
