
 OpenBabel01112422483D

 38 43  0  0  1  0  0  0  0  0999 V2000
    1.1098   -0.0339   -0.1069 O   0  0  0  0  0  0  0  0  0  0  0  0
    2.3249    0.1122   -0.0840 C   0  0  0  0  0  0  0  0  0  0  0  0
    3.1820   -0.9790   -0.0495 N   0  0  0  0  0  0  0  0  0  0  0  0
    4.5840   -0.6894   -0.0880 C   0  0  3  0  0  0  0  0  0  0  0  0
    5.1359   -1.2527    1.0718 O   0  0  0  0  0  0  0  0  0  0  0  0
    4.5512    0.7791   -0.0730 C   0  0  0  0  0  0  0  0  0  0  0  0
    3.2018    1.2533   -0.0774 C   0  0  0  0  0  0  0  0  0  0  0  0
    2.9749    2.6553   -0.0811 C   0  0  0  0  0  0  0  0  0  0  0  0
    1.7551    3.3310   -0.0861 C   0  0  0  0  0  0  0  0  0  0  0  0
    0.3785    3.0358   -0.0892 C   0  0  0  0  0  0  0  0  0  0  0  0
   -0.5578    4.0788   -0.0916 C   0  0  0  0  0  0  0  0  0  0  0  0
   -0.1475    5.4080   -0.0915 C   0  0  0  0  0  0  0  0  0  0  0  0
    1.2086    5.7383   -0.0901 C   0  0  0  0  0  0  0  0  0  0  0  0
    2.1386    4.6898   -0.0877 C   0  0  0  0  0  0  0  0  0  0  0  0
    3.5285    4.7557   -0.0867 N   0  0  0  0  0  0  0  0  0  0  0  0
    4.0440    3.4951   -0.0832 C   0  0  0  0  0  0  0  0  0  0  0  0
    5.3374    3.0314   -0.0825 C   0  0  0  0  0  0  0  0  0  0  0  0
    6.5426    3.6669   -0.0883 N   0  0  0  0  0  0  0  0  0  0  0  0
    7.5665    2.7219   -0.0913 C   0  0  0  0  0  0  0  0  0  0  0  0
    8.9530    2.9243   -0.0953 C   0  0  0  0  0  0  0  0  0  0  0  0
    9.7760    1.7965   -0.0959 C   0  0  0  0  0  0  0  0  0  0  0  0
    9.2329    0.5143   -0.0931 C   0  0  0  0  0  0  0  0  0  0  0  0
    7.8446    0.3184   -0.0886 C   0  0  0  0  0  0  0  0  0  0  0  0
    6.9871    1.4353   -0.0873 C   0  0  0  0  0  0  0  0  0  0  0  0
    5.6209    1.7055   -0.0797 C   0  0  0  0  0  0  0  0  0  0  0  0
    2.8124   -1.9161   -0.0878 H   0  0  0  0  0  0  0  0  0  0  0  0
    5.0259   -1.1064   -0.9961 H   0  0  0  0  0  0  0  0  0  0  0  0
    4.6501   -0.8503    1.8104 H   0  0  0  0  0  0  0  0  0  0  0  0
    0.0188    2.0128   -0.0896 H   0  0  0  0  0  0  0  0  0  0  0  0
   -1.6189    3.8404   -0.0934 H   0  0  0  0  0  0  0  0  0  0  0  0
   -0.8925    6.2003   -0.0929 H   0  0  0  0  0  0  0  0  0  0  0  0
    1.5242    6.7766   -0.0903 H   0  0  0  0  0  0  0  0  0  0  0  0
    4.0565    5.6154   -0.0894 H   0  0  0  0  0  0  0  0  0  0  0  0
    6.6901    4.6650   -0.0914 H   0  0  0  0  0  0  0  0  0  0  0  0
    9.3814    3.9216   -0.0954 H   0  0  0  0  0  0  0  0  0  0  0  0
   10.8565    1.9231   -0.0961 H   0  0  0  0  0  0  0  0  0  0  0  0
    9.8946   -0.3488   -0.0903 H   0  0  0  0  0  0  0  0  0  0  0  0
    7.4533   -0.6937   -0.0770 H   0  0  0  0  0  0  0  0  0  0  0  0
  1  2  2  0  0  0  0
  2  3  1  0  0  0  0
  2  7  1  0  0  0  0
  3  4  1  0  0  0  0
  3 26  1  0  0  0  0
  4  5  1  0  0  0  0
  4  6  1  0  0  0  0
  4 27  1  0  0  0  0
  5 28  1  0  0  0  0
  6  7  1  0  0  0  0
  6 25  2  0  0  0  0
  7  8  2  0  0  0  0
  8  9  1  0  0  0  0
  8 16  1  0  0  0  0
  9 10  1  0  0  0  0
  9 14  2  0  0  0  0
 10 11  2  0  0  0  0
 10 29  1  0  0  0  0
 11 12  1  0  0  0  0
 11 30  1  0  0  0  0
 12 13  2  0  0  0  0
 12 31  1  0  0  0  0
 13 14  1  0  0  0  0
 13 32  1  0  0  0  0
 14 15  1  0  0  0  0
 15 16  1  0  0  0  0
 15 33  1  0  0  0  0
 16 17  2  0  0  0  0
 17 18  1  0  0  0  0
 17 25  1  0  0  0  0
 18 19  1  0  0  0  0
 18 34  1  0  0  0  0
 19 20  1  0  0  0  0
 19 24  2  0  0  0  0
 20 21  2  0  0  0  0
 20 35  1  0  0  0  0
 21 22  1  0  0  0  0
 21 36  1  0  0  0  0
 22 23  2  0  0  0  0
 22 37  1  0  0  0  0
 23 24  1  0  0  0  0
 23 38  1  0  0  0  0
 24 25  1  0  0  0  0
M  END
$$$$
