REMARK  Name = 
REMARK  2 active torsions:
REMARK  status: ('A' for Active; 'I' for Inactive)
REMARK    1  A    between atoms: C_30  and  C_31
REMARK    2  A    between atoms: C_31  and  O_32
REMARK                            x       y       z     vdW  Elec       q    Type
REMARK                         _______ _______ _______ _____ _____    ______ ____
ROOT
ATOM      1  O   UNL     1      -3.619  -3.676   0.248  0.00  0.00    +0.000 OA
ATOM      2  C   UNL     1      -2.410  -3.492   0.286  0.00  0.00    +0.000 C 
ATOM      3  N   UNL     1      -1.499  -4.520   0.240  0.00  0.00    +0.000 N 
ATOM      4  C   UNL     1      -0.172  -4.174   0.310  0.00  0.00    +0.000 C 
ATOM      5  O   UNL     1       0.730  -5.000   0.294  0.00  0.00    +0.000 OA
ATOM      6  C   UNL     1      -0.223  -2.755   0.403  0.00  0.00    +0.000 A 
ATOM      7  C   UNL     1      -1.579  -2.342   0.387  0.00  0.00    +0.000 A 
ATOM      8  C   UNL     1      -1.755  -0.944   0.465  0.00  0.00    +0.000 A 
ATOM      9  C   UNL     1      -2.971  -0.213   0.373  0.00  0.00    +0.000 A 
ATOM     10  C   UNL     1      -4.335  -0.546   0.209  0.00  0.00    +0.000 A 
ATOM     11  C   UNL     1      -5.314   0.449   0.110  0.00  0.00    +0.000 A 
ATOM     12  C   UNL     1      -4.969   1.791   0.164  0.00  0.00    +0.000 A 
ATOM     13  C   UNL     1      -3.641   2.181   0.329  0.00  0.00    +0.000 A 
ATOM     14  C   UNL     1      -2.640   1.195   0.443  0.00  0.00    +0.000 A 
ATOM     15  N   UNL     1      -1.255   1.376   0.607  0.00  0.00    +0.000 N 
ATOM     16  C   UNL     1      -0.820   0.090   0.573  0.00  0.00    +0.000 A 
ATOM     17  C   UNL     1       0.503  -0.311   0.590  0.00  0.00    +0.000 A 
ATOM     18  C   UNL     1       0.702  -1.693   0.497  0.00  0.00    +0.000 A 
ATOM     19  C   UNL     1       2.118  -1.765   0.432  0.00  0.00    +0.000 A 
ATOM     20  C   UNL     1       3.066  -2.803   0.275  0.00  0.00    +0.000 A 
ATOM     21  C   UNL     1       4.436  -2.525   0.198  0.00  0.00    +0.000 A 
ATOM     22  C   UNL     1       4.901  -1.223   0.292  0.00  0.00    +0.000 A 
ATOM     23  C   UNL     1       4.016  -0.160   0.466  0.00  0.00    +0.000 A 
ATOM     24  C   UNL     1       2.631  -0.413   0.524  0.00  0.00    +0.000 A 
ATOM     25  N   UNL     1       1.579   0.513   0.636  0.00  0.00    +0.000 N 
ATOM     26  C   UNL     1       1.659   1.950   0.664  0.00  0.00    +0.000 C 
ATOM     27  O   UNL     1       0.617   2.444   1.513  0.00  0.00    +0.000 OA
ATOM     28  C   UNL     1      -0.522   2.619   0.666  0.00  0.00    +0.000 C 
ATOM     29  C   UNL     1      -0.003   3.044  -0.698  0.00  0.00    +0.000 C 
ATOM     30  C   UNL     1       1.472   2.660  -0.674  0.00  0.00    +0.000 C 
ATOM     31  H   UNL     1      -1.792  -5.481   0.180  0.00  0.00    +0.000 HD
ATOM     32  H   UNL     1      -4.653  -1.582   0.147  0.00  0.00    +0.000 HD
ATOM     33  H   UNL     1      -6.356   0.163  -0.017  0.00  0.00    +0.000 HD
ATOM     34  H   UNL     1      -5.743   2.550   0.075  0.00  0.00    +0.000 HD
ATOM     35  H   UNL     1      -3.397   3.238   0.362  0.00  0.00    +0.000 HD
ATOM     36  H   UNL     1       2.752  -3.839   0.193  0.00  0.00    +0.000 HD
ATOM     37  H   UNL     1       5.140  -3.343   0.059  0.00  0.00    +0.000 HD
ATOM     38  H   UNL     1       5.969  -1.027   0.224  0.00  0.00    +0.000 HD
ATOM     39  H   UNL     1       4.410   0.850   0.541  0.00  0.00    +0.000 HD
ATOM     40  H   UNL     1       2.613   2.221   1.127  0.00  0.00    +0.000 HD
ATOM     41  H   UNL     1      -1.172   3.375   1.115  0.00  0.00    +0.000 HD
ATOM     42  H   UNL     1      -0.088   4.132  -0.802  0.00  0.00    +0.000 HD
ATOM     43  H   UNL     1      -0.565   2.599  -1.526  0.00  0.00    +0.000 HD
ATOM     44  H   UNL     1       2.034   3.604  -0.634  0.00  0.00    +0.000 HD
ENDROOT
BRANCH  30  45
ATOM     45  C   UNL     1       1.920   1.901  -1.916  0.00  0.00    +0.000 C 
ATOM     46  H   UNL     1       2.981   1.640  -1.867  0.00  0.00    +0.000 HD
ATOM     47  H   UNL     1       1.345   0.981  -2.061  0.00  0.00    +0.000 HD
BRANCH  45  48
ATOM     48  O   UNL     1       1.711   2.709  -3.071  0.00  0.00    +0.000 OA
ATOM     49  H   UNL     1       2.185   3.549  -2.949  0.00  0.00    +0.000 HD
ENDBRANCH  45  48
ENDBRANCH  30  45
TORSDOF 2
