MODEL 1
REMARK VINA RESULT:    -8.780      0.000      0.000
REMARK INTER + INTRA:         -10.882
REMARK INTER:                 -11.089
REMARK INTRA:                   0.207
REMARK UNBOUND:                 0.207
REMARK  Name = 
REMARK  6 active torsions:
REMARK  status: ('A' for Active; 'I' for Inactive)
REMARK    1  A    between atoms: C_1  and  O_2
REMARK    2  A    between atoms: O_2  and  C_3
REMARK    3  A    between atoms: C_4  and  N_5
REMARK    4  A    between atoms: N_5  and  C_6
REMARK    5  A    between atoms: C_7  and  C_9
REMARK    6  A    between atoms: C_18  and  C_19
REMARK                            x       y       z     vdW  Elec       q    Type
REMARK                         _______ _______ _______ _____ _____    ______ ____
ROOT
ATOM      1  C   UNL     1     -10.246  -6.052  16.229  0.00  0.00    +0.000 C 
ATOM      2  C   UNL     1     -10.794  -6.878  17.448  0.00  0.00    +0.000 C 
ATOM      3  C   UNL     1     -10.783  -6.010  18.728  0.00  0.00    +0.000 C 
ATOM      4  C   UNL     1     -10.991  -4.513  18.507  0.00  0.00    +0.000 C 
ATOM      5  O   UNL     1     -11.764  -4.388  17.298  0.00  0.00    +0.000 OA
ATOM      6  C   UNL     1     -11.075  -4.753  16.062  0.00  0.00    +0.000 C 
ATOM      7  N   UNL     1     -10.281  -3.587  15.661  0.00  0.00    +0.000 N 
ATOM      8  C   UNL     1     -10.390  -2.831  14.455  0.00  0.00    +0.000 A 
ATOM      9  C   UNL     1      -9.929  -3.111  13.158  0.00  0.00    +0.000 A 
ATOM     10  C   UNL     1     -10.046  -2.111  12.180  0.00  0.00    +0.000 A 
ATOM     11  C   UNL     1     -10.657  -0.887  12.445  0.00  0.00    +0.000 A 
ATOM     12  C   UNL     1     -11.134  -0.590  13.713  0.00  0.00    +0.000 A 
ATOM     13  C   UNL     1     -10.956  -1.522  14.746  0.00  0.00    +0.000 A 
ATOM     14  C   UNL     1     -11.047  -1.401  16.144  0.00  0.00    +0.000 A 
ATOM     15  C   UNL     1     -11.064  -0.155  16.751  0.00  0.00    +0.000 A 
ATOM     16  C   UNL     1     -10.037   0.057  17.669  0.00  0.00    +0.000 A 
ATOM     17  C   UNL     1      -9.608  -1.182  18.192  0.00  0.00    +0.000 A 
ATOM     18  C   UNL     1      -9.948  -1.415  19.534  0.00  0.00    +0.000 A 
ATOM     19  C   UNL     1     -10.429  -0.645  20.595  0.00  0.00    +0.000 A 
ATOM     20  C   UNL     1      -9.570  -0.649  21.667  0.00  0.00    +0.000 A 
ATOM     21  C   UNL     1      -8.764  -1.770  21.852  0.00  0.00    +0.000 A 
ATOM     22  C   UNL     1      -8.878  -2.929  21.018  0.00  0.00    +0.000 A 
ATOM     23  C   UNL     1      -9.551  -2.761  19.797  0.00  0.00    +0.000 A 
ATOM     24  N   UNL     1      -9.837  -3.562  18.611  0.00  0.00    +0.000 N 
ATOM     25  C   UNL     1      -9.730  -2.503  17.730  0.00  0.00    +0.000 A 
ATOM     26  C   UNL     1     -10.316  -2.531  16.490  0.00  0.00    +0.000 A 
ATOM     27  C   UNL     1     -10.130   1.380  18.183  0.00  0.00    +0.000 C 
ATOM     28  O   UNL     1      -9.369   2.100  18.811  0.00  0.00    +0.000 OA
ATOM     29  N   UNL     1     -11.406   1.763  17.772  0.00  0.00    +0.000 N 
ATOM     30  C   UNL     1     -12.170   0.749  17.072  0.00  0.00    +0.000 C 
ATOM     31  H   UNL     1     -10.373  -6.631  15.290  0.00  0.00    +0.000 HD
ATOM     32  H   UNL     1     -11.841  -7.112  17.199  0.00  0.00    +0.000 HD
ATOM     33  H   UNL     1      -9.923  -6.149  19.372  0.00  0.00    +0.000 HD
ATOM     34  H   UNL     1     -11.668  -6.361  19.291  0.00  0.00    +0.000 HD
ATOM     35  H   UNL     1     -11.663  -4.157  19.302  0.00  0.00    +0.000 HD
ATOM     36  H   UNL     1      -9.408  -4.036  12.927  0.00  0.00    +0.000 HD
ATOM     37  H   UNL     1      -9.623  -2.277  11.192  0.00  0.00    +0.000 HD
ATOM     38  H   UNL     1     -10.716  -0.122  11.677  0.00  0.00    +0.000 HD
ATOM     39  H   UNL     1     -11.535   0.388  13.940  0.00  0.00    +0.000 HD
ATOM     40  H   UNL     1     -11.244   0.062  20.494  0.00  0.00    +0.000 HD
ATOM     41  H   UNL     1      -9.561   0.200  22.349  0.00  0.00    +0.000 HD
ATOM     42  H   UNL     1      -8.074  -1.758  22.693  0.00  0.00    +0.000 HD
ATOM     43  H   UNL     1      -8.331  -3.823  21.264  0.00  0.00    +0.000 HD
ATOM     44  H   UNL     1     -11.790   2.633  18.092  0.00  0.00    +0.000 HD
ATOM     45  H   UNL     1     -12.812   0.254  17.820  0.00  0.00    +0.000 HD
ATOM     46  H   UNL     1     -12.734   1.124  16.230  0.00  0.00    +0.000 HD
ENDROOT
BRANCH   6  47
ATOM     47  C   UNL     1     -12.249  -4.958  15.076  0.00  0.00    +0.000 C 
ATOM     48  H   UNL     1     -12.880  -5.806  15.355  0.00  0.00    +0.000 HD
ATOM     49  H   UNL     1     -12.873  -4.062  15.008  0.00  0.00    +0.000 HD
ATOM     50  H   UNL     1     -11.872  -5.138  14.058  0.00  0.00    +0.000 HD
ENDBRANCH   6  47
BRANCH   2  51
ATOM     51  N   UNL     1     -10.156  -8.234  17.572  0.00  0.00    +0.000 N 
ATOM     52  C   UNL     1     -10.451  -9.238  16.624  0.00  0.00    +0.000 C 
ATOM     53  O   UNL     1     -11.371  -9.118  15.787  0.00  0.00    +0.000 OA
BRANCH  52  54
ATOM     54  C   UNL     1      -9.616 -10.464  16.515  0.00  0.00    +0.000 A 
ATOM     55  C   UNL     1      -8.977 -10.743  15.316  0.00  0.00    +0.000 A 
ATOM     56  N   UNL     1      -8.209 -11.850  15.145  0.00  0.00    +0.000 NA
ATOM     57  C   UNL     1      -8.128 -12.671  16.218  0.00  0.00    +0.000 A 
ATOM     58  C   UNL     1      -8.763 -12.390  17.416  0.00  0.00    +0.000 A 
ATOM     59  N   UNL     1      -9.518 -11.285  17.592  0.00  0.00    +0.000 NA
ATOM     60  H   UNL     1      -9.051 -10.076  14.463  0.00  0.00    +0.000 HD
ATOM     61  H   UNL     1      -7.529 -13.568  16.089  0.00  0.00    +0.000 HD
ATOM     62  H   UNL     1      -8.680 -13.051  18.271  0.00  0.00    +0.000 HD
ENDBRANCH  52  54
BRANCH  51  63
ATOM     63  C   UNL     1      -9.200  -8.494  18.642  0.00  0.00    +0.000 C 
ATOM     64  H   UNL     1      -8.934  -9.546  18.725  0.00  0.00    +0.000 HD
ATOM     65  H   UNL     1      -8.251  -8.002  18.428  0.00  0.00    +0.000 HD
ATOM     66  H   UNL     1      -9.620  -8.131  19.581  0.00  0.00    +0.000 HD
ENDBRANCH  51  63
ENDBRANCH   2  51
BRANCH   1  67
ATOM     67  O   UNL     1      -8.835  -5.890  16.437  0.00  0.00    +0.000 OA
BRANCH  67  68
ATOM     68  C   UNL     1      -8.044  -6.897  15.811  0.00  0.00    +0.000 C 
ATOM     69  H   UNL     1      -8.592  -7.318  14.967  0.00  0.00    +0.000 HD
ATOM     70  H   UNL     1      -7.748  -7.698  16.498  0.00  0.00    +0.000 HD
ATOM     71  H   UNL     1      -7.136  -6.434  15.420  0.00  0.00    +0.000 HD
ENDBRANCH  67  68
ENDBRANCH   1  67
TORSDOF 6
ENDMDL
MODEL 2
REMARK VINA RESULT:    -8.352      3.688      7.198
REMARK INTER + INTRA:         -10.342
REMARK INTER:                  -9.698
REMARK INTRA:                  -0.644
REMARK UNBOUND:                 0.207
REMARK  Name = 
REMARK  6 active torsions:
REMARK  status: ('A' for Active; 'I' for Inactive)
REMARK    1  A    between atoms: C_1  and  O_2
REMARK    2  A    between atoms: O_2  and  C_3
REMARK    3  A    between atoms: C_4  and  N_5
REMARK    4  A    between atoms: N_5  and  C_6
REMARK    5  A    between atoms: C_7  and  C_9
REMARK    6  A    between atoms: C_18  and  C_19
REMARK                            x       y       z     vdW  Elec       q    Type
REMARK                         _______ _______ _______ _____ _____    ______ ____
ROOT
ATOM      1  C   UNL     1      -9.884  -2.367  20.885  0.00  0.00    +0.000 C 
ATOM      2  C   UNL     1     -10.147  -1.130  21.816  0.00  0.00    +0.000 C 
ATOM      3  C   UNL     1      -9.915   0.184  21.035  0.00  0.00    +0.000 C 
ATOM      4  C   UNL     1     -10.219   0.120  19.539  0.00  0.00    +0.000 C 
ATOM      5  O   UNL     1     -11.221  -0.902  19.375  0.00  0.00    +0.000 OA
ATOM      6  C   UNL     1     -10.778  -2.272  19.622  0.00  0.00    +0.000 C 
ATOM      7  N   UNL     1     -10.124  -2.733  18.393  0.00  0.00    +0.000 N 
ATOM      8  C   UNL     1     -10.498  -3.834  17.566  0.00  0.00    +0.000 A 
ATOM      9  C   UNL     1     -10.294  -5.213  17.737  0.00  0.00    +0.000 A 
ATOM     10  C   UNL     1     -10.640  -6.073  16.682  0.00  0.00    +0.000 A 
ATOM     11  C   UNL     1     -11.231  -5.602  15.511  0.00  0.00    +0.000 A 
ATOM     12  C   UNL     1     -11.458  -4.247  15.323  0.00  0.00    +0.000 A 
ATOM     13  C   UNL     1     -11.044  -3.342  16.311  0.00  0.00    +0.000 A 
ATOM     14  C   UNL     1     -10.860  -1.948  16.286  0.00  0.00    +0.000 A 
ATOM     15  C   UNL     1     -10.803  -1.258  15.085  0.00  0.00    +0.000 A 
ATOM     16  C   UNL     1      -9.623  -0.545  14.881  0.00  0.00    +0.000 A 
ATOM     17  C   UNL     1      -9.053  -0.209  16.128  0.00  0.00    +0.000 A 
ATOM     18  C   UNL     1      -9.111   1.152  16.466  0.00  0.00    +0.000 A 
ATOM     19  C   UNL     1      -9.400   2.341  15.792  0.00  0.00    +0.000 A 
ATOM     20  C   UNL     1      -8.346   3.221  15.822  0.00  0.00    +0.000 A 
ATOM     21  C   UNL     1      -7.478   3.161  16.910  0.00  0.00    +0.000 A 
ATOM     22  C   UNL     1      -7.711   2.282  18.016  0.00  0.00    +0.000 A 
ATOM     23  C   UNL     1      -8.619   1.232  17.804  0.00  0.00    +0.000 A 
ATOM     24  N   UNL     1      -9.104   0.068  18.539  0.00  0.00    +0.000 N 
ATOM     25  C   UNL     1      -9.214  -0.736  17.420  0.00  0.00    +0.000 A 
ATOM     26  C   UNL     1     -10.033  -1.836  17.397  0.00  0.00    +0.000 A 
ATOM     27  C   UNL     1      -9.662   0.075  13.601  0.00  0.00    +0.000 C 
ATOM     28  O   UNL     1      -8.819   0.594  12.885  0.00  0.00    +0.000 OA
ATOM     29  N   UNL     1     -11.007  -0.049  13.258  0.00  0.00    +0.000 N 
ATOM     30  C   UNL     1     -11.856  -0.660  14.262  0.00  0.00    +0.000 C 
ATOM     31  H   UNL     1     -10.172  -3.304  21.407  0.00  0.00    +0.000 HD
ATOM     32  H   UNL     1     -11.213  -1.186  22.087  0.00  0.00    +0.000 HD
ATOM     33  H   UNL     1      -8.940   0.636  21.171  0.00  0.00    +0.000 HD
ATOM     34  H   UNL     1     -10.657   0.882  21.467  0.00  0.00    +0.000 HD
ATOM     35  H   UNL     1     -10.733   1.055  19.271  0.00  0.00    +0.000 HD
ATOM     36  H   UNL     1      -9.794  -5.610  18.616  0.00  0.00    +0.000 HD
ATOM     37  H   UNL     1     -10.416  -7.134  16.760  0.00  0.00    +0.000 HD
ATOM     38  H   UNL     1     -11.470  -6.285  14.701  0.00  0.00    +0.000 HD
ATOM     39  H   UNL     1     -11.842  -3.874  14.384  0.00  0.00    +0.000 HD
ATOM     40  H   UNL     1     -10.244   2.454  15.123  0.00  0.00    +0.000 HD
ATOM     41  H   UNL     1      -8.234   3.950  15.021  0.00  0.00    +0.000 HD
ATOM     42  H   UNL     1      -6.635   3.850  16.918  0.00  0.00    +0.000 HD
ATOM     43  H   UNL     1      -7.092   2.349  18.896  0.00  0.00    +0.000 HD
ATOM     44  H   UNL     1     -11.353   0.403  12.433  0.00  0.00    +0.000 HD
ATOM     45  H   UNL     1     -12.318   0.160  14.838  0.00  0.00    +0.000 HD
ATOM     46  H   UNL     1     -12.591  -1.345  13.862  0.00  0.00    +0.000 HD
ENDROOT
BRANCH   6  47
ATOM     47  C   UNL     1     -12.115  -3.022  19.822  0.00  0.00    +0.000 C 
ATOM     48  H   UNL     1     -12.015  -3.872  20.504  0.00  0.00    +0.000 HD
ATOM     49  H   UNL     1     -12.893  -2.355  20.205  0.00  0.00    +0.000 HD
ATOM     50  H   UNL     1     -12.493  -3.402  18.861  0.00  0.00    +0.000 HD
ENDBRANCH   6  47
BRANCH   2  51
ATOM     51  N   UNL     1      -9.447  -1.234  23.143  0.00  0.00    +0.000 N 
ATOM     52  C   UNL     1     -10.001  -2.031  24.169  0.00  0.00    +0.000 C 
ATOM     53  O   UNL     1     -11.154  -2.507  24.097  0.00  0.00    +0.000 OA
BRANCH  52  54
ATOM     54  C   UNL     1      -9.200  -2.420  25.360  0.00  0.00    +0.000 A 
ATOM     55  C   UNL     1      -8.403  -3.554  25.297  0.00  0.00    +0.000 A 
ATOM     56  N   UNL     1      -7.655  -3.972  26.351  0.00  0.00    +0.000 NA
ATOM     57  C   UNL     1      -7.757  -3.218  27.470  0.00  0.00    +0.000 A 
ATOM     58  C   UNL     1      -8.549  -2.084  27.530  0.00  0.00    +0.000 A 
ATOM     59  N   UNL     1      -9.286  -1.661  26.482  0.00  0.00    +0.000 NA
ATOM     60  H   UNL     1      -8.331  -4.150  24.393  0.00  0.00    +0.000 HD
ATOM     61  H   UNL     1      -7.175  -3.551  28.325  0.00  0.00    +0.000 HD
ATOM     62  H   UNL     1      -8.612  -1.483  28.430  0.00  0.00    +0.000 HD
ENDBRANCH  52  54
BRANCH  51  63
ATOM     63  C   UNL     1      -8.175  -0.551  23.351  0.00  0.00    +0.000 C 
ATOM     64  H   UNL     1      -8.162   0.453  22.930  0.00  0.00    +0.000 HD
ATOM     65  H   UNL     1      -8.003  -0.389  24.415  0.00  0.00    +0.000 HD
ATOM     66  H   UNL     1      -7.379  -1.158  22.918  0.00  0.00    +0.000 HD
ENDBRANCH  51  63
ENDBRANCH   2  51
BRANCH   1  67
ATOM     67  O   UNL     1      -8.467  -2.427  20.664  0.00  0.00    +0.000 OA
BRANCH  67  68
ATOM     68  C   UNL     1      -7.881  -3.672  21.039  0.00  0.00    +0.000 C 
ATOM     69  H   UNL     1      -7.701  -4.273  20.146  0.00  0.00    +0.000 HD
ATOM     70  H   UNL     1      -8.493  -4.237  21.750  0.00  0.00    +0.000 HD
ATOM     71  H   UNL     1      -6.914  -3.475  21.506  0.00  0.00    +0.000 HD
ENDBRANCH  67  68
ENDBRANCH   1  67
TORSDOF 6
ENDMDL
MODEL 3
REMARK VINA RESULT:    -7.455      4.479      8.118
REMARK INTER + INTRA:          -9.209
REMARK INTER:                  -9.238
REMARK INTRA:                   0.029
REMARK UNBOUND:                 0.207
REMARK  Name = 
REMARK  6 active torsions:
REMARK  status: ('A' for Active; 'I' for Inactive)
REMARK    1  A    between atoms: C_1  and  O_2
REMARK    2  A    between atoms: O_2  and  C_3
REMARK    3  A    between atoms: C_4  and  N_5
REMARK    4  A    between atoms: N_5  and  C_6
REMARK    5  A    between atoms: C_7  and  C_9
REMARK    6  A    between atoms: C_18  and  C_19
REMARK                            x       y       z     vdW  Elec       q    Type
REMARK                         _______ _______ _______ _____ _____    ______ ____
ROOT
ATOM      1  C   UNL     1     -10.901   0.441  19.841  0.00  0.00    +0.000 C 
ATOM      2  C   UNL     1      -9.527  -0.318  19.905  0.00  0.00    +0.000 C 
ATOM      3  C   UNL     1      -9.371  -1.241  18.674  0.00  0.00    +0.000 C 
ATOM      4  C   UNL     1     -10.055  -0.754  17.398  0.00  0.00    +0.000 C 
ATOM      5  O   UNL     1     -10.105   0.682  17.490  0.00  0.00    +0.000 OA
ATOM      6  C   UNL     1     -11.005   1.223  18.507  0.00  0.00    +0.000 C 
ATOM      7  N   UNL     1     -12.350   1.226  17.921  0.00  0.00    +0.000 N 
ATOM      8  C   UNL     1     -13.199   2.350  17.692  0.00  0.00    +0.000 A 
ATOM      9  C   UNL     1     -14.000   3.084  18.581  0.00  0.00    +0.000 A 
ATOM     10  C   UNL     1     -14.859   4.062  18.052  0.00  0.00    +0.000 A 
ATOM     11  C   UNL     1     -14.887   4.360  16.691  0.00  0.00    +0.000 A 
ATOM     12  C   UNL     1     -14.095   3.661  15.793  0.00  0.00    +0.000 A 
ATOM     13  C   UNL     1     -13.290   2.613  16.263  0.00  0.00    +0.000 A 
ATOM     14  C   UNL     1     -12.637   1.561  15.596  0.00  0.00    +0.000 A 
ATOM     15  C   UNL     1     -12.956   1.241  14.286  0.00  0.00    +0.000 A 
ATOM     16  C   UNL     1     -13.394  -0.069  14.100  0.00  0.00    +0.000 A 
ATOM     17  C   UNL     1     -12.859  -0.894  15.112  0.00  0.00    +0.000 A 
ATOM     18  C   UNL     1     -11.873  -1.799  14.688  0.00  0.00    +0.000 A 
ATOM     19  C   UNL     1     -11.407  -2.271  13.460  0.00  0.00    +0.000 A 
ATOM     20  C   UNL     1     -11.543  -3.633  13.344  0.00  0.00    +0.000 A 
ATOM     21  C   UNL     1     -11.501  -4.394  14.510  0.00  0.00    +0.000 A 
ATOM     22  C   UNL     1     -11.232  -3.804  15.788  0.00  0.00    +0.000 A 
ATOM     23  C   UNL     1     -11.382  -2.411  15.882  0.00  0.00    +0.000 A 
ATOM     24  N   UNL     1     -11.327  -1.394  16.927  0.00  0.00    +0.000 N 
ATOM     25  C   UNL     1     -12.334  -0.618  16.385  0.00  0.00    +0.000 A 
ATOM     26  C   UNL     1     -12.460   0.714  16.684  0.00  0.00    +0.000 A 
ATOM     27  C   UNL     1     -13.738  -0.261  12.732  0.00  0.00    +0.000 C 
ATOM     28  O   UNL     1     -14.363  -1.119  12.129  0.00  0.00    +0.000 OA
ATOM     29  N   UNL     1     -13.175   0.863  12.130  0.00  0.00    +0.000 N 
ATOM     30  C   UNL     1     -12.436   1.744  13.013  0.00  0.00    +0.000 C 
ATOM     31  H   UNL     1     -10.957   1.195  20.654  0.00  0.00    +0.000 HD
ATOM     32  H   UNL     1      -8.755   0.465  19.849  0.00  0.00    +0.000 HD
ATOM     33  H   UNL     1      -9.639  -2.278  18.837  0.00  0.00    +0.000 HD
ATOM     34  H   UNL     1      -8.285  -1.218  18.465  0.00  0.00    +0.000 HD
ATOM     35  H   UNL     1      -9.367  -0.953  16.563  0.00  0.00    +0.000 HD
ATOM     36  H   UNL     1     -14.038   2.849  19.641  0.00  0.00    +0.000 HD
ATOM     37  H   UNL     1     -15.546   4.585  18.712  0.00  0.00    +0.000 HD
ATOM     38  H   UNL     1     -15.575   5.106  16.304  0.00  0.00    +0.000 HD
ATOM     39  H   UNL     1     -14.175   3.836  14.729  0.00  0.00    +0.000 HD
ATOM     40  H   UNL     1     -11.200  -1.625  12.615  0.00  0.00    +0.000 HD
ATOM     41  H   UNL     1     -11.652  -4.078  12.356  0.00  0.00    +0.000 HD
ATOM     42  H   UNL     1     -11.627  -5.470  14.412  0.00  0.00    +0.000 HD
ATOM     43  H   UNL     1     -11.083  -4.434  16.649  0.00  0.00    +0.000 HD
ATOM     44  H   UNL     1     -13.171   0.941  11.130  0.00  0.00    +0.000 HD
ATOM     45  H   UNL     1     -11.373   1.459  12.940  0.00  0.00    +0.000 HD
ATOM     46  H   UNL     1     -12.593   2.796  12.821  0.00  0.00    +0.000 HD
ENDROOT
BRANCH   6  47
ATOM     47  C   UNL     1     -10.494   2.674  18.664  0.00  0.00    +0.000 C 
ATOM     48  H   UNL     1      -9.402   2.733  18.642  0.00  0.00    +0.000 HD
ATOM     49  H   UNL     1     -10.898   3.325  17.882  0.00  0.00    +0.000 HD
ATOM     50  H   UNL     1     -10.837   3.104  19.617  0.00  0.00    +0.000 HD
ENDBRANCH   6  47
BRANCH   2  51
ATOM     51  N   UNL     1      -9.274  -0.961  21.241  0.00  0.00    +0.000 N 
ATOM     52  C   UNL     1      -9.515  -0.233  22.427  0.00  0.00    +0.000 C 
ATOM     53  O   UNL     1      -9.749   0.995  22.423  0.00  0.00    +0.000 OA
BRANCH  52  54
ATOM     54  C   UNL     1      -9.590  -0.915  23.747  0.00  0.00    +0.000 A 
ATOM     55  C   UNL     1      -8.797  -0.458  24.789  0.00  0.00    +0.000 A 
ATOM     56  N   UNL     1      -8.808  -1.040  26.016  0.00  0.00    +0.000 NA
ATOM     57  C   UNL     1      -9.630  -2.107  26.145  0.00  0.00    +0.000 A 
ATOM     58  C   UNL     1     -10.425  -2.560  25.105  0.00  0.00    +0.000 A 
ATOM     59  N   UNL     1     -10.423  -1.977  23.888  0.00  0.00    +0.000 NA
ATOM     60  H   UNL     1      -8.142   0.399  24.672  0.00  0.00    +0.000 HD
ATOM     61  H   UNL     1      -9.636  -2.592  27.117  0.00  0.00    +0.000 HD
ATOM     62  H   UNL     1     -11.087  -3.409  25.225  0.00  0.00    +0.000 HD
ENDBRANCH  52  54
BRANCH  51  63
ATOM     63  C   UNL     1      -8.826  -2.347  21.309  0.00  0.00    +0.000 C 
ATOM     64  H   UNL     1      -8.867  -2.851  20.345  0.00  0.00    +0.000 HD
ATOM     65  H   UNL     1      -7.770  -2.389  21.580  0.00  0.00    +0.000 HD
ATOM     66  H   UNL     1      -9.435  -2.875  22.043  0.00  0.00    +0.000 HD
ENDBRANCH  51  63
ENDBRANCH   2  51
BRANCH   1  67
ATOM     67  O   UNL     1     -11.926  -0.531  20.096  0.00  0.00    +0.000 OA
BRANCH  67  68
ATOM     68  C   UNL     1     -12.761  -0.206  21.204  0.00  0.00    +0.000 C 
ATOM     69  H   UNL     1     -13.780  -0.032  20.855  0.00  0.00    +0.000 HD
ATOM     70  H   UNL     1     -12.408   0.667  21.766  0.00  0.00    +0.000 HD
ATOM     71  H   UNL     1     -12.785  -1.059  21.885  0.00  0.00    +0.000 HD
ENDBRANCH  67  68
ENDBRANCH   1  67
TORSDOF 6
ENDMDL
MODEL 4
REMARK VINA RESULT:    -7.320      4.387      9.333
REMARK INTER + INTRA:          -9.039
REMARK INTER:                  -8.470
REMARK INTRA:                  -0.569
REMARK UNBOUND:                 0.207
REMARK  Name = 
REMARK  6 active torsions:
REMARK  status: ('A' for Active; 'I' for Inactive)
REMARK    1  A    between atoms: C_1  and  O_2
REMARK    2  A    between atoms: O_2  and  C_3
REMARK    3  A    between atoms: C_4  and  N_5
REMARK    4  A    between atoms: N_5  and  C_6
REMARK    5  A    between atoms: C_7  and  C_9
REMARK    6  A    between atoms: C_18  and  C_19
REMARK                            x       y       z     vdW  Elec       q    Type
REMARK                         _______ _______ _______ _____ _____    ______ ____
ROOT
ATOM      1  C   UNL     1     -11.314   1.108  17.418  0.00  0.00    +0.000 C 
ATOM      2  C   UNL     1     -10.715   2.554  17.546  0.00  0.00    +0.000 C 
ATOM      3  C   UNL     1     -10.137   2.768  18.965  0.00  0.00    +0.000 C 
ATOM      4  C   UNL     1      -9.584   1.517  19.643  0.00  0.00    +0.000 C 
ATOM      5  O   UNL     1      -9.160   0.638  18.583  0.00  0.00    +0.000 OA
ATOM      6  C   UNL     1     -10.229   0.059  17.772  0.00  0.00    +0.000 C 
ATOM      7  N   UNL     1     -10.740  -1.100  18.513  0.00  0.00    +0.000 N 
ATOM      8  C   UNL     1     -10.751  -2.465  18.097  0.00  0.00    +0.000 A 
ATOM      9  C   UNL     1     -11.601  -3.141  17.207  0.00  0.00    +0.000 A 
ATOM     10  C   UNL     1     -11.475  -4.535  17.094  0.00  0.00    +0.000 A 
ATOM     11  C   UNL     1     -10.496  -5.245  17.787  0.00  0.00    +0.000 A 
ATOM     12  C   UNL     1      -9.633  -4.600  18.660  0.00  0.00    +0.000 A 
ATOM     13  C   UNL     1      -9.783  -3.223  18.876  0.00  0.00    +0.000 A 
ATOM     14  C   UNL     1      -9.290  -2.373  19.883  0.00  0.00    +0.000 A 
ATOM     15  C   UNL     1      -8.761  -2.889  21.055  0.00  0.00    +0.000 A 
ATOM     16  C   UNL     1      -9.401  -2.463  22.217  0.00  0.00    +0.000 A 
ATOM     17  C   UNL     1     -10.005  -1.207  21.990  0.00  0.00    +0.000 A 
ATOM     18  C   UNL     1      -9.397  -0.124  22.645  0.00  0.00    +0.000 A 
ATOM     19  C   UNL     1      -8.453   0.031  23.662  0.00  0.00    +0.000 A 
ATOM     20  C   UNL     1      -8.959   0.725  24.734  0.00  0.00    +0.000 A 
ATOM     21  C   UNL     1      -9.967   1.655  24.491  0.00  0.00    +0.000 A 
ATOM     22  C   UNL     1     -10.411   1.959  23.165  0.00  0.00    +0.000 A 
ATOM     23  C   UNL     1     -10.071   1.038  22.161  0.00  0.00    +0.000 A 
ATOM     24  N   UNL     1     -10.352   0.845  20.742  0.00  0.00    +0.000 N 
ATOM     25  C   UNL     1     -10.389  -0.534  20.818  0.00  0.00    +0.000 A 
ATOM     26  C   UNL     1     -10.188  -1.325  19.716  0.00  0.00    +0.000 A 
ATOM     27  C   UNL     1      -8.805  -3.096  23.343  0.00  0.00    +0.000 C 
ATOM     28  O   UNL     1      -9.135  -3.233  24.511  0.00  0.00    +0.000 OA
ATOM     29  N   UNL     1      -7.632  -3.616  22.797  0.00  0.00    +0.000 N 
ATOM     30  C   UNL     1      -7.401  -3.309  21.399  0.00  0.00    +0.000 C 
ATOM     31  H   UNL     1     -11.612   0.911  16.367  0.00  0.00    +0.000 HD
ATOM     32  H   UNL     1      -9.883   2.594  16.826  0.00  0.00    +0.000 HD
ATOM     33  H   UNL     1     -10.796   3.276  19.659  0.00  0.00    +0.000 HD
ATOM     34  H   UNL     1      -9.270   3.434  18.798  0.00  0.00    +0.000 HD
ATOM     35  H   UNL     1      -8.651   1.806  20.150  0.00  0.00    +0.000 HD
ATOM     36  H   UNL     1     -12.404  -2.627  16.686  0.00  0.00    +0.000 HD
ATOM     37  H   UNL     1     -12.176  -5.088  16.473  0.00  0.00    +0.000 HD
ATOM     38  H   UNL     1     -10.432  -6.326  17.699  0.00  0.00    +0.000 HD
ATOM     39  H   UNL     1      -8.928  -5.161  19.258  0.00  0.00    +0.000 HD
ATOM     40  H   UNL     1      -7.531  -0.535  23.708  0.00  0.00    +0.000 HD
ATOM     41  H   UNL     1      -8.545   0.553  25.727  0.00  0.00    +0.000 HD
ATOM     42  H   UNL     1     -10.373   2.189  25.348  0.00  0.00    +0.000 HD
ATOM     43  H   UNL     1     -11.102   2.770  23.002  0.00  0.00    +0.000 HD
ATOM     44  H   UNL     1      -6.948  -4.034  23.399  0.00  0.00    +0.000 HD
ATOM     45  H   UNL     1      -6.749  -2.420  21.367  0.00  0.00    +0.000 HD
ATOM     46  H   UNL     1      -7.001  -4.134  20.826  0.00  0.00    +0.000 HD
ENDROOT
BRANCH   6  47
ATOM     47  C   UNL     1      -9.470  -0.414  16.511  0.00  0.00    +0.000 C 
ATOM     48  H   UNL     1      -8.722  -1.178  16.740  0.00  0.00    +0.000 HD
ATOM     49  H   UNL     1     -10.158  -0.809  15.757  0.00  0.00    +0.000 HD
ATOM     50  H   UNL     1      -8.953   0.431  16.031  0.00  0.00    +0.000 HD
ENDBRANCH   6  47
BRANCH   2  51
ATOM     51  N   UNL     1     -11.651   3.623  17.053  0.00  0.00    +0.000 N 
ATOM     52  C   UNL     1     -11.928   3.731  15.672  0.00  0.00    +0.000 C 
ATOM     53  O   UNL     1     -11.281   3.100  14.809  0.00  0.00    +0.000 OA
BRANCH  52  54
ATOM     54  C   UNL     1     -13.072   4.542  15.177  0.00  0.00    +0.000 A 
ATOM     55  C   UNL     1     -14.327   3.958  15.091  0.00  0.00    +0.000 A 
ATOM     56  N   UNL     1     -15.413   4.637  14.638  0.00  0.00    +0.000 NA
ATOM     57  C   UNL     1     -15.180   5.915  14.258  0.00  0.00    +0.000 A 
ATOM     58  C   UNL     1     -13.927   6.499  14.349  0.00  0.00    +0.000 A 
ATOM     59  N   UNL     1     -12.850   5.829  14.808  0.00  0.00    +0.000 NA
ATOM     60  H   UNL     1     -14.500   2.931  15.399  0.00  0.00    +0.000 HD
ATOM     61  H   UNL     1     -16.037   6.465  13.879  0.00  0.00    +0.000 HD
ATOM     62  H   UNL     1     -13.758   7.527  14.051  0.00  0.00    +0.000 HD
ENDBRANCH  52  54
BRANCH  51  63
ATOM     63  C   UNL     1     -12.306   4.513  18.005  0.00  0.00    +0.000 C 
ATOM     64  H   UNL     1     -13.390   4.508  17.910  0.00  0.00    +0.000 HD
ATOM     65  H   UNL     1     -12.132   4.168  19.024  0.00  0.00    +0.000 HD
ATOM     66  H   UNL     1     -11.914   5.521  17.865  0.00  0.00    +0.000 HD
ENDBRANCH  51  63
ENDBRANCH   2  51
BRANCH   1  67
ATOM     67  O   UNL     1     -12.512   1.083  18.208  0.00  0.00    +0.000 OA
BRANCH  67  68
ATOM     68  C   UNL     1     -13.708   1.053  17.432  0.00  0.00    +0.000 C 
ATOM     69  H   UNL     1     -13.503   0.596  16.463  0.00  0.00    +0.000 HD
ATOM     70  H   UNL     1     -14.152   2.044  17.289  0.00  0.00    +0.000 HD
ATOM     71  H   UNL     1     -14.440   0.425  17.945  0.00  0.00    +0.000 HD
ENDBRANCH  67  68
ENDBRANCH   1  67
TORSDOF 6
ENDMDL
MODEL 5
REMARK VINA RESULT:    -7.315      3.745      6.705
REMARK INTER + INTRA:          -9.032
REMARK INTER:                  -8.839
REMARK INTRA:                  -0.193
REMARK UNBOUND:                 0.207
REMARK  Name = 
REMARK  6 active torsions:
REMARK  status: ('A' for Active; 'I' for Inactive)
REMARK    1  A    between atoms: C_1  and  O_2
REMARK    2  A    between atoms: O_2  and  C_3
REMARK    3  A    between atoms: C_4  and  N_5
REMARK    4  A    between atoms: N_5  and  C_6
REMARK    5  A    between atoms: C_7  and  C_9
REMARK    6  A    between atoms: C_18  and  C_19
REMARK                            x       y       z     vdW  Elec       q    Type
REMARK                         _______ _______ _______ _____ _____    ______ ____
ROOT
ATOM      1  C   UNL     1     -10.969  -0.086  18.854  0.00  0.00    +0.000 C 
ATOM      2  C   UNL     1     -11.332  -1.374  19.677  0.00  0.00    +0.000 C 
ATOM      3  C   UNL     1     -11.168  -1.103  21.191  0.00  0.00    +0.000 C 
ATOM      4  C   UNL     1     -11.435   0.335  21.632  0.00  0.00    +0.000 C 
ATOM      5  O   UNL     1     -12.365   0.883  20.678  0.00  0.00    +0.000 OA
ATOM      6  C   UNL     1     -11.840   1.103  19.333  0.00  0.00    +0.000 C 
ATOM      7  N   UNL     1     -11.131   2.387  19.362  0.00  0.00    +0.000 N 
ATOM      8  C   UNL     1     -11.415   3.558  18.596  0.00  0.00    +0.000 A 
ATOM      9  C   UNL     1     -11.126   3.864  17.257  0.00  0.00    +0.000 A 
ATOM     10  C   UNL     1     -11.393   5.164  16.798  0.00  0.00    +0.000 A 
ATOM     11  C   UNL     1     -11.989   6.125  17.613  0.00  0.00    +0.000 A 
ATOM     12  C   UNL     1     -12.298   5.845  18.935  0.00  0.00    +0.000 A 
ATOM     13  C   UNL     1     -11.965   4.589  19.463  0.00  0.00    +0.000 A 
ATOM     14  C   UNL     1     -11.870   4.125  20.787  0.00  0.00    +0.000 A 
ATOM     15  C   UNL     1     -11.833   5.011  21.852  0.00  0.00    +0.000 A 
ATOM     16  C   UNL     1     -10.697   4.907  22.653  0.00  0.00    +0.000 A 
ATOM     17  C   UNL     1     -10.176   3.598  22.566  0.00  0.00    +0.000 A 
ATOM     18  C   UNL     1     -10.329   2.815  23.721  0.00  0.00    +0.000 A 
ATOM     19  C   UNL     1     -10.680   3.050  25.052  0.00  0.00    +0.000 A 
ATOM     20  C   UNL     1      -9.685   2.674  25.922  0.00  0.00    +0.000 A 
ATOM     21  C   UNL     1      -8.839   1.637  25.536  0.00  0.00    +0.000 A 
ATOM     22  C   UNL     1      -9.039   0.912  24.317  0.00  0.00    +0.000 A 
ATOM     23  C   UNL     1      -9.873   1.511  23.359  0.00  0.00    +0.000 A 
ATOM     24  N   UNL     1     -10.297   1.243  21.988  0.00  0.00    +0.000 N 
ATOM     25  C   UNL     1     -10.331   2.574  21.617  0.00  0.00    +0.000 A 
ATOM     26  C   UNL     1     -11.077   3.009  20.551  0.00  0.00    +0.000 A 
ATOM     27  C   UNL     1     -10.748   5.896  23.675  0.00  0.00    +0.000 C 
ATOM     28  O   UNL     1      -9.925   6.353  24.453  0.00  0.00    +0.000 OA
ATOM     29  N   UNL     1     -12.075   6.317  23.605  0.00  0.00    +0.000 N 
ATOM     30  C   UNL     1     -12.904   5.622  22.641  0.00  0.00    +0.000 C 
ATOM     31  H   UNL     1     -11.208  -0.241  17.781  0.00  0.00    +0.000 HD
ATOM     32  H   UNL     1     -12.398  -1.563  19.474  0.00  0.00    +0.000 HD
ATOM     33  H   UNL     1     -10.227  -1.428  21.618  0.00  0.00    +0.000 HD
ATOM     34  H   UNL     1     -11.962  -1.717  21.655  0.00  0.00    +0.000 HD
ATOM     35  H   UNL     1     -12.002   0.286  22.574  0.00  0.00    +0.000 HD
ATOM     36  H   UNL     1     -10.621   3.155  16.607  0.00  0.00    +0.000 HD
ATOM     37  H   UNL     1     -11.103   5.446  15.789  0.00  0.00    +0.000 HD
ATOM     38  H   UNL     1     -12.165   7.130  17.241  0.00  0.00    +0.000 HD
ATOM     39  H   UNL     1     -12.685   6.614  19.589  0.00  0.00    +0.000 HD
ATOM     40  H   UNL     1     -11.515   3.674  25.345  0.00  0.00    +0.000 HD
ATOM     41  H   UNL     1      -9.603   3.170  26.888  0.00  0.00    +0.000 HD
ATOM     42  H   UNL     1      -8.043   1.357  26.223  0.00  0.00    +0.000 HD
ATOM     43  H   UNL     1      -8.445   0.038  24.108  0.00  0.00    +0.000 HD
ATOM     44  H   UNL     1     -12.431   6.951  24.296  0.00  0.00    +0.000 HD
ATOM     45  H   UNL     1     -13.430   4.820  23.185  0.00  0.00    +0.000 HD
ATOM     46  H   UNL     1     -13.584   6.264  22.098  0.00  0.00    +0.000 HD
ENDROOT
BRANCH   6  47
ATOM     47  C   UNL     1     -13.130   1.231  18.490  0.00  0.00    +0.000 C 
ATOM     48  H   UNL     1     -13.148   0.528  17.652  0.00  0.00    +0.000 HD
ATOM     49  H   UNL     1     -14.023   1.072  19.102  0.00  0.00    +0.000 HD
ATOM     50  H   UNL     1     -13.225   2.248  18.080  0.00  0.00    +0.000 HD
ENDBRANCH   6  47
BRANCH   2  51
ATOM     51  N   UNL     1     -10.654  -2.613  19.157  0.00  0.00    +0.000 N 
ATOM     52  C   UNL     1     -11.308  -3.421  18.201  0.00  0.00    +0.000 C 
ATOM     53  O   UNL     1     -12.512  -3.264  17.903  0.00  0.00    +0.000 OA
BRANCH  52  54
ATOM     54  C   UNL     1     -10.566  -4.454  17.430  0.00  0.00    +0.000 A 
ATOM     55  C   UNL     1     -10.468  -4.328  16.052  0.00  0.00    +0.000 A 
ATOM     56  N   UNL     1      -9.816  -5.240  15.286  0.00  0.00    +0.000 NA
ATOM     57  C   UNL     1      -9.286  -6.289  15.957  0.00  0.00    +0.000 A 
ATOM     58  C   UNL     1      -9.380  -6.411  17.334  0.00  0.00    +0.000 A 
ATOM     59  N   UNL     1     -10.020  -5.501  18.098  0.00  0.00    +0.000 NA
ATOM     60  H   UNL     1     -10.899  -3.482  15.526  0.00  0.00    +0.000 HD
ATOM     61  H   UNL     1      -8.774  -7.034  15.355  0.00  0.00    +0.000 HD
ATOM     62  H   UNL     1      -8.941  -7.251  17.860  0.00  0.00    +0.000 HD
ENDBRANCH  52  54
BRANCH  51  63
ATOM     63  C   UNL     1      -9.308  -2.949  19.605  0.00  0.00    +0.000 C 
ATOM     64  H   UNL     1      -8.710  -3.421  18.828  0.00  0.00    +0.000 HD
ATOM     65  H   UNL     1      -8.754  -2.042  19.846  0.00  0.00    +0.000 HD
ATOM     66  H   UNL     1      -9.384  -3.599  20.478  0.00  0.00    +0.000 HD
ENDBRANCH  51  63
ENDBRANCH   2  51
BRANCH   1  67
ATOM     67  O   UNL     1      -9.546   0.081  18.950  0.00  0.00    +0.000 OA
BRANCH  67  68
ATOM     68  C   UNL     1      -8.910   0.298  17.693  0.00  0.00    +0.000 C 
ATOM     69  H   UNL     1      -9.655   0.269  16.897  0.00  0.00    +0.000 HD
ATOM     70  H   UNL     1      -8.115  -0.428  17.483  0.00  0.00    +0.000 HD
ATOM     71  H   UNL     1      -8.465   1.296  17.694  0.00  0.00    +0.000 HD
ENDBRANCH  67  68
ENDBRANCH   1  67
TORSDOF 6
ENDMDL
MODEL 6
REMARK VINA RESULT:    -7.308      3.253      8.519
REMARK INTER + INTRA:          -9.023
REMARK INTER:                  -9.472
REMARK INTRA:                   0.449
REMARK UNBOUND:                 0.207
REMARK  Name = 
REMARK  6 active torsions:
REMARK  status: ('A' for Active; 'I' for Inactive)
REMARK    1  A    between atoms: C_1  and  O_2
REMARK    2  A    between atoms: O_2  and  C_3
REMARK    3  A    between atoms: C_4  and  N_5
REMARK    4  A    between atoms: N_5  and  C_6
REMARK    5  A    between atoms: C_7  and  C_9
REMARK    6  A    between atoms: C_18  and  C_19
REMARK                            x       y       z     vdW  Elec       q    Type
REMARK                         _______ _______ _______ _____ _____    ______ ____
ROOT
ATOM      1  C   UNL     1     -10.448  -1.970  20.412  0.00  0.00    +0.000 C 
ATOM      2  C   UNL     1     -11.195  -0.647  20.812  0.00  0.00    +0.000 C 
ATOM      3  C   UNL     1     -11.223   0.332  19.616  0.00  0.00    +0.000 C 
ATOM      4  C   UNL     1     -11.257  -0.320  18.235  0.00  0.00    +0.000 C 
ATOM      5  O   UNL     1     -11.889  -1.602  18.411  0.00  0.00    +0.000 OA
ATOM      6  C   UNL     1     -11.122  -2.593  19.162  0.00  0.00    +0.000 C 
ATOM      7  N   UNL     1     -10.178  -3.201  18.218  0.00  0.00    +0.000 N 
ATOM      8  C   UNL     1     -10.090  -4.573  17.835  0.00  0.00    +0.000 A 
ATOM      9  C   UNL     1      -9.534  -5.673  18.508  0.00  0.00    +0.000 A 
ATOM     10  C   UNL     1      -9.451  -6.898  17.826  0.00  0.00    +0.000 A 
ATOM     11  C   UNL     1      -9.959  -7.061  16.538  0.00  0.00    +0.000 A 
ATOM     12  C   UNL     1     -10.527  -5.995  15.857  0.00  0.00    +0.000 A 
ATOM     13  C   UNL     1     -10.547  -4.730  16.463  0.00  0.00    +0.000 A 
ATOM     14  C   UNL     1     -10.763  -3.443  15.938  0.00  0.00    +0.000 A 
ATOM     15  C   UNL     1     -10.715  -3.213  14.572  0.00  0.00    +0.000 A 
ATOM     16  C   UNL     1      -9.768  -2.271  14.176  0.00  0.00    +0.000 A 
ATOM     17  C   UNL     1      -9.521  -1.375  15.239  0.00  0.00    +0.000 A 
ATOM     18  C   UNL     1     -10.014  -0.074  15.052  0.00  0.00    +0.000 A 
ATOM     19  C   UNL     1     -10.517   0.663  13.978  0.00  0.00    +0.000 A 
ATOM     20  C   UNL     1      -9.773   1.792  13.732  0.00  0.00    +0.000 A 
ATOM     21  C   UNL     1      -9.107   2.379  14.805  0.00  0.00    +0.000 A 
ATOM     22  C   UNL     1      -9.254   1.893  16.144  0.00  0.00    +0.000 A 
ATOM     23  C   UNL     1      -9.783   0.600  16.289  0.00  0.00    +0.000 A 
ATOM     24  N   UNL     1     -10.028  -0.342  17.376  0.00  0.00    +0.000 N 
ATOM     25  C   UNL     1      -9.728  -1.463  16.625  0.00  0.00    +0.000 A 
ATOM     26  C   UNL     1     -10.189  -2.709  16.969  0.00  0.00    +0.000 A 
ATOM     27  C   UNL     1      -9.778  -2.160  12.758  0.00  0.00    +0.000 C 
ATOM     28  O   UNL     1      -9.014  -1.668  11.941  0.00  0.00    +0.000 OA
ATOM     29  N   UNL     1     -10.962  -2.816  12.423  0.00  0.00    +0.000 N 
ATOM     30  C   UNL     1     -11.751  -3.295  13.541  0.00  0.00    +0.000 C 
ATOM     31  H   UNL     1     -10.539  -2.719  21.226  0.00  0.00    +0.000 HD
ATOM     32  H   UNL     1     -12.230  -0.949  21.036  0.00  0.00    +0.000 HD
ATOM     33  H   UNL     1     -10.450   1.091  19.622  0.00  0.00    +0.000 HD
ATOM     34  H   UNL     1     -12.190   0.857  19.729  0.00  0.00    +0.000 HD
ATOM     35  H   UNL     1     -11.965   0.255  17.620  0.00  0.00    +0.000 HD
ATOM     36  H   UNL     1      -9.088  -5.572  19.493  0.00  0.00    +0.000 HD
ATOM     37  H   UNL     1      -8.952  -7.741  18.297  0.00  0.00    +0.000 HD
ATOM     38  H   UNL     1      -9.864  -8.013  16.024  0.00  0.00    +0.000 HD
ATOM     39  H   UNL     1     -10.848  -6.100  14.830  0.00  0.00    +0.000 HD
ATOM     40  H   UNL     1     -11.242   0.270  13.276  0.00  0.00    +0.000 HD
ATOM     41  H   UNL     1      -9.747   2.207  12.726  0.00  0.00    +0.000 HD
ATOM     42  H   UNL     1      -8.507   3.263  14.599  0.00  0.00    +0.000 HD
ATOM     43  H   UNL     1      -8.827   2.444  16.965  0.00  0.00    +0.000 HD
ATOM     44  H   UNL     1     -11.286  -2.801  11.474  0.00  0.00    +0.000 HD
ATOM     45  H   UNL     1     -12.510  -2.524  13.754  0.00  0.00    +0.000 HD
ATOM     46  H   UNL     1     -12.188  -4.272  13.386  0.00  0.00    +0.000 HD
ENDROOT
BRANCH   6  47
ATOM     47  C   UNL     1     -12.206  -3.621  19.561  0.00  0.00    +0.000 C 
ATOM     48  H   UNL     1     -12.069  -3.991  20.581  0.00  0.00    +0.000 HD
ATOM     49  H   UNL     1     -13.210  -3.194  19.473  0.00  0.00    +0.000 HD
ATOM     50  H   UNL     1     -12.188  -4.486  18.882  0.00  0.00    +0.000 HD
ENDBRANCH   6  47
BRANCH   2  51
ATOM     51  N   UNL     1     -10.712  -0.073  22.116  0.00  0.00    +0.000 N 
ATOM     52  C   UNL     1     -10.351   1.290  22.192  0.00  0.00    +0.000 C 
ATOM     53  O   UNL     1     -10.227   2.007  21.176  0.00  0.00    +0.000 OA
BRANCH  52  54
ATOM     54  C   UNL     1     -10.181   1.971  23.504  0.00  0.00    +0.000 A 
ATOM     55  C   UNL     1     -11.114   2.917  23.900  0.00  0.00    +0.000 A 
ATOM     56  N   UNL     1     -11.015   3.584  25.079  0.00  0.00    +0.000 NA
ATOM     57  C   UNL     1      -9.932   3.275  25.830  0.00  0.00    +0.000 A 
ATOM     58  C   UNL     1      -9.003   2.326  25.436  0.00  0.00    +0.000 A 
ATOM     59  N   UNL     1      -9.105   1.655  24.269  0.00  0.00    +0.000 NA
ATOM     60  H   UNL     1     -11.978   3.156  23.287  0.00  0.00    +0.000 HD
ATOM     61  H   UNL     1      -9.832   3.812  26.769  0.00  0.00    +0.000 HD
ATOM     62  H   UNL     1      -8.147   2.080  26.053  0.00  0.00    +0.000 HD
ENDBRANCH  52  54
BRANCH  51  63
ATOM     63  C   UNL     1     -10.663  -0.912  23.308  0.00  0.00    +0.000 C 
ATOM     64  H   UNL     1     -11.285  -1.801  23.223  0.00  0.00    +0.000 HD
ATOM     65  H   UNL     1      -9.658  -1.310  23.448  0.00  0.00    +0.000 HD
ATOM     66  H   UNL     1     -10.966  -0.314  24.168  0.00  0.00    +0.000 HD
ENDBRANCH  51  63
ENDBRANCH   2  51
BRANCH   1  67
ATOM     67  O   UNL     1      -9.056  -1.642  20.293  0.00  0.00    +0.000 OA
BRANCH  67  68
ATOM     68  C   UNL     1      -8.203  -2.476  21.074  0.00  0.00    +0.000 C 
ATOM     69  H   UNL     1      -8.666  -2.665  22.043  0.00  0.00    +0.000 HD
ATOM     70  H   UNL     1      -7.202  -2.053  21.217  0.00  0.00    +0.000 HD
ATOM     71  H   UNL     1      -8.095  -3.437  20.565  0.00  0.00    +0.000 HD
ENDBRANCH  67  68
ENDBRANCH   1  67
TORSDOF 6
ENDMDL
MODEL 7
REMARK VINA RESULT:    -7.300      4.115      8.600
REMARK INTER + INTRA:          -9.013
REMARK INTER:                  -8.348
REMARK INTRA:                  -0.665
REMARK UNBOUND:                 0.207
REMARK  Name = 
REMARK  6 active torsions:
REMARK  status: ('A' for Active; 'I' for Inactive)
REMARK    1  A    between atoms: C_1  and  O_2
REMARK    2  A    between atoms: O_2  and  C_3
REMARK    3  A    between atoms: C_4  and  N_5
REMARK    4  A    between atoms: N_5  and  C_6
REMARK    5  A    between atoms: C_7  and  C_9
REMARK    6  A    between atoms: C_18  and  C_19
REMARK                            x       y       z     vdW  Elec       q    Type
REMARK                         _______ _______ _______ _____ _____    ______ ____
ROOT
ATOM      1  C   UNL     1     -11.513   0.199  16.145  0.00  0.00    +0.000 C 
ATOM      2  C   UNL     1     -11.235   1.741  16.029  0.00  0.00    +0.000 C 
ATOM      3  C   UNL     1     -11.057   2.358  17.435  0.00  0.00    +0.000 C 
ATOM      4  C   UNL     1     -10.459   1.428  18.489  0.00  0.00    +0.000 C 
ATOM      5  O   UNL     1      -9.645   0.480  17.774  0.00  0.00    +0.000 OA
ATOM      6  C   UNL     1     -10.368  -0.480  16.942  0.00  0.00    +0.000 C 
ATOM      7  N   UNL     1     -10.819  -1.555  17.832  0.00  0.00    +0.000 N 
ATOM      8  C   UNL     1     -10.481  -2.941  17.766  0.00  0.00    +0.000 A 
ATOM      9  C   UNL     1     -10.960  -3.957  16.924  0.00  0.00    +0.000 A 
ATOM     10  C   UNL     1     -10.558  -5.278  17.179  0.00  0.00    +0.000 A 
ATOM     11  C   UNL     1      -9.656  -5.591  18.195  0.00  0.00    +0.000 A 
ATOM     12  C   UNL     1      -9.156  -4.605  19.032  0.00  0.00    +0.000 A 
ATOM     13  C   UNL     1      -9.602  -3.284  18.874  0.00  0.00    +0.000 A 
ATOM     14  C   UNL     1      -9.524  -2.162  19.718  0.00  0.00    +0.000 A 
ATOM     15  C   UNL     1      -9.200  -2.299  21.058  0.00  0.00    +0.000 A 
ATOM     16  C   UNL     1     -10.163  -1.812  21.940  0.00  0.00    +0.000 A 
ATOM     17  C   UNL     1     -10.916  -0.800  21.305  0.00  0.00    +0.000 A 
ATOM     18  C   UNL     1     -10.688   0.502  21.779  0.00  0.00    +0.000 A 
ATOM     19  C   UNL     1     -10.055   1.068  22.887  0.00  0.00    +0.000 A 
ATOM     20  C   UNL     1     -10.917   1.825  23.644  0.00  0.00    +0.000 A 
ATOM     21  C   UNL     1     -11.992   2.430  22.997  0.00  0.00    +0.000 A 
ATOM     22  C   UNL     1     -12.160   2.354  21.577  0.00  0.00    +0.000 A 
ATOM     23  C   UNL     1     -11.430   1.357  20.910  0.00  0.00    +0.000 A 
ATOM     24  N   UNL     1     -11.329   0.828  19.553  0.00  0.00    +0.000 N 
ATOM     25  C   UNL     1     -11.129  -0.479  19.955  0.00  0.00    +0.000 A 
ATOM     26  C   UNL     1     -10.534  -1.405  19.136  0.00  0.00    +0.000 A 
ATOM     27  C   UNL     1      -9.743  -2.055  23.277  0.00  0.00    +0.000 C 
ATOM     28  O   UNL     1     -10.309  -2.031  24.360  0.00  0.00    +0.000 OA
ATOM     29  N   UNL     1      -8.400  -2.386  23.105  0.00  0.00    +0.000 N 
ATOM     30  C   UNL     1      -7.907  -2.317  21.744  0.00  0.00    +0.000 C 
ATOM     31  H   UNL     1     -11.513  -0.265  15.137  0.00  0.00    +0.000 HD
ATOM     32  H   UNL     1     -10.278   1.828  15.490  0.00  0.00    +0.000 HD
ATOM     33  H   UNL     1     -11.942   2.827  17.848  0.00  0.00    +0.000 HD
ATOM     34  H   UNL     1     -10.312   3.160  17.278  0.00  0.00    +0.000 HD
ATOM     35  H   UNL     1      -9.742   2.020  19.076  0.00  0.00    +0.000 HD
ATOM     36  H   UNL     1     -11.697  -3.756  16.152  0.00  0.00    +0.000 HD
ATOM     37  H   UNL     1     -10.979  -6.089  16.591  0.00  0.00    +0.000 HD
ATOM     38  H   UNL     1      -9.377  -6.623  18.386  0.00  0.00    +0.000 HD
ATOM     39  H   UNL     1      -8.521  -4.857  19.870  0.00  0.00    +0.000 HD
ATOM     40  H   UNL     1      -9.081   0.752  23.242  0.00  0.00    +0.000 HD
ATOM     41  H   UNL     1     -10.724   1.953  24.708  0.00  0.00    +0.000 HD
ATOM     42  H   UNL     1     -12.679   3.013  23.606  0.00  0.00    +0.000 HD
ATOM     43  H   UNL     1     -12.928   2.935  21.095  0.00  0.00    +0.000 HD
ATOM     44  H   UNL     1      -7.813  -2.507  23.909  0.00  0.00    +0.000 HD
ATOM     45  H   UNL     1      -7.439  -1.326  21.620  0.00  0.00    +0.000 HD
ATOM     46  H   UNL     1      -7.239  -3.123  21.474  0.00  0.00    +0.000 HD
ENDROOT
BRANCH   6  47
ATOM     47  C   UNL     1      -9.260  -1.003  15.999  0.00  0.00    +0.000 C 
ATOM     48  H   UNL     1      -9.395  -0.657  14.970  0.00  0.00    +0.000 HD
ATOM     49  H   UNL     1      -8.267  -0.701  16.345  0.00  0.00    +0.000 HD
ATOM     50  H   UNL     1      -9.251  -2.104  15.987  0.00  0.00    +0.000 HD
ENDBRANCH   6  47
BRANCH   2  51
ATOM     51  N   UNL     1     -12.209   2.445  15.123  0.00  0.00    +0.000 N 
ATOM     52  C   UNL     1     -12.207   2.166  13.739  0.00  0.00    +0.000 C 
ATOM     53  O   UNL     1     -11.301   1.501  13.191  0.00  0.00    +0.000 OA
BRANCH  52  54
ATOM     54  C   UNL     1     -13.338   2.582  12.868  0.00  0.00    +0.000 A 
ATOM     55  C   UNL     1     -14.440   1.748  12.748  0.00  0.00    +0.000 A 
ATOM     56  N   UNL     1     -15.503   2.060  11.962  0.00  0.00    +0.000 NA
ATOM     57  C   UNL     1     -15.403   3.230  11.290  0.00  0.00    +0.000 A 
ATOM     58  C   UNL     1     -14.304   4.065  11.414  0.00  0.00    +0.000 A 
ATOM     59  N   UNL     1     -13.251   3.761  12.202  0.00  0.00    +0.000 NA
ATOM     60  H   UNL     1     -14.507   0.811  13.293  0.00  0.00    +0.000 HD
ATOM     61  H   UNL     1     -16.239   3.485  10.645  0.00  0.00    +0.000 HD
ATOM     62  H   UNL     1     -14.242   5.004  10.878  0.00  0.00    +0.000 HD
ENDBRANCH  52  54
BRANCH  51  63
ATOM     63  C   UNL     1     -13.181   3.375  15.683  0.00  0.00    +0.000 C 
ATOM     64  H   UNL     1     -13.960   2.877  16.258  0.00  0.00    +0.000 HD
ATOM     65  H   UNL     1     -12.701   4.031  16.410  0.00  0.00    +0.000 HD
ATOM     66  H   UNL     1     -13.617   3.955  14.869  0.00  0.00    +0.000 HD
ENDBRANCH  51  63
ENDBRANCH   2  51
BRANCH   1  67
ATOM     67  O   UNL     1     -12.838   0.053  16.678  0.00  0.00    +0.000 OA
BRANCH  67  68
ATOM     68  C   UNL     1     -13.726  -0.652  15.815  0.00  0.00    +0.000 C 
ATOM     69  H   UNL     1     -14.697  -0.153  15.805  0.00  0.00    +0.000 HD
ATOM     70  H   UNL     1     -13.853  -1.704  16.096  0.00  0.00    +0.000 HD
ATOM     71  H   UNL     1     -13.326  -0.619  14.799  0.00  0.00    +0.000 HD
ENDBRANCH  67  68
ENDBRANCH   1  67
TORSDOF 6
ENDMDL
MODEL 8
REMARK VINA RESULT:    -7.119      5.179      8.163
REMARK INTER + INTRA:          -8.785
REMARK INTER:                  -8.144
REMARK INTRA:                  -0.640
REMARK UNBOUND:                 0.207
REMARK  Name = 
REMARK  6 active torsions:
REMARK  status: ('A' for Active; 'I' for Inactive)
REMARK    1  A    between atoms: C_1  and  O_2
REMARK    2  A    between atoms: O_2  and  C_3
REMARK    3  A    between atoms: C_4  and  N_5
REMARK    4  A    between atoms: N_5  and  C_6
REMARK    5  A    between atoms: C_7  and  C_9
REMARK    6  A    between atoms: C_18  and  C_19
REMARK                            x       y       z     vdW  Elec       q    Type
REMARK                         _______ _______ _______ _____ _____    ______ ____
ROOT
ATOM      1  C   UNL     1     -11.271  -0.000  16.402  0.00  0.00    +0.000 C 
ATOM      2  C   UNL     1     -10.898   0.872  15.150  0.00  0.00    +0.000 C 
ATOM      3  C   UNL     1     -11.501   2.289  15.289  0.00  0.00    +0.000 C 
ATOM      4  C   UNL     1     -11.637   2.807  16.719  0.00  0.00    +0.000 C 
ATOM      5  O   UNL     1     -10.611   2.147  17.486  0.00  0.00    +0.000 OA
ATOM      6  C   UNL     1     -10.798   0.713  17.695  0.00  0.00    +0.000 C 
ATOM      7  N   UNL     1     -11.720   0.567  18.827  0.00  0.00    +0.000 N 
ATOM      8  C   UNL     1     -11.472  -0.076  20.077  0.00  0.00    +0.000 A 
ATOM      9  C   UNL     1     -11.453  -1.440  20.411  0.00  0.00    +0.000 A 
ATOM     10  C   UNL     1     -11.327  -1.791  21.765  0.00  0.00    +0.000 A 
ATOM     11  C   UNL     1     -11.159  -0.832  22.763  0.00  0.00    +0.000 A 
ATOM     12  C   UNL     1     -11.160   0.520  22.458  0.00  0.00    +0.000 A 
ATOM     13  C   UNL     1     -11.375   0.921  21.131  0.00  0.00    +0.000 A 
ATOM     14  C   UNL     1     -11.724   2.164  20.573  0.00  0.00    +0.000 A 
ATOM     15  C   UNL     1     -12.207   3.192  21.368  0.00  0.00    +0.000 A 
ATOM     16  C   UNL     1     -13.471   3.656  21.010  0.00  0.00    +0.000 A 
ATOM     17  C   UNL     1     -13.693   3.413  19.637  0.00  0.00    +0.000 A 
ATOM     18  C   UNL     1     -13.702   4.555  18.821  0.00  0.00    +0.000 A 
ATOM     19  C   UNL     1     -13.764   5.935  19.029  0.00  0.00    +0.000 A 
ATOM     20  C   UNL     1     -14.861   6.499  18.425  0.00  0.00    +0.000 A 
ATOM     21  C   UNL     1     -15.364   5.884  17.281  0.00  0.00    +0.000 A 
ATOM     22  C   UNL     1     -14.718   4.754  16.684  0.00  0.00    +0.000 A 
ATOM     23  C   UNL     1     -13.792   4.065  17.483  0.00  0.00    +0.000 A 
ATOM     24  N   UNL     1     -12.980   2.856  17.385  0.00  0.00    +0.000 N 
ATOM     25  C   UNL     1     -13.103   2.526  18.721  0.00  0.00    +0.000 A 
ATOM     26  C   UNL     1     -12.200   1.707  19.350  0.00  0.00    +0.000 A 
ATOM     27  C   UNL     1     -13.878   4.667  21.924  0.00  0.00    +0.000 C 
ATOM     28  O   UNL     1     -14.948   5.202  22.175  0.00  0.00    +0.000 OA
ATOM     29  N   UNL     1     -12.685   4.964  22.580  0.00  0.00    +0.000 N 
ATOM     30  C   UNL     1     -11.516   4.249  22.108  0.00  0.00    +0.000 C 
ATOM     31  H   UNL     1     -10.734  -0.971  16.363  0.00  0.00    +0.000 HD
ATOM     32  H   UNL     1      -9.801   0.961  15.168  0.00  0.00    +0.000 HD
ATOM     33  H   UNL     1     -12.442   2.443  14.774  0.00  0.00    +0.000 HD
ATOM     34  H   UNL     1     -10.755   2.942  14.798  0.00  0.00    +0.000 HD
ATOM     35  H   UNL     1     -11.338   3.865  16.712  0.00  0.00    +0.000 HD
ATOM     36  H   UNL     1     -11.626  -2.211  19.667  0.00  0.00    +0.000 HD
ATOM     37  H   UNL     1     -11.390  -2.837  22.056  0.00  0.00    +0.000 HD
ATOM     38  H   UNL     1     -11.085  -1.128  23.805  0.00  0.00    +0.000 HD
ATOM     39  H   UNL     1     -11.111   1.266  23.240  0.00  0.00    +0.000 HD
ATOM     40  H   UNL     1     -13.169   6.451  19.772  0.00  0.00    +0.000 HD
ATOM     41  H   UNL     1     -15.286   7.414  18.835  0.00  0.00    +0.000 HD
ATOM     42  H   UNL     1     -16.244   6.328  16.819  0.00  0.00    +0.000 HD
ATOM     43  H   UNL     1     -15.059   4.380  15.733  0.00  0.00    +0.000 HD
ATOM     44  H   UNL     1     -12.649   5.734  23.221  0.00  0.00    +0.000 HD
ATOM     45  H   UNL     1     -11.008   4.904  21.379  0.00  0.00    +0.000 HD
ATOM     46  H   UNL     1     -10.852   3.919  22.895  0.00  0.00    +0.000 HD
ENDROOT
BRANCH   6  47
ATOM     47  C   UNL     1      -9.380   0.250  18.106  0.00  0.00    +0.000 C 
ATOM     48  H   UNL     1      -9.216   0.330  19.185  0.00  0.00    +0.000 HD
ATOM     49  H   UNL     1      -9.193  -0.782  17.796  0.00  0.00    +0.000 HD
ATOM     50  H   UNL     1      -8.614   0.858  17.602  0.00  0.00    +0.000 HD
ENDBRANCH   6  47
BRANCH   2  51
ATOM     51  N   UNL     1     -11.168   0.171  13.846  0.00  0.00    +0.000 N 
ATOM     52  C   UNL     1     -10.412  -0.968  13.492  0.00  0.00    +0.000 C 
ATOM     53  O   UNL     1      -9.390  -1.315  14.123  0.00  0.00    +0.000 OA
BRANCH  52  54
ATOM     54  C   UNL     1     -10.846  -1.870  12.393  0.00  0.00    +0.000 A 
ATOM     55  C   UNL     1     -10.302  -1.705  11.128  0.00  0.00    +0.000 A 
ATOM     56  N   UNL     1     -10.662  -2.486  10.077  0.00  0.00    +0.000 NA
ATOM     57  C   UNL     1     -11.602  -3.422  10.345  0.00  0.00    +0.000 A 
ATOM     58  C   UNL     1     -12.142  -3.589  11.609  0.00  0.00    +0.000 A 
ATOM     59  N   UNL     1     -11.779  -2.820  12.657  0.00  0.00    +0.000 NA
ATOM     60  H   UNL     1      -9.549  -0.949  10.927  0.00  0.00    +0.000 HD
ATOM     61  H   UNL     1     -11.910  -4.043   9.509  0.00  0.00    +0.000 HD
ATOM     62  H   UNL     1     -12.886  -4.350  11.812  0.00  0.00    +0.000 HD
ENDBRANCH  52  54
BRANCH  51  63
ATOM     63  C   UNL     1     -12.239   0.641  12.975  0.00  0.00    +0.000 C 
ATOM     64  H   UNL     1     -12.715   1.547  13.343  0.00  0.00    +0.000 HD
ATOM     65  H   UNL     1     -11.835   0.934  12.006  0.00  0.00    +0.000 HD
ATOM     66  H   UNL     1     -12.972  -0.159  12.863  0.00  0.00    +0.000 HD
ENDBRANCH  51  63
ENDBRANCH   2  51
BRANCH   1  67
ATOM     67  O   UNL     1     -12.673  -0.289  16.306  0.00  0.00    +0.000 OA
BRANCH  67  68
ATOM     68  C   UNL     1     -12.964  -1.678  16.170  0.00  0.00    +0.000 C 
ATOM     69  H   UNL     1     -12.167  -2.163  15.604  0.00  0.00    +0.000 HD
ATOM     70  H   UNL     1     -13.930  -1.869  15.688  0.00  0.00    +0.000 HD
ATOM     71  H   UNL     1     -12.986  -2.129  17.164  0.00  0.00    +0.000 HD
ENDBRANCH  67  68
ENDBRANCH   1  67
TORSDOF 6
ENDMDL
MODEL 9
REMARK VINA RESULT:    -6.148      4.957     10.897
REMARK INTER + INTRA:          -7.558
REMARK INTER:                  -7.781
REMARK INTRA:                   0.223
REMARK UNBOUND:                 0.207
REMARK  Name = 
REMARK  6 active torsions:
REMARK  status: ('A' for Active; 'I' for Inactive)
REMARK    1  A    between atoms: C_1  and  O_2
REMARK    2  A    between atoms: O_2  and  C_3
REMARK    3  A    between atoms: C_4  and  N_5
REMARK    4  A    between atoms: N_5  and  C_6
REMARK    5  A    between atoms: C_7  and  C_9
REMARK    6  A    between atoms: C_18  and  C_19
REMARK                            x       y       z     vdW  Elec       q    Type
REMARK                         _______ _______ _______ _____ _____    ______ ____
ROOT
ATOM      1  C   UNL     1     -12.214   3.480  20.820  0.00  0.00    +0.000 C 
ATOM      2  C   UNL     1     -13.520   3.135  20.017  0.00  0.00    +0.000 C 
ATOM      3  C   UNL     1     -13.422   1.709  19.427  0.00  0.00    +0.000 C 
ATOM      4  C   UNL     1     -12.596   0.717  20.243  0.00  0.00    +0.000 C 
ATOM      5  O   UNL     1     -12.671   1.160  21.612  0.00  0.00    +0.000 OA
ATOM      6  C   UNL     1     -11.975   2.408  21.915  0.00  0.00    +0.000 C 
ATOM      7  N   UNL     1     -10.563   2.066  22.115  0.00  0.00    +0.000 N 
ATOM      8  C   UNL     1      -9.778   2.256  23.293  0.00  0.00    +0.000 A 
ATOM      9  C   UNL     1      -9.176   3.413  23.810  0.00  0.00    +0.000 A 
ATOM     10  C   UNL     1      -8.326   3.282  24.921  0.00  0.00    +0.000 A 
ATOM     11  C   UNL     1      -8.121   2.056  25.551  0.00  0.00    +0.000 A 
ATOM     12  C   UNL     1      -8.716   0.900  25.070  0.00  0.00    +0.000 A 
ATOM     13  C   UNL     1      -9.498   0.967  23.908  0.00  0.00    +0.000 A 
ATOM     14  C   UNL     1      -9.963  -0.031  23.032  0.00  0.00    +0.000 A 
ATOM     15  C   UNL     1      -9.431  -1.310  23.063  0.00  0.00    +0.000 A 
ATOM     16  C   UNL     1      -8.871  -1.734  21.859  0.00  0.00    +0.000 A 
ATOM     17  C   UNL     1      -9.484  -1.051  20.787  0.00  0.00    +0.000 A 
ATOM     18  C   UNL     1     -10.324  -1.834  19.979  0.00  0.00    +0.000 A 
ATOM     19  C   UNL     1     -10.566  -3.199  19.813  0.00  0.00    +0.000 A 
ATOM     20  C   UNL     1     -10.309  -3.616  18.529  0.00  0.00    +0.000 A 
ATOM     21  C   UNL     1     -10.465  -2.691  17.500  0.00  0.00    +0.000 A 
ATOM     22  C   UNL     1     -10.963  -1.370  17.740  0.00  0.00    +0.000 A 
ATOM     23  C   UNL     1     -10.936  -0.919  19.070  0.00  0.00    +0.000 A 
ATOM     24  N   UNL     1     -11.224   0.317  19.790  0.00  0.00    +0.000 N 
ATOM     25  C   UNL     1     -10.210   0.149  20.715  0.00  0.00    +0.000 A 
ATOM     26  C   UNL     1     -10.233   0.777  21.934  0.00  0.00    +0.000 A 
ATOM     27  C   UNL     1      -8.315  -3.033  22.029  0.00  0.00    +0.000 C 
ATOM     28  O   UNL     1      -7.543  -3.716  21.373  0.00  0.00    +0.000 OA
ATOM     29  N   UNL     1      -8.868  -3.429  23.246  0.00  0.00    +0.000 N 
ATOM     30  C   UNL     1      -9.794  -2.491  23.848  0.00  0.00    +0.000 C 
ATOM     31  H   UNL     1     -12.337   4.448  21.348  0.00  0.00    +0.000 HD
ATOM     32  H   UNL     1     -14.334   3.146  20.759  0.00  0.00    +0.000 HD
ATOM     33  H   UNL     1     -13.101   1.659  18.393  0.00  0.00    +0.000 HD
ATOM     34  H   UNL     1     -14.464   1.339  19.460  0.00  0.00    +0.000 HD
ATOM     35  H   UNL     1     -13.136  -0.242  20.234  0.00  0.00    +0.000 HD
ATOM     36  H   UNL     1      -9.277   4.377  23.318  0.00  0.00    +0.000 HD
ATOM     37  H   UNL     1      -7.787   4.151  25.288  0.00  0.00    +0.000 HD
ATOM     38  H   UNL     1      -7.443   1.977  26.396  0.00  0.00    +0.000 HD
ATOM     39  H   UNL     1      -8.493  -0.063  25.509  0.00  0.00    +0.000 HD
ATOM     40  H   UNL     1     -10.695  -3.885  20.641  0.00  0.00    +0.000 HD
ATOM     41  H   UNL     1     -10.023  -4.651  18.350  0.00  0.00    +0.000 HD
ATOM     42  H   UNL     1     -10.243  -3.024  16.489  0.00  0.00    +0.000 HD
ATOM     43  H   UNL     1     -11.189  -0.722  16.910  0.00  0.00    +0.000 HD
ATOM     44  H   UNL     1      -8.730  -4.367  23.571  0.00  0.00    +0.000 HD
ATOM     45  H   UNL     1     -10.810  -2.802  23.550  0.00  0.00    +0.000 HD
ATOM     46  H   UNL     1      -9.692  -2.396  24.920  0.00  0.00    +0.000 HD
ENDROOT
BRANCH   6  47
ATOM     47  C   UNL     1     -12.613   2.826  23.260  0.00  0.00    +0.000 C 
ATOM     48  H   UNL     1     -12.109   3.688  23.707  0.00  0.00    +0.000 HD
ATOM     49  H   UNL     1     -13.675   3.062  23.140  0.00  0.00    +0.000 HD
ATOM     50  H   UNL     1     -12.571   1.997  23.982  0.00  0.00    +0.000 HD
ENDBRANCH   6  47
BRANCH   2  51
ATOM     51  N   UNL     1     -13.917   4.217  19.051  0.00  0.00    +0.000 N 
ATOM     52  C   UNL     1     -14.153   3.897  17.696  0.00  0.00    +0.000 C 
ATOM     53  O   UNL     1     -13.860   2.782  17.211  0.00  0.00    +0.000 OA
BRANCH  52  54
ATOM     54  C   UNL     1     -14.849   4.848  16.789  0.00  0.00    +0.000 A 
ATOM     55  C   UNL     1     -16.235   4.851  16.747  0.00  0.00    +0.000 A 
ATOM     56  N   UNL     1     -16.934   5.686  15.935  0.00  0.00    +0.000 NA
ATOM     57  C   UNL     1     -16.183   6.499  15.156  0.00  0.00    +0.000 A 
ATOM     58  C   UNL     1     -14.799   6.499  15.202  0.00  0.00    +0.000 A 
ATOM     59  N   UNL     1     -14.103   5.677  16.016  0.00  0.00    +0.000 NA
ATOM     60  H   UNL     1     -16.825   4.193  17.377  0.00  0.00    +0.000 HD
ATOM     61  H   UNL     1     -16.729   7.161  14.490  0.00  0.00    +0.000 HD
ATOM     62  H   UNL     1     -14.211   7.164  14.581  0.00  0.00    +0.000 HD
ENDBRANCH  52  54
BRANCH  51  63
ATOM     63  C   UNL     1     -14.103   5.584  19.525  0.00  0.00    +0.000 C 
ATOM     64  H   UNL     1     -14.259   6.294  18.715  0.00  0.00    +0.000 HD
ATOM     65  H   UNL     1     -15.018   5.657  20.115  0.00  0.00    +0.000 HD
ATOM     66  H   UNL     1     -13.235   5.867  20.121  0.00  0.00    +0.000 HD
ENDBRANCH  51  63
ENDBRANCH   2  51
BRANCH   1  67
ATOM     67  O   UNL     1     -11.167   3.654  19.855  0.00  0.00    +0.000 OA
BRANCH  67  68
ATOM     68  C   UNL     1     -10.456   4.882  19.998  0.00  0.00    +0.000 C 
ATOM     69  H   UNL     1     -10.125   4.993  21.031  0.00  0.00    +0.000 HD
ATOM     70  H   UNL     1     -11.046   5.757  19.701  0.00  0.00    +0.000 HD
ATOM     71  H   UNL     1      -9.565   4.844  19.367  0.00  0.00    +0.000 HD
ENDBRANCH  67  68
ENDBRANCH   1  67
TORSDOF 6
ENDMDL
