REMARK  Name = 
REMARK  7 active torsions:
REMARK  status: ('A' for Active; 'I' for Inactive)
REMARK    1  A    between atoms: O_1  and  C_2
REMARK    2  A    between atoms: C_8  and  O_9
REMARK    3  A    between atoms: C_10  and  O_11
REMARK    4  A    between atoms: N_13  and  C_14
REMARK    5  A    between atoms: C_14  and  C_15
REMARK    6  A    between atoms: C_18  and  C_19
REMARK    7  A    between atoms: C_27  and  O_28
REMARK                            x       y       z     vdW  Elec       q    Type
REMARK                         _______ _______ _______ _____ _____    ______ ____
ROOT
ATOM      1  C   UNL     1      -4.056   0.041  -1.117  0.00  0.00    +0.000 A 
ATOM      2  C   UNL     1      -3.411  -1.197  -1.136  0.00  0.00    +0.000 A 
ATOM      3  C   UNL     1      -2.001  -1.243  -1.066  0.00  0.00    +0.000 A 
ATOM      4  C   UNL     1      -1.063  -2.319  -1.061  0.00  0.00    +0.000 A 
ATOM      5  C   UNL     1      -1.199  -3.720  -1.189  0.00  0.00    +0.000 A 
ATOM      6  C   UNL     1      -0.076  -4.546  -1.081  0.00  0.00    +0.000 A 
ATOM      7  C   UNL     1       1.156  -3.984  -0.782  0.00  0.00    +0.000 A 
ATOM      8  C   UNL     1       1.312  -2.602  -0.636  0.00  0.00    +0.000 A 
ATOM      9  C   UNL     1       0.204  -1.772  -0.845  0.00  0.00    +0.000 A 
ATOM     10  N   UNL     1       0.066  -0.396  -0.915  0.00  0.00    +0.000 N 
ATOM     11  C   UNL     1      -1.278  -0.050  -0.981  0.00  0.00    +0.000 A 
ATOM     12  C   UNL     1      -1.919   1.206  -0.988  0.00  0.00    +0.000 A 
ATOM     13  C   UNL     1      -3.327   1.219  -1.054  0.00  0.00    +0.000 A 
ATOM     14  H   UNL     1      -3.973  -2.123  -1.188  0.00  0.00    +0.000 HD
ATOM     15  H   UNL     1      -2.176  -4.154  -1.383  0.00  0.00    +0.000 HD
ATOM     16  H   UNL     1      -0.196  -5.617  -1.208  0.00  0.00    +0.000 HD
ATOM     17  H   UNL     1      -1.350   2.122  -0.927  0.00  0.00    +0.000 HD
ENDROOT
BRANCH  10  18
ATOM     18  C   UNL     1       1.179   0.545  -1.073  0.00  0.00    +0.000 C 
ATOM     19  H   UNL     1       0.831   1.287  -1.807  0.00  0.00    +0.000 HD
ATOM     20  H   UNL     1       2.023   0.022  -1.534  0.00  0.00    +0.000 HD
BRANCH  18  21
ATOM     21  C   UNL     1       1.598   1.281   0.180  0.00  0.00    +0.000 A 
ATOM     22  C   UNL     1       1.148   0.933   1.458  0.00  0.00    +0.000 A 
ATOM     23  C   UNL     1       1.396   1.767   2.549  0.00  0.00    +0.000 A 
ATOM     24  C   UNL     1       2.112   2.959   2.388  0.00  0.00    +0.000 A 
ATOM     25  C   UNL     1       2.699   3.230   1.144  0.00  0.00    +0.000 A 
ATOM     26  C   UNL     1       2.443   2.398   0.051  0.00  0.00    +0.000 A 
ATOM     27  H   UNL     1       0.553   0.036   1.617  0.00  0.00    +0.000 HD
ATOM     28  H   UNL     1       0.974   1.503   3.518  0.00  0.00    +0.000 HD
ATOM     29  H   UNL     1       3.310   4.121   1.009  0.00  0.00    +0.000 HD
ATOM     30  H   UNL     1       2.869   2.657  -0.918  0.00  0.00    +0.000 HD
BRANCH  24  31
ATOM     31  C   UNL     1       2.181   3.973   3.501  0.00  0.00    +0.000 C 
ATOM     32  F   UNL     1       1.428   3.641   4.587  0.00  0.00    +0.000 F 
ATOM     33  F   UNL     1       3.442   4.182   3.965  0.00  0.00    +0.000 F 
ATOM     34  F   UNL     1       1.722   5.195   3.101  0.00  0.00    +0.000 F 
ENDBRANCH  24  31
ENDBRANCH  18  21
ENDBRANCH  10  18
BRANCH   1  35
ATOM     35  O   UNL     1      -5.423   0.095  -1.159  0.00  0.00    +0.000 OA
ATOM     36  H   UNL     1      -5.777  -0.806  -1.101  0.00  0.00    +0.000 HD
ENDBRANCH   1  35
BRANCH   7  37
ATOM     37  O   UNL     1       2.272  -4.763  -0.625  0.00  0.00    +0.000 OA
ATOM     38  H   UNL     1       2.053  -5.662  -0.928  0.00  0.00    +0.000 HD
ENDBRANCH   7  37
BRANCH   8  39
ATOM     39  O   UNL     1       2.536  -2.103  -0.267  0.00  0.00    +0.000 OA
ATOM     40  H   UNL     1       3.063  -2.901  -0.057  0.00  0.00    +0.000 HD
ENDBRANCH   8  39
BRANCH  13  41
ATOM     41  O   UNL     1      -3.993   2.415  -1.051  0.00  0.00    +0.000 OA
ATOM     42  H   UNL     1      -3.351   3.135  -0.989  0.00  0.00    +0.000 HD
ENDBRANCH  13  41
TORSDOF 7
