REMARK  Name = 
REMARK  4 active torsions:
REMARK  status: ('A' for Active; 'I' for Inactive)
REMARK    1  A    between atoms: C_1  and  N_2
REMARK    2  A    between atoms: C_12  and  C_13
REMARK    3  A    between atoms: C_13  and  C_14
REMARK    4  A    between atoms: C_14  and  N_15
REMARK                            x       y       z     vdW  Elec       q    Type
REMARK                         _______ _______ _______ _____ _____    ______ ____
ROOT
ATOM      1  N   UNL     1      -5.143   3.270  -2.473  0.00  0.00    +0.000 N 
ATOM      2  C   UNL     1      -5.822   2.646  -3.537  0.00  0.00    +0.000 A 
ATOM      3  C   UNL     1      -4.774   2.274  -4.350  0.00  0.00    +0.000 A 
ATOM      4  C   UNL     1      -3.977   1.657  -3.344  0.00  0.00    +0.000 A 
ATOM      5  C   UNL     1      -3.180   0.507  -3.379  0.00  0.00    +0.000 A 
ATOM      6  C   UNL     1      -2.239   0.326  -2.402  0.00  0.00    +0.000 A 
ATOM      7  C   UNL     1      -1.978   1.406  -1.562  0.00  0.00    +0.000 A 
ATOM      8  C   UNL     1      -0.720   1.423  -0.985  0.00  0.00    +0.000 A 
ATOM      9  N   UNL     1       0.248   0.474  -0.798  0.00  0.00    +0.000 N 
ATOM     10  C   UNL     1       1.172   0.912   0.128  0.00  0.00    +0.000 A 
ATOM     11  C   UNL     1       2.105   0.155   0.854  0.00  0.00    +0.000 A 
ATOM     12  C   UNL     1       2.874   0.852   1.796  0.00  0.00    +0.000 A 
ATOM     13  C   UNL     1       2.770   2.228   1.946  0.00  0.00    +0.000 A 
ATOM     14  C   UNL     1       1.833   2.959   1.183  0.00  0.00    +0.000 A 
ATOM     15  C   UNL     1       1.008   2.295   0.308  0.00  0.00    +0.000 A 
ATOM     16  C   UNL     1      -0.136   2.557  -0.471  0.00  0.00    +0.000 A 
ATOM     17  C   UNL     1      -0.936   3.718  -0.291  0.00  0.00    +0.000 A 
ATOM     18  C   UNL     1      -2.336   3.458  -0.427  0.00  0.00    +0.000 A 
ATOM     19  C   UNL     1      -2.857   2.515  -1.343  0.00  0.00    +0.000 A 
ATOM     20  C   UNL     1      -3.971   2.555  -2.233  0.00  0.00    +0.000 A 
ATOM     21  C   UNL     1      -2.793   3.839   0.902  0.00  0.00    +0.000 C 
ATOM     22  O   UNL     1      -3.564   3.300   1.689  0.00  0.00    +0.000 OA
ATOM     23  N   UNL     1      -1.882   4.797   1.309  0.00  0.00    +0.000 N 
ATOM     24  C   UNL     1      -0.724   4.808   0.591  0.00  0.00    +0.000 C 
ATOM     25  O   UNL     1       0.203   5.578   0.791  0.00  0.00    +0.000 OA
ATOM     26  H   UNL     1      -6.679   2.046  -3.251  0.00  0.00    +0.000 HD
ATOM     27  H   UNL     1      -4.300   3.029  -4.983  0.00  0.00    +0.000 HD
ATOM     28  H   UNL     1      -3.266  -0.190  -4.206  0.00  0.00    +0.000 HD
ATOM     29  H   UNL     1      -1.617  -0.555  -2.444  0.00  0.00    +0.000 HD
ATOM     30  H   UNL     1       0.151  -0.492  -1.073  0.00  0.00    +0.000 HD
ATOM     31  H   UNL     1       3.569   0.326   2.443  0.00  0.00    +0.000 HD
ATOM     32  H   UNL     1       3.363   2.739   2.705  0.00  0.00    +0.000 HD
ATOM     33  H   UNL     1       1.784   4.024   1.368  0.00  0.00    +0.000 HD
ATOM     34  H   UNL     1      -1.799   5.055   2.283  0.00  0.00    +0.000 HD
ENDROOT
BRANCH   1  35
ATOM     35  C   UNL     1      -5.872   4.242  -1.695  0.00  0.00    +0.000 C 
ATOM     36  H   UNL     1      -5.322   5.181  -1.698  0.00  0.00    +0.000 HD
ATOM     37  H   UNL     1      -6.067   3.848  -0.700  0.00  0.00    +0.000 HD
ATOM     38  H   UNL     1      -6.837   4.413  -2.200  0.00  0.00    +0.000 HD
ENDBRANCH   1  35
BRANCH  11  39
ATOM     39  C   UNL     1       2.171  -1.343   0.625  0.00  0.00    +0.000 C 
ATOM     40  H   UNL     1       2.412  -1.504  -0.436  0.00  0.00    +0.000 HD
ATOM     41  H   UNL     1       1.159  -1.734   0.790  0.00  0.00    +0.000 HD
BRANCH  39  42
ATOM     42  C   UNL     1       3.156  -2.141   1.485  0.00  0.00    +0.000 C 
ATOM     43  H   UNL     1       2.867  -2.052   2.540  0.00  0.00    +0.000 HD
ATOM     44  H   UNL     1       4.143  -1.677   1.373  0.00  0.00    +0.000 HD
BRANCH  42  45
ATOM     45  N   UNL     1       3.283  -3.564   1.103  0.00  0.00    +0.000 NA
ATOM     46  C   UNL     1       4.289  -4.195   1.976  0.00  0.00    +0.000 C 
ATOM     47  C   UNL     1       4.530  -5.655   1.604  0.00  0.00    +0.000 C 
ATOM     48  C   UNL     1       3.232  -6.450   1.627  0.00  0.00    +0.000 C 
ATOM     49  C   UNL     1       2.182  -5.763   0.765  0.00  0.00    +0.000 C 
ATOM     50  C   UNL     1       2.007  -4.294   1.161  0.00  0.00    +0.000 C 
ATOM     51  H   UNL     1       3.977  -4.131   3.027  0.00  0.00    +0.000 HD
ATOM     52  H   UNL     1       5.242  -3.659   1.887  0.00  0.00    +0.000 HD
ATOM     53  H   UNL     1       5.247  -6.098   2.305  0.00  0.00    +0.000 HD
ATOM     54  H   UNL     1       4.979  -5.711   0.605  0.00  0.00    +0.000 HD
ATOM     55  H   UNL     1       2.866  -6.530   2.657  0.00  0.00    +0.000 HD
ATOM     56  H   UNL     1       3.409  -7.469   1.266  0.00  0.00    +0.000 HD
ATOM     57  H   UNL     1       1.225  -6.288   0.858  0.00  0.00    +0.000 HD
ATOM     58  H   UNL     1       2.478  -5.826  -0.290  0.00  0.00    +0.000 HD
ATOM     59  H   UNL     1       1.565  -4.230   2.162  0.00  0.00    +0.000 HD
ATOM     60  H   UNL     1       1.287  -3.865   0.455  0.00  0.00    +0.000 HD
ENDBRANCH  42  45
ENDBRANCH  39  42
ENDBRANCH  11  39
TORSDOF 4
