REMARK  Name = 
REMARK  7 active torsions:
REMARK  status: ('A' for Active; 'I' for Inactive)
REMARK    1  A    between atoms: C_1  and  S_2
REMARK    2  A    between atoms: S_2  and  C_5
REMARK    3  A    between atoms: C_8  and  C_9
REMARK    4  A    between atoms: C_14  and  O_15
REMARK    5  A    between atoms: C_16  and  O_17
REMARK    6  A    between atoms: C_23  and  O_24
REMARK    7  A    between atoms: C_25  and  O_26
REMARK                            x       y       z     vdW  Elec       q    Type
REMARK                         _______ _______ _______ _____ _____    ______ ____
ROOT
ATOM      1  C   UNL     1      -0.722   1.049  -0.645  0.00  0.00    +0.000 C 
ATOM      2  O   UNL     1      -1.303   1.925  -1.299  0.00  0.00    +0.000 OA
ATOM      3  N   UNL     1       0.107   0.158  -1.372  0.00  0.00    +0.000 N 
ATOM      4  C   UNL     1       0.041  -0.014  -2.761  0.00  0.00    +0.000 A 
ATOM      5  C   UNL     1      -0.896   0.375  -3.733  0.00  0.00    +0.000 A 
ATOM      6  C   UNL     1      -0.421   0.432  -5.040  0.00  0.00    +0.000 A 
ATOM      7  C   UNL     1       0.911   0.176  -5.336  0.00  0.00    +0.000 A 
ATOM      8  C   UNL     1       1.729  -0.465  -4.418  0.00  0.00    +0.000 A 
ATOM      9  C   UNL     1       1.216  -0.658  -3.126  0.00  0.00    +0.000 A 
ATOM     10  C   UNL     1       1.550  -1.441  -2.001  0.00  0.00    +0.000 A 
ATOM     11  C   UNL     1       2.261  -2.639  -1.793  0.00  0.00    +0.000 A 
ATOM     12  C   UNL     1       2.665  -2.975  -0.502  0.00  0.00    +0.000 A 
ATOM     13  C   UNL     1       2.534  -2.027   0.501  0.00  0.00    +0.000 A 
ATOM     14  C   UNL     1       1.800  -0.851   0.306  0.00  0.00    +0.000 A 
ATOM     15  C   UNL     1       1.125  -0.685  -0.905  0.00  0.00    +0.000 A 
ATOM     16  H   UNL     1      -1.901   0.687  -3.470  0.00  0.00    +0.000 HD
ATOM     17  H   UNL     1       2.747  -0.741  -4.669  0.00  0.00    +0.000 HD
ATOM     18  H   UNL     1       2.455  -3.308  -2.628  0.00  0.00    +0.000 HD
ATOM     19  H   UNL     1       3.149  -3.930  -0.330  0.00  0.00    +0.000 HD
ENDROOT
BRANCH   1  23
ATOM     20  C   UNL     1      -1.931   1.012   3.447  0.00  0.00    +0.000 A 
ATOM     21  C   UNL     1      -1.576  -0.193   2.831  0.00  0.00    +0.000 A 
ATOM     22  C   UNL     1      -1.139  -0.190   1.505  0.00  0.00    +0.000 A 
ATOM     23  C   UNL     1      -1.023   1.017   0.804  0.00  0.00    +0.000 A 
ATOM     24  C   UNL     1      -1.372   2.222   1.439  0.00  0.00    +0.000 A 
ATOM     25  C   UNL     1      -1.832   2.223   2.758  0.00  0.00    +0.000 A 
ATOM     26  H   UNL     1      -1.679  -1.139   3.356  0.00  0.00    +0.000 HD
ATOM     27  H   UNL     1      -0.918  -1.142   1.029  0.00  0.00    +0.000 HD
ATOM     28  H   UNL     1      -1.328   3.159   0.887  0.00  0.00    +0.000 HD
ATOM     29  H   UNL     1      -2.151   3.158   3.212  0.00  0.00    +0.000 HD
BRANCH  20  30
ATOM     30  S   UNL     1      -2.693   0.970   5.054  0.00  0.00    +0.000 S 
ATOM     31  O   UNL     1      -3.264  -0.349   5.228  0.00  0.00    +0.000 OA
ATOM     32  O   UNL     1      -3.508   2.150   5.182  0.00  0.00    +0.000 OA
BRANCH  30  33
ATOM     33  C   UNL     1      -1.338   1.133   6.189  0.00  0.00    +0.000 C 
ATOM     34  H   UNL     1      -1.748   1.105   7.198  0.00  0.00    +0.000 HD
ATOM     35  H   UNL     1      -0.846   2.094   6.019  0.00  0.00    +0.000 HD
ATOM     36  H   UNL     1      -0.643   0.308   6.045  0.00  0.00    +0.000 HD
ENDBRANCH  30  33
ENDBRANCH  20  30
ENDBRANCH   1  23
BRANCH   6  37
ATOM     37  O   UNL     1      -1.248   0.763  -6.076  0.00  0.00    +0.000 OA
ATOM     38  H   UNL     1      -2.071   0.262  -5.926  0.00  0.00    +0.000 HD
ENDBRANCH   6  37
BRANCH   7  39
ATOM     39  O   UNL     1       1.418   0.537  -6.551  0.00  0.00    +0.000 OA
ATOM     40  H   UNL     1       0.717   1.095  -6.945  0.00  0.00    +0.000 HD
ENDBRANCH   7  39
BRANCH  13  41
ATOM     41  O   UNL     1       3.135  -2.201   1.719  0.00  0.00    +0.000 OA
ATOM     42  H   UNL     1       3.599  -3.057   1.704  0.00  0.00    +0.000 HD
ENDBRANCH  13  41
BRANCH  14  43
ATOM     43  O   UNL     1       1.829   0.129   1.262  0.00  0.00    +0.000 OA
ATOM     44  H   UNL     1       2.566  -0.133   1.851  0.00  0.00    +0.000 HD
ENDBRANCH  14  43
TORSDOF 7
