REMARK  Name = 
REMARK  3 active torsions:
REMARK  status: ('A' for Active; 'I' for Inactive)
REMARK    1  A    between atoms: N_1  and  C_2
REMARK    2  A    between atoms: C_11  and  C_12
REMARK    3  A    between atoms: C_16  and  O_17
REMARK                            x       y       z     vdW  Elec       q    Type
REMARK                         _______ _______ _______ _____ _____    ______ ____
ROOT
ATOM      1  C   UNL     1      -4.474  -1.240   0.039  0.00  0.00    +0.000 A 
ATOM      2  C   UNL     1      -3.680  -2.408   0.057  0.00  0.00    +0.000 A 
ATOM      3  C   UNL     1      -2.276  -2.349   0.017  0.00  0.00    +0.000 A 
ATOM      4  C   UNL     1      -1.689  -1.098   0.001  0.00  0.00    +0.000 A 
ATOM      5  C   UNL     1      -2.470   0.053   0.028  0.00  0.00    +0.000 A 
ATOM      6  C   UNL     1      -3.853   0.010   0.066  0.00  0.00    +0.000 A 
ATOM      7  C   UNL     1      -1.624   1.246   0.039  0.00  0.00    +0.000 C 
ATOM      8  O   UNL     1      -2.012   2.395   0.056  0.00  0.00    +0.000 OA
ATOM      9  C   UNL     1      -0.228   0.747   0.020  0.00  0.00    +0.000 C 
ATOM     10  C   UNL     1       0.795   1.613   0.039  0.00  0.00    +0.000 C 
ATOM     11  C   UNL     1      -0.257  -0.743  -0.011  0.00  0.00    +0.000 C 
ATOM     12  O   UNL     1       0.676  -1.515  -0.042  0.00  0.00    +0.000 OA
ATOM     13  H   UNL     1      -4.163  -3.383   0.110  0.00  0.00    +0.000 HD
ATOM     14  H   UNL     1      -1.678  -3.255   0.022  0.00  0.00    +0.000 HD
ATOM     15  H   UNL     1      -4.425   0.931   0.123  0.00  0.00    +0.000 HD
ATOM     16  H   UNL     1       0.591   2.683   0.066  0.00  0.00    +0.000 HD
ENDROOT
BRANCH  10  17
ATOM     17  C   UNL     1       2.212   1.267   0.028  0.00  0.00    +0.000 A 
ATOM     18  C   UNL     1       2.892   1.134  -1.187  0.00  0.00    +0.000 A 
ATOM     19  C   UNL     1       4.255   0.836  -1.192  0.00  0.00    +0.000 A 
ATOM     20 CL   UNL     1       5.076   0.687  -2.703  0.00  0.00    +0.000 Cl
ATOM     21  C   UNL     1       4.952   0.673   0.009  0.00  0.00    +0.000 A 
ATOM     22  C   UNL     1       4.276   0.821   1.222  0.00  0.00    +0.000 A 
ATOM     23 CL   UNL     1       5.093   0.659   2.734  0.00  0.00    +0.000 Cl
ATOM     24  C   UNL     1       2.910   1.118   1.232  0.00  0.00    +0.000 A 
ATOM     25  H   UNL     1       2.364   1.270  -2.128  0.00  0.00    +0.000 HD
ATOM     26  H   UNL     1       2.394   1.240   2.182  0.00  0.00    +0.000 HD
BRANCH  21  27
ATOM     27  O   UNL     1       6.290   0.373   0.006  0.00  0.00    +0.000 OA
ATOM     28  H   UNL     1       6.567   0.259  -0.922  0.00  0.00    +0.000 HD
ENDBRANCH  21  27
ENDBRANCH  10  17
BRANCH   1  29
ATOM     29  N   UNL     1      -5.856  -1.327   0.236  0.00  0.00    +0.000 N 
ATOM     30  H   UNL     1      -6.282  -2.190  -0.088  0.00  0.00    +0.000 HD
ATOM     31  H   UNL     1      -6.378  -0.506  -0.060  0.00  0.00    +0.000 HD
ENDBRANCH   1  29
TORSDOF 3
