REMARK  Name = 
REMARK  8 active torsions:
REMARK  status: ('A' for Active; 'I' for Inactive)
REMARK    1  A    between atoms: S_2  and  N_4
REMARK    2  A    between atoms: S_2  and  C_18
REMARK    3  A    between atoms: N_4  and  C_5
REMARK    4  A    between atoms: C_5  and  C_6
REMARK    5  A    between atoms: C_6  and  N_7
REMARK    6  A    between atoms: N_7  and  C_8
REMARK    7  A    between atoms: C_8  and  C_9
REMARK    8  A    between atoms: C_10  and  C_11
REMARK                            x       y       z     vdW  Elec       q    Type
REMARK                         _______ _______ _______ _____ _____    ______ ____
ROOT
ATOM      1  C   UNL     1       0.264  -0.001  -1.878  0.00  0.00    +0.000 C 
ATOM      2  H   UNL     1      -0.825   0.034  -1.917  0.00  0.00    +0.000 HD
ATOM      3  H   UNL     1       0.610   0.468  -0.954  0.00  0.00    +0.000 HD
ENDROOT
BRANCH   1   4
ATOM      4  C   UNL     1       0.731  -1.466  -1.904  0.00  0.00    +0.000 C 
ATOM      5  H   UNL     1       1.829  -1.494  -1.888  0.00  0.00    +0.000 HD
ATOM      6  H   UNL     1       0.434  -1.956  -2.839  0.00  0.00    +0.000 HD
BRANCH   4   7
ATOM      7  N   UNL     1       0.243  -2.239  -0.754  0.00  0.00    +0.000 NA
ATOM      8  H   UNL     1       0.559  -1.800   0.111  0.00  0.00    +0.000 HD
BRANCH   7   9
ATOM      9  C   UNL     1      -1.219  -2.313  -0.736  0.00  0.00    +0.000 C 
ATOM     10  H   UNL     1      -1.583  -2.853  -1.615  0.00  0.00    +0.000 HD
ATOM     11  H   UNL     1      -1.673  -1.318  -0.741  0.00  0.00    +0.000 HD
BRANCH   9  12
ATOM     12  C   UNL     1      -1.664  -3.017   0.501  0.00  0.00    +0.000 C 
ATOM     13  C   UNL     1      -2.446  -2.439   1.429  0.00  0.00    +0.000 C 
ATOM     14  H   UNL     1      -1.323  -4.042   0.606  0.00  0.00    +0.000 HD
ATOM     15  H   UNL     1      -2.802  -1.419   1.286  0.00  0.00    +0.000 HD
BRANCH  13  16
ATOM     16  C   UNL     1      -2.860  -3.088   2.677  0.00  0.00    +0.000 A 
ATOM     17  C   UNL     1      -2.054  -4.040   3.314  0.00  0.00    +0.000 A 
ATOM     18  C   UNL     1      -2.440  -4.600   4.531  0.00  0.00    +0.000 A 
ATOM     19  C   UNL     1      -3.631  -4.199   5.126  0.00  0.00    +0.000 A 
ATOM     20 BR   UNL     1      -4.140  -4.940   6.789  0.00  0.00    +0.000 Br
ATOM     21  C   UNL     1      -4.443  -3.247   4.513  0.00  0.00    +0.000 A 
ATOM     22  C   UNL     1      -4.055  -2.689   3.292  0.00  0.00    +0.000 A 
ATOM     23  H   UNL     1      -1.106  -4.345   2.878  0.00  0.00    +0.000 HD
ATOM     24  H   UNL     1      -1.797  -5.337   5.005  0.00  0.00    +0.000 HD
ATOM     25  H   UNL     1      -5.373  -2.928   4.977  0.00  0.00    +0.000 HD
ATOM     26  H   UNL     1      -4.696  -1.942   2.827  0.00  0.00    +0.000 HD
ENDBRANCH  13  16
ENDBRANCH   9  12
ENDBRANCH   7   9
ENDBRANCH   4   7
ENDBRANCH   1   4
BRANCH   1  27
ATOM     27  N   UNL     1       0.751   0.749  -3.040  0.00  0.00    +0.000 NA
ATOM     28  H   UNL     1       1.749   0.667  -3.232  0.00  0.00    +0.000 HD
BRANCH  27  30
ATOM     29  O   UNL     1       0.662   2.889  -4.403  0.00  0.00    +0.000 OA
ATOM     30  S   UNL     1       0.170   2.341  -3.157  0.00  0.00    +0.000 S 
ATOM     31  O   UNL     1      -1.242   2.321  -2.841  0.00  0.00    +0.000 OA
BRANCH  30  32
ATOM     32  C   UNL     1       1.040   3.157  -1.827  0.00  0.00    +0.000 A 
ATOM     33  C   UNL     1       0.271   3.672  -0.769  0.00  0.00    +0.000 A 
ATOM     34  C   UNL     1       0.898   4.291   0.308  0.00  0.00    +0.000 A 
ATOM     35  C   UNL     1       2.287   4.383   0.336  0.00  0.00    +0.000 A 
ATOM     36  C   UNL     1       3.069   3.867  -0.713  0.00  0.00    +0.000 A 
ATOM     37  C   UNL     1       4.464   3.944  -0.681  0.00  0.00    +0.000 A 
ATOM     38  N   UNL     1       5.288   3.469  -1.642  0.00  0.00    +0.000 NA
ATOM     39  C   UNL     1       4.699   2.914  -2.712  0.00  0.00    +0.000 A 
ATOM     40  C   UNL     1       3.326   2.796  -2.855  0.00  0.00    +0.000 A 
ATOM     41  C   UNL     1       2.460   3.255  -1.832  0.00  0.00    +0.000 A 
ATOM     42  H   UNL     1      -0.816   3.598  -0.775  0.00  0.00    +0.000 HD
ATOM     43  H   UNL     1       0.307   4.701   1.124  0.00  0.00    +0.000 HD
ATOM     44  H   UNL     1       2.762   4.871   1.187  0.00  0.00    +0.000 HD
ATOM     45  H   UNL     1       4.982   4.408   0.154  0.00  0.00    +0.000 HD
ATOM     46  H   UNL     1       5.372   2.555  -3.487  0.00  0.00    +0.000 HD
ATOM     47  H   UNL     1       2.962   2.366  -3.781  0.00  0.00    +0.000 HD
ENDBRANCH  30  32
ENDBRANCH  27  30
ENDBRANCH   1  27
TORSDOF 8
