MODEL 1
REMARK VINA RESULT:    -7.374      0.000      0.000
REMARK INTER + INTRA:         -10.466
REMARK INTER:                  -9.745
REMARK INTRA:                  -0.721
REMARK UNBOUND:                -0.721
REMARK  Name = 
REMARK  9 active torsions:
REMARK  status: ('A' for Active; 'I' for Inactive)
REMARK    1  A    between atoms: C_1  and  C_2
REMARK    2  A    between atoms: C_2  and  C_3
REMARK    3  A    between atoms: C_2  and  C_4
REMARK    4  A    between atoms: C_2  and  C_5
REMARK    5  A    between atoms: C_8  and  C_9
REMARK    6  A    between atoms: C_14  and  O_15
REMARK    7  A    between atoms: C_16  and  O_17
REMARK    8  A    between atoms: C_24  and  O_25
REMARK    9  A    between atoms: C_26  and  O_27
REMARK                            x       y       z     vdW  Elec       q    Type
REMARK                         _______ _______ _______ _____ _____    ______ ____
ROOT
ATOM      1  C   UNL     1     -10.612  -2.017  19.356  0.00  0.00    +0.000 C 
ATOM      2  O   UNL     1     -11.402  -1.227  19.887  0.00  0.00    +0.000 OA
ATOM      3  N   UNL     1      -9.634  -2.592  20.207  0.00  0.00    +0.000 N 
ATOM      4  C   UNL     1      -9.272  -2.078  21.466  0.00  0.00    +0.000 A 
ATOM      5  C   UNL     1      -9.542  -0.875  22.143  0.00  0.00    +0.000 A 
ATOM      6  C   UNL     1      -9.277  -0.877  23.514  0.00  0.00    +0.000 A 
ATOM      7  C   UNL     1      -8.859  -2.025  24.173  0.00  0.00    +0.000 A 
ATOM      8  C   UNL     1      -8.367  -3.100  23.459  0.00  0.00    +0.000 A 
ATOM      9  C   UNL     1      -8.464  -3.041  22.061  0.00  0.00    +0.000 A 
ATOM     10  C   UNL     1      -7.838  -3.679  20.972  0.00  0.00    +0.000 A 
ATOM     11  C   UNL     1      -6.605  -4.313  20.734  0.00  0.00    +0.000 A 
ATOM     12 BR   UNL     1      -5.085  -3.851  21.766  0.00  0.00    +0.000 Br
ATOM     13  C   UNL     1      -6.467  -5.163  19.640  0.00  0.00    +0.000 A 
ATOM     14  C   UNL     1      -7.598  -5.471  18.900  0.00  0.00    +0.000 A 
ATOM     15  C   UNL     1      -8.799  -4.767  19.068  0.00  0.00    +0.000 A 
ATOM     16  C   UNL     1      -8.824  -3.712  19.983  0.00  0.00    +0.000 A 
ATOM     17  H   UNL     1      -9.960  -0.012  21.638  0.00  0.00    +0.000 HD
ATOM     18  H   UNL     1      -7.948  -3.964  23.958  0.00  0.00    +0.000 HD
ATOM     19  H   UNL     1      -5.502  -5.607  19.419  0.00  0.00    +0.000 HD
ENDROOT
BRANCH   1  23
ATOM     20  C   UNL     1     -11.179  -2.335  15.083  0.00  0.00    +0.000 A 
ATOM     21  C   UNL     1     -10.015  -1.754  15.620  0.00  0.00    +0.000 A 
ATOM     22  C   UNL     1      -9.808  -1.661  17.002  0.00  0.00    +0.000 A 
ATOM     23  C   UNL     1     -10.742  -2.192  17.890  0.00  0.00    +0.000 A 
ATOM     24  C   UNL     1     -11.907  -2.776  17.378  0.00  0.00    +0.000 A 
ATOM     25  C   UNL     1     -12.125  -2.837  15.995  0.00  0.00    +0.000 A 
ATOM     26  H   UNL     1      -9.253  -1.326  14.974  0.00  0.00    +0.000 HD
ATOM     27  H   UNL     1      -8.907  -1.164  17.349  0.00  0.00    +0.000 HD
ATOM     28  H   UNL     1     -12.669  -3.159  18.057  0.00  0.00    +0.000 HD
ATOM     29  H   UNL     1     -13.061  -3.272  15.655  0.00  0.00    +0.000 HD
BRANCH  20  30
ATOM     30  C   UNL     1     -11.443  -2.330  13.565  0.00  0.00    +0.000 C 
BRANCH  30  31
ATOM     31  C   UNL     1     -12.569  -1.349  13.162  0.00  0.00    +0.000 C 
ATOM     32  H   UNL     1     -12.761  -1.391  12.084  0.00  0.00    +0.000 HD
ATOM     33  H   UNL     1     -12.305  -0.316  13.415  0.00  0.00    +0.000 HD
ATOM     34  H   UNL     1     -13.522  -1.584  13.651  0.00  0.00    +0.000 HD
ENDBRANCH  30  31
BRANCH  30  35
ATOM     35  C   UNL     1     -11.865  -3.755  13.156  0.00  0.00    +0.000 C 
ATOM     36  H   UNL     1     -12.370  -3.754  12.184  0.00  0.00    +0.000 HD
ATOM     37  H   UNL     1     -12.554  -4.195  13.887  0.00  0.00    +0.000 HD
ATOM     38  H   UNL     1     -10.999  -4.423  13.082  0.00  0.00    +0.000 HD
ENDBRANCH  30  35
BRANCH  30  39
ATOM     39  C   UNL     1     -10.197  -1.931  12.745  0.00  0.00    +0.000 C 
ATOM     40  H   UNL     1      -9.510  -1.321  13.344  0.00  0.00    +0.000 HD
ATOM     41  H   UNL     1     -10.454  -1.331  11.866  0.00  0.00    +0.000 HD
ATOM     42  H   UNL     1      -9.646  -2.816  12.404  0.00  0.00    +0.000 HD
ENDBRANCH  30  39
ENDBRANCH  20  30
ENDBRANCH   1  23
BRANCH   6  43
ATOM     43  O   UNL     1      -9.410   0.262  24.258  0.00  0.00    +0.000 OA
ATOM     44  H   UNL     1     -10.164   0.740  23.862  0.00  0.00    +0.000 HD
ENDBRANCH   6  43
BRANCH   7  45
ATOM     45  O   UNL     1      -8.873  -2.079  25.536  0.00  0.00    +0.000 OA
ATOM     46  H   UNL     1      -9.534  -1.409  25.799  0.00  0.00    +0.000 HD
ENDBRANCH   7  45
BRANCH  14  47
ATOM     47  O   UNL     1      -7.572  -6.469  17.962  0.00  0.00    +0.000 OA
ATOM     48  H   UNL     1      -6.647  -6.738  17.826  0.00  0.00    +0.000 HD
ENDBRANCH  14  47
BRANCH  15  49
ATOM     49  O   UNL     1      -9.920  -5.154  18.388  0.00  0.00    +0.000 OA
ATOM     50  H   UNL     1     -10.666  -4.829  18.933  0.00  0.00    +0.000 HD
ENDBRANCH  15  49
TORSDOF 9
ENDMDL
MODEL 2
REMARK VINA RESULT:    -7.344      3.396      5.436
REMARK INTER + INTRA:         -10.427
REMARK INTER:                  -9.684
REMARK INTRA:                  -0.743
REMARK UNBOUND:                -0.721
REMARK  Name = 
REMARK  9 active torsions:
REMARK  status: ('A' for Active; 'I' for Inactive)
REMARK    1  A    between atoms: C_1  and  C_2
REMARK    2  A    between atoms: C_2  and  C_3
REMARK    3  A    between atoms: C_2  and  C_4
REMARK    4  A    between atoms: C_2  and  C_5
REMARK    5  A    between atoms: C_8  and  C_9
REMARK    6  A    between atoms: C_14  and  O_15
REMARK    7  A    between atoms: C_16  and  O_17
REMARK    8  A    between atoms: C_24  and  O_25
REMARK    9  A    between atoms: C_26  and  O_27
REMARK                            x       y       z     vdW  Elec       q    Type
REMARK                         _______ _______ _______ _____ _____    ______ ____
ROOT
ATOM      1  C   UNL     1     -11.026  -0.539  19.588  0.00  0.00    +0.000 C 
ATOM      2  O   UNL     1     -11.394   0.182  18.652  0.00  0.00    +0.000 OA
ATOM      3  N   UNL     1     -10.867   0.097  20.845  0.00  0.00    +0.000 N 
ATOM      4  C   UNL     1     -10.740   1.487  21.024  0.00  0.00    +0.000 A 
ATOM      5  C   UNL     1     -10.535   2.569  20.149  0.00  0.00    +0.000 A 
ATOM      6  C   UNL     1     -10.797   3.835  20.675  0.00  0.00    +0.000 A 
ATOM      7  C   UNL     1     -11.313   3.999  21.954  0.00  0.00    +0.000 A 
ATOM      8  C   UNL     1     -11.265   2.961  22.864  0.00  0.00    +0.000 A 
ATOM      9  C   UNL     1     -10.833   1.713  22.393  0.00  0.00    +0.000 A 
ATOM     10  C   UNL     1     -10.321   0.533  22.968  0.00  0.00    +0.000 A 
ATOM     11  C   UNL     1      -9.626   0.190  24.142  0.00  0.00    +0.000 A 
ATOM     12 BR   UNL     1      -8.554   1.481  25.022  0.00  0.00    +0.000 Br
ATOM     13  C   UNL     1      -9.602  -1.136  24.566  0.00  0.00    +0.000 A 
ATOM     14  C   UNL     1     -10.390  -2.056  23.891  0.00  0.00    +0.000 A 
ATOM     15  C   UNL     1     -10.998  -1.744  22.667  0.00  0.00    +0.000 A 
ATOM     16  C   UNL     1     -10.764  -0.481  22.116  0.00  0.00    +0.000 A 
ATOM     17  H   UNL     1     -10.223   2.426  19.120  0.00  0.00    +0.000 HD
ATOM     18  H   UNL     1     -11.574   3.099  23.893  0.00  0.00    +0.000 HD
ATOM     19  H   UNL     1      -9.018  -1.415  25.437  0.00  0.00    +0.000 HD
ENDROOT
BRANCH   1  23
ATOM     20  C   UNL     1     -10.123  -4.580  18.345  0.00  0.00    +0.000 A 
ATOM     21  C   UNL     1      -9.173  -3.802  19.035  0.00  0.00    +0.000 A 
ATOM     22  C   UNL     1      -9.458  -2.499  19.462  0.00  0.00    +0.000 A 
ATOM     23  C   UNL     1     -10.721  -1.950  19.250  0.00  0.00    +0.000 A 
ATOM     24  C   UNL     1     -11.682  -2.705  18.567  0.00  0.00    +0.000 A 
ATOM     25  C   UNL     1     -11.382  -3.997  18.114  0.00  0.00    +0.000 A 
ATOM     26  H   UNL     1      -8.173  -4.181  19.229  0.00  0.00    +0.000 HD
ATOM     27  H   UNL     1      -8.666  -1.940  19.952  0.00  0.00    +0.000 HD
ATOM     28  H   UNL     1     -12.663  -2.278  18.355  0.00  0.00    +0.000 HD
ATOM     29  H   UNL     1     -12.155  -4.525  17.562  0.00  0.00    +0.000 HD
BRANCH  20  30
ATOM     30  C   UNL     1      -9.759  -5.968  17.786  0.00  0.00    +0.000 C 
BRANCH  30  31
ATOM     31  C   UNL     1      -8.285  -6.348  18.057  0.00  0.00    +0.000 C 
ATOM     32  H   UNL     1      -7.953  -5.972  19.031  0.00  0.00    +0.000 HD
ATOM     33  H   UNL     1      -7.620  -5.931  17.292  0.00  0.00    +0.000 HD
ATOM     34  H   UNL     1      -8.132  -7.434  18.082  0.00  0.00    +0.000 HD
ENDBRANCH  30  31
BRANCH  30  35
ATOM     35  C   UNL     1      -9.985  -5.934  16.261  0.00  0.00    +0.000 C 
ATOM     36  H   UNL     1     -10.833  -6.564  15.973  0.00  0.00    +0.000 HD
ATOM     37  H   UNL     1      -9.104  -6.296  15.717  0.00  0.00    +0.000 HD
ATOM     38  H   UNL     1     -10.190  -4.916  15.909  0.00  0.00    +0.000 HD
ENDBRANCH  30  35
BRANCH  30  39
ATOM     39  C   UNL     1     -10.623  -7.097  18.387  0.00  0.00    +0.000 C 
ATOM     40  H   UNL     1     -10.555  -7.106  19.481  0.00  0.00    +0.000 HD
ATOM     41  H   UNL     1     -10.302  -8.089  18.051  0.00  0.00    +0.000 HD
ATOM     42  H   UNL     1     -11.680  -6.974  18.120  0.00  0.00    +0.000 HD
ENDBRANCH  30  39
ENDBRANCH  20  30
ENDBRANCH   1  23
BRANCH   6  43
ATOM     43  O   UNL     1     -10.543   4.966  19.951  0.00  0.00    +0.000 OA
ATOM     44  H   UNL     1      -9.602   4.904  19.700  0.00  0.00    +0.000 HD
ENDBRANCH   6  43
BRANCH   7  45
ATOM     45  O   UNL     1     -11.815   5.206  22.343  0.00  0.00    +0.000 OA
ATOM     46  H   UNL     1     -11.063   5.823  22.251  0.00  0.00    +0.000 HD
ENDBRANCH   7  45
BRANCH  14  47
ATOM     47  O   UNL     1     -10.585  -3.314  24.394  0.00  0.00    +0.000 OA
ATOM     48  H   UNL     1     -11.500  -3.376  24.721  0.00  0.00    +0.000 HD
ENDBRANCH  14  47
BRANCH  15  49
ATOM     49  O   UNL     1     -11.842  -2.641  22.073  0.00  0.00    +0.000 OA
ATOM     50  H   UNL     1     -12.651  -2.127  21.872  0.00  0.00    +0.000 HD
ENDBRANCH  15  49
TORSDOF 9
ENDMDL
MODEL 3
REMARK VINA RESULT:    -7.273      3.954      6.312
REMARK INTER + INTRA:         -10.333
REMARK INTER:                  -9.657
REMARK INTRA:                  -0.676
REMARK UNBOUND:                -0.721
REMARK  Name = 
REMARK  9 active torsions:
REMARK  status: ('A' for Active; 'I' for Inactive)
REMARK    1  A    between atoms: C_1  and  C_2
REMARK    2  A    between atoms: C_2  and  C_3
REMARK    3  A    between atoms: C_2  and  C_4
REMARK    4  A    between atoms: C_2  and  C_5
REMARK    5  A    between atoms: C_8  and  C_9
REMARK    6  A    between atoms: C_14  and  O_15
REMARK    7  A    between atoms: C_16  and  O_17
REMARK    8  A    between atoms: C_24  and  O_25
REMARK    9  A    between atoms: C_26  and  O_27
REMARK                            x       y       z     vdW  Elec       q    Type
REMARK                         _______ _______ _______ _____ _____    ______ ____
ROOT
ATOM      1  C   UNL     1      -9.642  -4.803  17.866  0.00  0.00    +0.000 C 
ATOM      2  O   UNL     1      -9.192  -4.804  19.019  0.00  0.00    +0.000 OA
ATOM      3  N   UNL     1     -10.192  -3.578  17.408  0.00  0.00    +0.000 N 
ATOM      4  C   UNL     1     -10.586  -2.519  18.247  0.00  0.00    +0.000 A 
ATOM      5  C   UNL     1     -10.759  -2.387  19.636  0.00  0.00    +0.000 A 
ATOM      6  C   UNL     1     -10.840  -1.079  20.117  0.00  0.00    +0.000 A 
ATOM      7  C   UNL     1     -10.669   0.016  19.281  0.00  0.00    +0.000 A 
ATOM      8  C   UNL     1     -10.754  -0.133  17.910  0.00  0.00    +0.000 A 
ATOM      9  C   UNL     1     -10.852  -1.440  17.411  0.00  0.00    +0.000 A 
ATOM     10  C   UNL     1     -11.280  -2.038  16.210  0.00  0.00    +0.000 A 
ATOM     11  C   UNL     1     -12.161  -1.707  15.164  0.00  0.00    +0.000 A 
ATOM     12 BR   UNL     1     -13.607  -0.524  15.480  0.00  0.00    +0.000 Br
ATOM     13  C   UNL     1     -12.062  -2.369  13.943  0.00  0.00    +0.000 A 
ATOM     14  C   UNL     1     -10.998  -3.237  13.751  0.00  0.00    +0.000 A 
ATOM     15  C   UNL     1     -10.182  -3.647  14.816  0.00  0.00    +0.000 A 
ATOM     16  C   UNL     1     -10.489  -3.184  16.098  0.00  0.00    +0.000 A 
ATOM     17  H   UNL     1     -10.795  -3.247  20.296  0.00  0.00    +0.000 HD
ATOM     18  H   UNL     1     -10.720   0.722  17.247  0.00  0.00    +0.000 HD
ATOM     19  H   UNL     1     -12.777  -2.160  13.155  0.00  0.00    +0.000 HD
ENDROOT
BRANCH   1  23
ATOM     20  C   UNL     1      -9.473  -8.699  16.001  0.00  0.00    +0.000 A 
ATOM     21  C   UNL     1     -10.701  -8.138  16.403  0.00  0.00    +0.000 A 
ATOM     22  C   UNL     1     -10.774  -6.869  16.991  0.00  0.00    +0.000 A 
ATOM     23  C   UNL     1      -9.622  -6.102  17.151  0.00  0.00    +0.000 A 
ATOM     24  C   UNL     1      -8.390  -6.638  16.757  0.00  0.00    +0.000 A 
ATOM     25  C   UNL     1      -8.318  -7.922  16.199  0.00  0.00    +0.000 A 
ATOM     26  H   UNL     1     -11.631  -8.692  16.300  0.00  0.00    +0.000 HD
ATOM     27  H   UNL     1     -11.748  -6.514  17.315  0.00  0.00    +0.000 HD
ATOM     28  H   UNL     1      -7.472  -6.070  16.912  0.00  0.00    +0.000 HD
ATOM     29  H   UNL     1      -7.333  -8.300  15.941  0.00  0.00    +0.000 HD
BRANCH  20  30
ATOM     30  C   UNL     1      -9.397 -10.138  15.459  0.00  0.00    +0.000 C 
BRANCH  30  31
ATOM     31  C   UNL     1     -10.343 -10.372  14.259  0.00  0.00    +0.000 C 
ATOM     32  H   UNL     1      -9.826 -10.891  13.444  0.00  0.00    +0.000 HD
ATOM     33  H   UNL     1     -10.724  -9.424  13.863  0.00  0.00    +0.000 HD
ATOM     34  H   UNL     1     -11.203 -10.999  14.522  0.00  0.00    +0.000 HD
ENDBRANCH  30  31
BRANCH  30  35
ATOM     35  C   UNL     1      -9.806 -11.092  16.599  0.00  0.00    +0.000 C 
ATOM     36  H   UNL     1      -9.770 -12.137  16.272  0.00  0.00    +0.000 HD
ATOM     37  H   UNL     1     -10.825 -10.888  16.947  0.00  0.00    +0.000 HD
ATOM     38  H   UNL     1      -9.140 -10.991  17.464  0.00  0.00    +0.000 HD
ENDBRANCH  30  35
BRANCH  30  39
ATOM     39  C   UNL     1      -7.979 -10.521  14.982  0.00  0.00    +0.000 C 
ATOM     40  H   UNL     1      -7.908 -11.597  14.780  0.00  0.00    +0.000 HD
ATOM     41  H   UNL     1      -7.214 -10.299  15.734  0.00  0.00    +0.000 HD
ATOM     42  H   UNL     1      -7.713  -9.991  14.060  0.00  0.00    +0.000 HD
ENDBRANCH  30  39
ENDBRANCH  20  30
ENDBRANCH   1  23
BRANCH   6  43
ATOM     43  O   UNL     1     -11.103  -0.828  21.435  0.00  0.00    +0.000 OA
ATOM     44  H   UNL     1     -11.865  -1.398  21.657  0.00  0.00    +0.000 HD
ENDBRANCH   6  43
BRANCH   7  45
ATOM     45  O   UNL     1     -10.479   1.259  19.807  0.00  0.00    +0.000 OA
ATOM     46  H   UNL     1     -10.652   1.867  19.062  0.00  0.00    +0.000 HD
ENDBRANCH   7  45
BRANCH  14  47
ATOM     47  O   UNL     1     -10.719  -3.739  12.508  0.00  0.00    +0.000 OA
ATOM     48  H   UNL     1     -11.537  -4.114  12.137  0.00  0.00    +0.000 HD
ENDBRANCH  14  47
BRANCH  15  49
ATOM     49  O   UNL     1      -9.088  -4.430  14.578  0.00  0.00    +0.000 OA
ATOM     50  H   UNL     1      -8.501  -3.876  14.023  0.00  0.00    +0.000 HD
ENDBRANCH  15  49
TORSDOF 9
ENDMDL
MODEL 4
REMARK VINA RESULT:    -7.122      3.361      5.563
REMARK INTER + INTRA:         -10.133
REMARK INTER:                  -9.371
REMARK INTRA:                  -0.762
REMARK UNBOUND:                -0.721
REMARK  Name = 
REMARK  9 active torsions:
REMARK  status: ('A' for Active; 'I' for Inactive)
REMARK    1  A    between atoms: C_1  and  C_2
REMARK    2  A    between atoms: C_2  and  C_3
REMARK    3  A    between atoms: C_2  and  C_4
REMARK    4  A    between atoms: C_2  and  C_5
REMARK    5  A    between atoms: C_8  and  C_9
REMARK    6  A    between atoms: C_14  and  O_15
REMARK    7  A    between atoms: C_16  and  O_17
REMARK    8  A    between atoms: C_24  and  O_25
REMARK    9  A    between atoms: C_26  and  O_27
REMARK                            x       y       z     vdW  Elec       q    Type
REMARK                         _______ _______ _______ _____ _____    ______ ____
ROOT
ATOM      1  C   UNL     1     -10.567  -1.231  18.662  0.00  0.00    +0.000 C 
ATOM      2  O   UNL     1     -10.599  -0.641  17.575  0.00  0.00    +0.000 OA
ATOM      3  N   UNL     1     -10.609  -0.413  19.821  0.00  0.00    +0.000 N 
ATOM      4  C   UNL     1     -10.323   0.964  19.834  0.00  0.00    +0.000 A 
ATOM      5  C   UNL     1      -9.765   1.855  18.899  0.00  0.00    +0.000 A 
ATOM      6  C   UNL     1      -9.952   3.212  19.165  0.00  0.00    +0.000 A 
ATOM      7  C   UNL     1     -10.717   3.644  20.240  0.00  0.00    +0.000 A 
ATOM      8  C   UNL     1     -11.034   2.775  21.266  0.00  0.00    +0.000 A 
ATOM      9  C   UNL     1     -10.694   1.425  21.093  0.00  0.00    +0.000 A 
ATOM     10  C   UNL     1     -10.508   0.310  21.932  0.00  0.00    +0.000 A 
ATOM     11  C   UNL     1     -10.160   0.095  23.278  0.00  0.00    +0.000 A 
ATOM     12 BR   UNL     1      -9.141   1.389  24.214  0.00  0.00    +0.000 Br
ATOM     13  C   UNL     1     -10.430  -1.136  23.872  0.00  0.00    +0.000 A 
ATOM     14  C   UNL     1     -11.168  -2.064  23.153  0.00  0.00    +0.000 A 
ATOM     15  C   UNL     1     -11.426  -1.896  21.785  0.00  0.00    +0.000 A 
ATOM     16  C   UNL     1     -10.888  -0.778  21.143  0.00  0.00    +0.000 A 
ATOM     17  H   UNL     1      -9.250   1.507  18.010  0.00  0.00    +0.000 HD
ATOM     18  H   UNL     1     -11.547   3.117  22.156  0.00  0.00    +0.000 HD
ATOM     19  H   UNL     1     -10.110  -1.327  24.890  0.00  0.00    +0.000 HD
ENDROOT
BRANCH   1  23
ATOM     20  C   UNL     1     -10.029  -5.499  18.241  0.00  0.00    +0.000 A 
ATOM     21  C   UNL     1      -9.101  -4.717  18.955  0.00  0.00    +0.000 A 
ATOM     22  C   UNL     1      -9.272  -3.336  19.117  0.00  0.00    +0.000 A 
ATOM     23  C   UNL     1     -10.404  -2.703  18.607  0.00  0.00    +0.000 A 
ATOM     24  C   UNL     1     -11.341  -3.462  17.895  0.00  0.00    +0.000 A 
ATOM     25  C   UNL     1     -11.150  -4.837  17.708  0.00  0.00    +0.000 A 
ATOM     26  H   UNL     1      -8.202  -5.159  19.375  0.00  0.00    +0.000 HD
ATOM     27  H   UNL     1      -8.497  -2.786  19.643  0.00  0.00    +0.000 HD
ATOM     28  H   UNL     1     -12.213  -2.977  17.453  0.00  0.00    +0.000 HD
ATOM     29  H   UNL     1     -11.892  -5.370  17.120  0.00  0.00    +0.000 HD
BRANCH  20  30
ATOM     30  C   UNL     1      -9.772  -6.994  17.978  0.00  0.00    +0.000 C 
BRANCH  30  31
ATOM     31  C   UNL     1     -11.013  -7.718  17.406  0.00  0.00    +0.000 C 
ATOM     32  H   UNL     1     -11.561  -7.072  16.710  0.00  0.00    +0.000 HD
ATOM     33  H   UNL     1     -11.704  -8.013  18.203  0.00  0.00    +0.000 HD
ATOM     34  H   UNL     1     -10.747  -8.618  16.839  0.00  0.00    +0.000 HD
ENDBRANCH  30  31
BRANCH  30  35
ATOM     35  C   UNL     1      -9.397  -7.651  19.321  0.00  0.00    +0.000 C 
ATOM     36  H   UNL     1      -8.412  -7.315  19.664  0.00  0.00    +0.000 HD
ATOM     37  H   UNL     1      -9.365  -8.744  19.238  0.00  0.00    +0.000 HD
ATOM     38  H   UNL     1     -10.125  -7.405  20.104  0.00  0.00    +0.000 HD
ENDBRANCH  30  35
BRANCH  30  39
ATOM     39  C   UNL     1      -8.622  -7.233  16.975  0.00  0.00    +0.000 C 
ATOM     40  H   UNL     1      -8.358  -8.297  16.925  0.00  0.00    +0.000 HD
ATOM     41  H   UNL     1      -7.707  -6.702  17.258  0.00  0.00    +0.000 HD
ATOM     42  H   UNL     1      -8.902  -6.912  15.965  0.00  0.00    +0.000 HD
ENDBRANCH  30  39
ENDBRANCH  20  30
ENDBRANCH   1  23
BRANCH   6  43
ATOM     43  O   UNL     1      -9.374   4.170  18.380  0.00  0.00    +0.000 OA
ATOM     44  H   UNL     1      -8.415   4.098  18.552  0.00  0.00    +0.000 HD
ENDBRANCH   6  43
BRANCH   7  45
ATOM     45  O   UNL     1     -11.112   4.947  20.323  0.00  0.00    +0.000 OA
ATOM     46  H   UNL     1     -11.533   5.128  19.459  0.00  0.00    +0.000 HD
ENDBRANCH   7  45
BRANCH  14  47
ATOM     47  O   UNL     1     -11.658  -3.190  23.758  0.00  0.00    +0.000 OA
ATOM     48  H   UNL     1     -11.544  -3.941  23.148  0.00  0.00    +0.000 HD
ENDBRANCH  14  47
BRANCH  15  49
ATOM     49  O   UNL     1     -12.233  -2.782  21.127  0.00  0.00    +0.000 OA
ATOM     50  H   UNL     1     -11.636  -3.507  20.853  0.00  0.00    +0.000 HD
ENDBRANCH  15  49
TORSDOF 9
ENDMDL
MODEL 5
REMARK VINA RESULT:    -6.947      3.497      5.555
REMARK INTER + INTRA:          -9.902
REMARK INTER:                  -9.984
REMARK INTRA:                   0.082
REMARK UNBOUND:                -0.721
REMARK  Name = 
REMARK  9 active torsions:
REMARK  status: ('A' for Active; 'I' for Inactive)
REMARK    1  A    between atoms: C_1  and  C_2
REMARK    2  A    between atoms: C_2  and  C_3
REMARK    3  A    between atoms: C_2  and  C_4
REMARK    4  A    between atoms: C_2  and  C_5
REMARK    5  A    between atoms: C_8  and  C_9
REMARK    6  A    between atoms: C_14  and  O_15
REMARK    7  A    between atoms: C_16  and  O_17
REMARK    8  A    between atoms: C_24  and  O_25
REMARK    9  A    between atoms: C_26  and  O_27
REMARK                            x       y       z     vdW  Elec       q    Type
REMARK                         _______ _______ _______ _____ _____    ______ ____
ROOT
ATOM      1  C   UNL     1      -7.919  -5.971  19.198  0.00  0.00    +0.000 C 
ATOM      2  O   UNL     1      -6.875  -6.201  19.823  0.00  0.00    +0.000 OA
ATOM      3  N   UNL     1      -8.570  -4.746  19.497  0.00  0.00    +0.000 N 
ATOM      4  C   UNL     1      -8.339  -3.983  20.656  0.00  0.00    +0.000 A 
ATOM      5  C   UNL     1      -7.651  -4.220  21.860  0.00  0.00    +0.000 A 
ATOM      6  C   UNL     1      -7.367  -3.091  22.630  0.00  0.00    +0.000 A 
ATOM      7  C   UNL     1      -7.668  -1.812  22.184  0.00  0.00    +0.000 A 
ATOM      8  C   UNL     1      -8.553  -1.626  21.140  0.00  0.00    +0.000 A 
ATOM      9  C   UNL     1      -8.992  -2.771  20.459  0.00  0.00    +0.000 A 
ATOM     10  C   UNL     1     -10.076  -3.101  19.623  0.00  0.00    +0.000 A 
ATOM     11  C   UNL     1     -11.387  -2.631  19.420  0.00  0.00    +0.000 A 
ATOM     12 BR   UNL     1     -12.305  -1.747  20.821  0.00  0.00    +0.000 Br
ATOM     13  C   UNL     1     -12.061  -2.955  18.246  0.00  0.00    +0.000 A 
ATOM     14  C   UNL     1     -11.361  -3.613  17.246  0.00  0.00    +0.000 A 
ATOM     15  C   UNL     1     -10.096  -4.171  17.480  0.00  0.00    +0.000 A 
ATOM     16  C   UNL     1      -9.563  -4.080  18.768  0.00  0.00    +0.000 A 
ATOM     17  H   UNL     1      -7.335  -5.214  22.155  0.00  0.00    +0.000 HD
ATOM     18  H   UNL     1      -8.873  -0.636  20.842  0.00  0.00    +0.000 HD
ATOM     19  H   UNL     1     -13.092  -2.645  18.111  0.00  0.00    +0.000 HD
ENDROOT
BRANCH   1  23
ATOM     20  C   UNL     1      -9.037  -9.173  16.519  0.00  0.00    +0.000 A 
ATOM     21  C   UNL     1      -9.372  -9.219  17.886  0.00  0.00    +0.000 A 
ATOM     22  C   UNL     1      -9.034  -8.180  18.763  0.00  0.00    +0.000 A 
ATOM     23  C   UNL     1      -8.389  -7.040  18.286  0.00  0.00    +0.000 A 
ATOM     24  C   UNL     1      -8.048  -6.972  16.930  0.00  0.00    +0.000 A 
ATOM     25  C   UNL     1      -8.360  -8.028  16.063  0.00  0.00    +0.000 A 
ATOM     26  H   UNL     1      -9.876 -10.083  18.311  0.00  0.00    +0.000 HD
ATOM     27  H   UNL     1      -9.285  -8.298  19.813  0.00  0.00    +0.000 HD
ATOM     28  H   UNL     1      -7.507  -6.106  16.546  0.00  0.00    +0.000 HD
ATOM     29  H   UNL     1      -8.043  -7.936  15.028  0.00  0.00    +0.000 HD
BRANCH  20  30
ATOM     30  C   UNL     1      -9.317 -10.370  15.592  0.00  0.00    +0.000 C 
BRANCH  30  31
ATOM     31  C   UNL     1     -10.438 -10.078  14.567  0.00  0.00    +0.000 C 
ATOM     32  H   UNL     1     -10.429  -9.024  14.263  0.00  0.00    +0.000 HD
ATOM     33  H   UNL     1     -11.426 -10.296  14.986  0.00  0.00    +0.000 HD
ATOM     34  H   UNL     1     -10.323 -10.661  13.646  0.00  0.00    +0.000 HD
ENDBRANCH  30  31
BRANCH  30  35
ATOM     35  C   UNL     1      -9.757 -11.555  16.474  0.00  0.00    +0.000 C 
ATOM     36  H   UNL     1      -9.048 -11.725  17.291  0.00  0.00    +0.000 HD
ATOM     37  H   UNL     1      -9.824 -12.484  15.895  0.00  0.00    +0.000 HD
ATOM     38  H   UNL     1     -10.744 -11.379  16.920  0.00  0.00    +0.000 HD
ENDBRANCH  30  35
BRANCH  30  39
ATOM     39  C   UNL     1      -8.077 -10.797  14.778  0.00  0.00    +0.000 C 
ATOM     40  H   UNL     1      -8.344 -11.013  13.737  0.00  0.00    +0.000 HD
ATOM     41  H   UNL     1      -7.614 -11.707  15.173  0.00  0.00    +0.000 HD
ATOM     42  H   UNL     1      -7.316 -10.006  14.769  0.00  0.00    +0.000 HD
ENDBRANCH  30  39
ENDBRANCH  20  30
ENDBRANCH   1  23
BRANCH   6  43
ATOM     43  O   UNL     1      -6.788  -3.207  23.863  0.00  0.00    +0.000 OA
ATOM     44  H   UNL     1      -7.479  -3.594  24.435  0.00  0.00    +0.000 HD
ENDBRANCH   6  43
BRANCH   7  45
ATOM     45  O   UNL     1      -7.141  -0.723  22.814  0.00  0.00    +0.000 OA
ATOM     46  H   UNL     1      -6.177  -0.804  22.674  0.00  0.00    +0.000 HD
ENDBRANCH   7  45
BRANCH  14  47
ATOM     47  O   UNL     1     -11.895  -3.754  15.993  0.00  0.00    +0.000 OA
ATOM     48  H   UNL     1     -11.168  -3.922  15.366  0.00  0.00    +0.000 HD
ENDBRANCH  14  47
BRANCH  15  49
ATOM     49  O   UNL     1      -9.394  -4.732  16.451  0.00  0.00    +0.000 OA
ATOM     50  H   UNL     1     -10.073  -4.982  15.793  0.00  0.00    +0.000 HD
ENDBRANCH  15  49
TORSDOF 9
ENDMDL
MODEL 6
REMARK VINA RESULT:    -6.900      2.923      7.443
REMARK INTER + INTRA:          -9.840
REMARK INTER:                  -9.510
REMARK INTRA:                  -0.329
REMARK UNBOUND:                -0.721
REMARK  Name = 
REMARK  9 active torsions:
REMARK  status: ('A' for Active; 'I' for Inactive)
REMARK    1  A    between atoms: C_1  and  C_2
REMARK    2  A    between atoms: C_2  and  C_3
REMARK    3  A    between atoms: C_2  and  C_4
REMARK    4  A    between atoms: C_2  and  C_5
REMARK    5  A    between atoms: C_8  and  C_9
REMARK    6  A    between atoms: C_14  and  O_15
REMARK    7  A    between atoms: C_16  and  O_17
REMARK    8  A    between atoms: C_24  and  O_25
REMARK    9  A    between atoms: C_26  and  O_27
REMARK                            x       y       z     vdW  Elec       q    Type
REMARK                         _______ _______ _______ _____ _____    ______ ____
ROOT
ATOM      1  C   UNL     1     -10.211  -2.227  18.397  0.00  0.00    +0.000 C 
ATOM      2  O   UNL     1     -10.433  -1.200  17.744  0.00  0.00    +0.000 OA
ATOM      3  N   UNL     1     -10.187  -3.442  17.666  0.00  0.00    +0.000 N 
ATOM      4  C   UNL     1     -10.737  -3.610  16.382  0.00  0.00    +0.000 A 
ATOM      5  C   UNL     1     -11.574  -2.825  15.569  0.00  0.00    +0.000 A 
ATOM      6  C   UNL     1     -11.630  -3.190  14.222  0.00  0.00    +0.000 A 
ATOM      7  C   UNL     1     -10.836  -4.207  13.711  0.00  0.00    +0.000 A 
ATOM      8  C   UNL     1     -10.227  -5.111  14.560  0.00  0.00    +0.000 A 
ATOM      9  C   UNL     1     -10.310  -4.856  15.936  0.00  0.00    +0.000 A 
ATOM     10  C   UNL     1     -10.163  -5.608  17.118  0.00  0.00    +0.000 A 
ATOM     11  C   UNL     1     -10.289  -6.960  17.488  0.00  0.00    +0.000 A 
ATOM     12 BR   UNL     1     -11.419  -8.114  16.498  0.00  0.00    +0.000 Br
ATOM     13  C   UNL     1      -9.706  -7.407  18.671  0.00  0.00    +0.000 A 
ATOM     14  C   UNL     1      -8.895  -6.532  19.376  0.00  0.00    +0.000 A 
ATOM     15  C   UNL     1      -8.850  -5.164  19.070  0.00  0.00    +0.000 A 
ATOM     16  C   UNL     1      -9.676  -4.688  18.049  0.00  0.00    +0.000 A 
ATOM     17  H   UNL     1     -12.118  -1.971  15.957  0.00  0.00    +0.000 HD
ATOM     18  H   UNL     1      -9.684  -5.966  14.177  0.00  0.00    +0.000 HD
ATOM     19  H   UNL     1      -9.851  -8.434  18.990  0.00  0.00    +0.000 HD
ENDROOT
BRANCH   1  23
ATOM     20  C   UNL     1      -9.847  -2.002  22.699  0.00  0.00    +0.000 A 
ATOM     21  C   UNL     1      -8.753  -1.712  21.861  0.00  0.00    +0.000 A 
ATOM     22  C   UNL     1      -8.861  -1.761  20.465  0.00  0.00    +0.000 A 
ATOM     23  C   UNL     1     -10.083  -2.059  19.864  0.00  0.00    +0.000 A 
ATOM     24  C   UNL     1     -11.185  -2.349  20.678  0.00  0.00    +0.000 A 
ATOM     25  C   UNL     1     -11.064  -2.330  22.074  0.00  0.00    +0.000 A 
ATOM     26  H   UNL     1      -7.778  -1.472  22.276  0.00  0.00    +0.000 HD
ATOM     27  H   UNL     1      -7.968  -1.566  19.879  0.00  0.00    +0.000 HD
ATOM     28  H   UNL     1     -12.139  -2.625  20.227  0.00  0.00    +0.000 HD
ATOM     29  H   UNL     1     -11.943  -2.595  22.656  0.00  0.00    +0.000 HD
BRANCH  20  30
ATOM     30  C   UNL     1      -9.685  -2.052  24.229  0.00  0.00    +0.000 C 
BRANCH  30  31
ATOM     31  C   UNL     1      -8.574  -3.030  24.677  0.00  0.00    +0.000 C 
ATOM     32  H   UNL     1      -8.768  -4.043  24.306  0.00  0.00    +0.000 HD
ATOM     33  H   UNL     1      -8.505  -3.081  25.769  0.00  0.00    +0.000 HD
ATOM     34  H   UNL     1      -7.588  -2.748  24.289  0.00  0.00    +0.000 HD
ENDBRANCH  30  31
BRANCH  30  35
ATOM     35  C   UNL     1     -11.024  -2.524  24.829  0.00  0.00    +0.000 C 
ATOM     36  H   UNL     1     -11.094  -2.267  25.892  0.00  0.00    +0.000 HD
ATOM     37  H   UNL     1     -11.142  -3.611  24.742  0.00  0.00    +0.000 HD
ATOM     38  H   UNL     1     -11.877  -2.062  24.318  0.00  0.00    +0.000 HD
ENDBRANCH  30  35
BRANCH  30  39
ATOM     39  C   UNL     1      -9.331  -0.677  24.836  0.00  0.00    +0.000 C 
ATOM     40  H   UNL     1     -10.205  -0.223  25.319  0.00  0.00    +0.000 HD
ATOM     41  H   UNL     1      -8.994   0.037  24.078  0.00  0.00    +0.000 HD
ATOM     42  H   UNL     1      -8.542  -0.767  25.592  0.00  0.00    +0.000 HD
ENDBRANCH  30  39
ENDBRANCH  20  30
ENDBRANCH   1  23
BRANCH   6  43
ATOM     43  O   UNL     1     -12.481  -2.561  13.357  0.00  0.00    +0.000 OA
ATOM     44  H   UNL     1     -11.944  -2.371  12.563  0.00  0.00    +0.000 HD
ENDBRANCH   6  43
BRANCH   7  45
ATOM     45  O   UNL     1     -10.702  -4.363  12.363  0.00  0.00    +0.000 OA
ATOM     46  H   UNL     1     -10.825  -5.321  12.215  0.00  0.00    +0.000 HD
ENDBRANCH   7  45
BRANCH  14  47
ATOM     47  O   UNL     1      -8.119  -6.977  20.413  0.00  0.00    +0.000 OA
ATOM     48  H   UNL     1      -8.294  -7.926  20.543  0.00  0.00    +0.000 HD
ENDBRANCH  14  47
BRANCH  15  49
ATOM     49  O   UNL     1      -7.972  -4.345  19.724  0.00  0.00    +0.000 OA
ATOM     50  H   UNL     1      -8.118  -3.460  19.332  0.00  0.00    +0.000 HD
ENDBRANCH  15  49
TORSDOF 9
ENDMDL
MODEL 7
REMARK VINA RESULT:    -6.859      3.530      7.676
REMARK INTER + INTRA:          -9.785
REMARK INTER:                  -9.053
REMARK INTRA:                  -0.732
REMARK UNBOUND:                -0.721
REMARK  Name = 
REMARK  9 active torsions:
REMARK  status: ('A' for Active; 'I' for Inactive)
REMARK    1  A    between atoms: C_1  and  C_2
REMARK    2  A    between atoms: C_2  and  C_3
REMARK    3  A    between atoms: C_2  and  C_4
REMARK    4  A    between atoms: C_2  and  C_5
REMARK    5  A    between atoms: C_8  and  C_9
REMARK    6  A    between atoms: C_14  and  O_15
REMARK    7  A    between atoms: C_16  and  O_17
REMARK    8  A    between atoms: C_24  and  O_25
REMARK    9  A    between atoms: C_26  and  O_27
REMARK                            x       y       z     vdW  Elec       q    Type
REMARK                         _______ _______ _______ _____ _____    ______ ____
ROOT
ATOM      1  C   UNL     1     -11.523  -4.602  16.208  0.00  0.00    +0.000 C 
ATOM      2  O   UNL     1     -11.876  -5.044  15.107  0.00  0.00    +0.000 OA
ATOM      3  N   UNL     1     -11.771  -3.224  16.438  0.00  0.00    +0.000 N 
ATOM      4  C   UNL     1     -12.034  -2.282  15.427  0.00  0.00    +0.000 A 
ATOM      5  C   UNL     1     -11.946  -2.306  14.024  0.00  0.00    +0.000 A 
ATOM      6  C   UNL     1     -12.614  -1.279  13.355  0.00  0.00    +0.000 A 
ATOM      7  C   UNL     1     -13.388  -0.349  14.036  0.00  0.00    +0.000 A 
ATOM      8  C   UNL     1     -13.253  -0.197  15.403  0.00  0.00    +0.000 A 
ATOM      9  C   UNL     1     -12.440  -1.120  16.075  0.00  0.00    +0.000 A 
ATOM     10  C   UNL     1     -11.765  -1.168  17.311  0.00  0.00    +0.000 A 
ATOM     11  C   UNL     1     -11.242  -0.232  18.222  0.00  0.00    +0.000 A 
ATOM     12 BR   UNL     1     -10.718   1.487  17.623  0.00  0.00    +0.000 Br
ATOM     13  C   UNL     1     -10.966  -0.624  19.530  0.00  0.00    +0.000 A 
ATOM     14  C   UNL     1     -11.354  -1.894  19.931  0.00  0.00    +0.000 A 
ATOM     15  C   UNL     1     -11.778  -2.859  19.006  0.00  0.00    +0.000 A 
ATOM     16  C   UNL     1     -11.769  -2.523  17.650  0.00  0.00    +0.000 A 
ATOM     17  H   UNL     1     -11.420  -3.092  13.493  0.00  0.00    +0.000 HD
ATOM     18  H   UNL     1     -13.776   0.586  15.936  0.00  0.00    +0.000 HD
ATOM     19  H   UNL     1     -10.507   0.076  20.219  0.00  0.00    +0.000 HD
ENDROOT
BRANCH   1  23
ATOM     20  C   UNL     1      -9.406  -7.517  18.597  0.00  0.00    +0.000 A 
ATOM     21  C   UNL     1      -8.846  -6.254  18.327  0.00  0.00    +0.000 A 
ATOM     22  C   UNL     1      -9.527  -5.291  17.571  0.00  0.00    +0.000 A 
ATOM     23  C   UNL     1     -10.814  -5.549  17.101  0.00  0.00    +0.000 A 
ATOM     24  C   UNL     1     -11.392  -6.798  17.358  0.00  0.00    +0.000 A 
ATOM     25  C   UNL     1     -10.693  -7.769  18.088  0.00  0.00    +0.000 A 
ATOM     26  H   UNL     1      -7.847  -5.999  18.671  0.00  0.00    +0.000 HD
ATOM     27  H   UNL     1      -9.020  -4.353  17.366  0.00  0.00    +0.000 HD
ATOM     28  H   UNL     1     -12.381  -7.034  16.964  0.00  0.00    +0.000 HD
ATOM     29  H   UNL     1     -11.177  -8.732  18.231  0.00  0.00    +0.000 HD
BRANCH  20  30
ATOM     30  C   UNL     1      -8.601  -8.603  19.334  0.00  0.00    +0.000 C 
BRANCH  30  31
ATOM     31  C   UNL     1      -9.200  -8.951  20.716  0.00  0.00    +0.000 C 
ATOM     32  H   UNL     1      -8.412  -9.199  21.437  0.00  0.00    +0.000 HD
ATOM     33  H   UNL     1      -9.876  -9.811  20.651  0.00  0.00    +0.000 HD
ATOM     34  H   UNL     1      -9.758  -8.114  21.152  0.00  0.00    +0.000 HD
ENDBRANCH  30  31
BRANCH  30  35
ATOM     35  C   UNL     1      -7.170  -8.067  19.541  0.00  0.00    +0.000 C 
ATOM     36  H   UNL     1      -6.465  -8.885  19.727  0.00  0.00    +0.000 HD
ATOM     37  H   UNL     1      -7.118  -7.383  20.397  0.00  0.00    +0.000 HD
ATOM     38  H   UNL     1      -6.817  -7.516  18.661  0.00  0.00    +0.000 HD
ENDBRANCH  30  35
BRANCH  30  39
ATOM     39  C   UNL     1      -8.521  -9.926  18.543  0.00  0.00    +0.000 C 
ATOM     40  H   UNL     1      -7.992 -10.697  19.116  0.00  0.00    +0.000 HD
ATOM     41  H   UNL     1      -7.974  -9.814  17.601  0.00  0.00    +0.000 HD
ATOM     42  H   UNL     1      -9.521 -10.311  18.311  0.00  0.00    +0.000 HD
ENDBRANCH  30  39
ENDBRANCH  20  30
ENDBRANCH   1  23
BRANCH   6  43
ATOM     43  O   UNL     1     -12.521  -1.145  11.998  0.00  0.00    +0.000 OA
ATOM     44  H   UNL     1     -12.104  -1.971  11.686  0.00  0.00    +0.000 HD
ENDBRANCH   6  43
BRANCH   7  45
ATOM     45  O   UNL     1     -14.242   0.466  13.354  0.00  0.00    +0.000 OA
ATOM     46  H   UNL     1     -14.345   1.247  13.932  0.00  0.00    +0.000 HD
ENDBRANCH   7  45
BRANCH  14  47
ATOM     47  O   UNL     1     -11.317  -2.253  21.252  0.00  0.00    +0.000 OA
ATOM     48  H   UNL     1     -11.292  -1.442  21.790  0.00  0.00    +0.000 HD
ENDBRANCH  14  47
BRANCH  15  49
ATOM     49  O   UNL     1     -12.239  -4.069  19.442  0.00  0.00    +0.000 OA
ATOM     50  H   UNL     1     -12.823  -4.387  18.723  0.00  0.00    +0.000 HD
ENDBRANCH  15  49
TORSDOF 9
ENDMDL
MODEL 8
REMARK VINA RESULT:    -6.519      3.058      8.113
REMARK INTER + INTRA:          -9.336
REMARK INTER:                  -8.578
REMARK INTRA:                  -0.758
REMARK UNBOUND:                -0.721
REMARK  Name = 
REMARK  9 active torsions:
REMARK  status: ('A' for Active; 'I' for Inactive)
REMARK    1  A    between atoms: C_1  and  C_2
REMARK    2  A    between atoms: C_2  and  C_3
REMARK    3  A    between atoms: C_2  and  C_4
REMARK    4  A    between atoms: C_2  and  C_5
REMARK    5  A    between atoms: C_8  and  C_9
REMARK    6  A    between atoms: C_14  and  O_15
REMARK    7  A    between atoms: C_16  and  O_17
REMARK    8  A    between atoms: C_24  and  O_25
REMARK    9  A    between atoms: C_26  and  O_27
REMARK                            x       y       z     vdW  Elec       q    Type
REMARK                         _______ _______ _______ _____ _____    ______ ____
ROOT
ATOM      1  C   UNL     1     -11.112  -2.314  18.552  0.00  0.00    +0.000 C 
ATOM      2  O   UNL     1     -11.955  -3.200  18.363  0.00  0.00    +0.000 OA
ATOM      3  N   UNL     1     -10.664  -1.620  17.400  0.00  0.00    +0.000 N 
ATOM      4  C   UNL     1     -10.816  -2.084  16.081  0.00  0.00    +0.000 A 
ATOM      5  C   UNL     1     -11.206  -3.312  15.517  0.00  0.00    +0.000 A 
ATOM      6  C   UNL     1     -11.553  -3.277  14.165  0.00  0.00    +0.000 A 
ATOM      7  C   UNL     1     -11.592  -2.086  13.454  0.00  0.00    +0.000 A 
ATOM      8  C   UNL     1     -10.971  -0.956  13.950  0.00  0.00    +0.000 A 
ATOM      9  C   UNL     1     -10.456  -1.026  15.253  0.00  0.00    +0.000 A 
ATOM     10  C   UNL     1      -9.506  -0.311  16.008  0.00  0.00    +0.000 A 
ATOM     11  C   UNL     1      -8.371   0.476  15.736  0.00  0.00    +0.000 A 
ATOM     12 BR   UNL     1      -7.393   0.211  14.135  0.00  0.00    +0.000 Br
ATOM     13  C   UNL     1      -7.880   1.338  16.713  0.00  0.00    +0.000 A 
ATOM     14  C   UNL     1      -8.616   1.498  17.878  0.00  0.00    +0.000 A 
ATOM     15  C   UNL     1      -9.683   0.646  18.196  0.00  0.00    +0.000 A 
ATOM     16  C   UNL     1      -9.973  -0.404  17.321  0.00  0.00    +0.000 A 
ATOM     17  H   UNL     1     -11.265  -4.222  16.104  0.00  0.00    +0.000 HD
ATOM     18  H   UNL     1     -10.909  -0.045  13.368  0.00  0.00    +0.000 HD
ATOM     19  H   UNL     1      -6.972   1.901  16.530  0.00  0.00    +0.000 HD
ENDROOT
BRANCH   1  23
ATOM     20  C   UNL     1      -9.822  -2.080  22.671  0.00  0.00    +0.000 A 
ATOM     21  C   UNL     1      -8.919  -2.418  21.645  0.00  0.00    +0.000 A 
ATOM     22  C   UNL     1      -9.318  -2.479  20.303  0.00  0.00    +0.000 A 
ATOM     23  C   UNL     1     -10.625  -2.157  19.943  0.00  0.00    +0.000 A 
ATOM     24  C   UNL     1     -11.540  -1.817  20.947  0.00  0.00    +0.000 A 
ATOM     25  C   UNL     1     -11.145  -1.789  22.291  0.00  0.00    +0.000 A 
ATOM     26  H   UNL     1      -7.888  -2.676  21.869  0.00  0.00    +0.000 HD
ATOM     27  H   UNL     1      -8.580  -2.786  19.568  0.00  0.00    +0.000 HD
ATOM     28  H   UNL     1     -12.578  -1.602  20.690  0.00  0.00    +0.000 HD
ATOM     29  H   UNL     1     -11.904  -1.549  23.031  0.00  0.00    +0.000 HD
BRANCH  20  30
ATOM     30  C   UNL     1      -9.397  -2.125  24.151  0.00  0.00    +0.000 C 
BRANCH  30  31
ATOM     31  C   UNL     1      -8.267  -3.148  24.412  0.00  0.00    +0.000 C 
ATOM     32  H   UNL     1      -7.753  -2.935  25.357  0.00  0.00    +0.000 HD
ATOM     33  H   UNL     1      -7.519  -3.127  23.612  0.00  0.00    +0.000 HD
ATOM     34  H   UNL     1      -8.644  -4.174  24.496  0.00  0.00    +0.000 HD
ENDBRANCH  30  31
BRANCH  30  35
ATOM     35  C   UNL     1     -10.630  -2.534  24.982  0.00  0.00    +0.000 C 
ATOM     36  H   UNL     1     -11.032  -1.680  25.538  0.00  0.00    +0.000 HD
ATOM     37  H   UNL     1     -10.382  -3.317  25.709  0.00  0.00    +0.000 HD
ATOM     38  H   UNL     1     -11.432  -2.924  24.344  0.00  0.00    +0.000 HD
ENDBRANCH  30  35
BRANCH  30  39
ATOM     39  C   UNL     1      -8.886  -0.763  24.666  0.00  0.00    +0.000 C 
ATOM     40  H   UNL     1      -9.570   0.047  24.384  0.00  0.00    +0.000 HD
ATOM     41  H   UNL     1      -7.909  -0.500  24.246  0.00  0.00    +0.000 HD
ATOM     42  H   UNL     1      -8.798  -0.759  25.759  0.00  0.00    +0.000 HD
ENDBRANCH  30  39
ENDBRANCH  20  30
ENDBRANCH   1  23
BRANCH   6  43
ATOM     43  O   UNL     1     -11.856  -4.424  13.486  0.00  0.00    +0.000 OA
ATOM     44  H   UNL     1     -12.772  -4.301  13.170  0.00  0.00    +0.000 HD
ENDBRANCH   6  43
BRANCH   7  45
ATOM     45  O   UNL     1     -12.190  -2.035  12.229  0.00  0.00    +0.000 OA
ATOM     46  H   UNL     1     -13.045  -1.591  12.395  0.00  0.00    +0.000 HD
ENDBRANCH   7  45
BRANCH  14  47
ATOM     47  O   UNL     1      -8.310   2.491  18.769  0.00  0.00    +0.000 OA
ATOM     48  H   UNL     1      -7.431   2.307  19.145  0.00  0.00    +0.000 HD
ENDBRANCH  14  47
BRANCH  15  49
ATOM     49  O   UNL     1     -10.445   0.886  19.305  0.00  0.00    +0.000 OA
ATOM     50  H   UNL     1     -10.115   0.255  19.976  0.00  0.00    +0.000 HD
ENDBRANCH  15  49
TORSDOF 9
ENDMDL
MODEL 9
REMARK VINA RESULT:    -6.486      4.264      6.904
REMARK INTER + INTRA:          -9.292
REMARK INTER:                  -8.695
REMARK INTRA:                  -0.597
REMARK UNBOUND:                -0.721
REMARK  Name = 
REMARK  9 active torsions:
REMARK  status: ('A' for Active; 'I' for Inactive)
REMARK    1  A    between atoms: C_1  and  C_2
REMARK    2  A    between atoms: C_2  and  C_3
REMARK    3  A    between atoms: C_2  and  C_4
REMARK    4  A    between atoms: C_2  and  C_5
REMARK    5  A    between atoms: C_8  and  C_9
REMARK    6  A    between atoms: C_14  and  O_15
REMARK    7  A    between atoms: C_16  and  O_17
REMARK    8  A    between atoms: C_24  and  O_25
REMARK    9  A    between atoms: C_26  and  O_27
REMARK                            x       y       z     vdW  Elec       q    Type
REMARK                         _______ _______ _______ _____ _____    ______ ____
ROOT
ATOM      1  C   UNL     1     -10.041  -3.596  17.503  0.00  0.00    +0.000 C 
ATOM      2  O   UNL     1      -9.728  -3.108  18.597  0.00  0.00    +0.000 OA
ATOM      3  N   UNL     1     -10.518  -2.687  16.525  0.00  0.00    +0.000 N 
ATOM      4  C   UNL     1     -10.993  -1.392  16.805  0.00  0.00    +0.000 A 
ATOM      5  C   UNL     1     -11.325  -0.709  17.988  0.00  0.00    +0.000 A 
ATOM      6  C   UNL     1     -11.444   0.678  17.877  0.00  0.00    +0.000 A 
ATOM      7  C   UNL     1     -11.164   1.339  16.690  0.00  0.00    +0.000 A 
ATOM      8  C   UNL     1     -11.090   0.639  15.501  0.00  0.00    +0.000 A 
ATOM      9  C   UNL     1     -11.146  -0.760  15.575  0.00  0.00    +0.000 A 
ATOM     10  C   UNL     1     -11.439  -1.813  14.686  0.00  0.00    +0.000 A 
ATOM     11  C   UNL     1     -12.188  -1.971  13.506  0.00  0.00    +0.000 A 
ATOM     12 BR   UNL     1     -13.646  -0.815  13.145  0.00  0.00    +0.000 Br
ATOM     13  C   UNL     1     -11.957  -3.071  12.684  0.00  0.00    +0.000 A 
ATOM     14  C   UNL     1     -10.888  -3.902  12.985  0.00  0.00    +0.000 A 
ATOM     15  C   UNL     1     -10.208  -3.810  14.208  0.00  0.00    +0.000 A 
ATOM     16  C   UNL     1     -10.655  -2.874  15.144  0.00  0.00    +0.000 A 
ATOM     17  H   UNL     1     -11.449  -1.224  18.934  0.00  0.00    +0.000 HD
ATOM     18  H   UNL     1     -10.968   1.149  14.554  0.00  0.00    +0.000 HD
ATOM     19  H   UNL     1     -12.572  -3.229  11.806  0.00  0.00    +0.000 HD
ENDROOT
BRANCH   1  23
ATOM     20  C   UNL     1      -9.786  -7.870  16.914  0.00  0.00    +0.000 A 
ATOM     21  C   UNL     1      -8.689  -7.138  17.407  0.00  0.00    +0.000 A 
ATOM     22  C   UNL     1      -8.762  -5.756  17.622  0.00  0.00    +0.000 A 
ATOM     23  C   UNL     1      -9.955  -5.071  17.392  0.00  0.00    +0.000 A 
ATOM     24  C   UNL     1     -11.059  -5.780  16.903  0.00  0.00    +0.000 A 
ATOM     25  C   UNL     1     -10.971  -7.157  16.659  0.00  0.00    +0.000 A 
ATOM     26  H   UNL     1      -7.735  -7.621  17.605  0.00  0.00    +0.000 HD
ATOM     27  H   UNL     1      -7.867  -5.246  17.964  0.00  0.00    +0.000 HD
ATOM     28  H   UNL     1     -11.988  -5.255  16.679  0.00  0.00    +0.000 HD
ATOM     29  H   UNL     1     -11.848  -7.650  16.250  0.00  0.00    +0.000 HD
BRANCH  20  30
ATOM     30  C   UNL     1      -9.655  -9.368  16.579  0.00  0.00    +0.000 C 
BRANCH  30  31
ATOM     31  C   UNL     1     -11.021 -10.031  16.284  0.00  0.00    +0.000 C 
ATOM     32  H   UNL     1     -11.848  -9.354  16.525  0.00  0.00    +0.000 HD
ATOM     33  H   UNL     1     -11.154 -10.945  16.874  0.00  0.00    +0.000 HD
ATOM     34  H   UNL     1     -11.139 -10.291  15.226  0.00  0.00    +0.000 HD
ENDBRANCH  30  31
BRANCH  30  35
ATOM     35  C   UNL     1      -9.022 -10.069  17.797  0.00  0.00    +0.000 C 
ATOM     36  H   UNL     1      -7.964 -10.291  17.620  0.00  0.00    +0.000 HD
ATOM     37  H   UNL     1      -9.526 -11.017  18.021  0.00  0.00    +0.000 HD
ATOM     38  H   UNL     1      -9.086  -9.445  18.696  0.00  0.00    +0.000 HD
ENDBRANCH  30  35
BRANCH  30  39
ATOM     39  C   UNL     1      -8.765  -9.627  15.344  0.00  0.00    +0.000 C 
ATOM     40  H   UNL     1      -8.599 -10.701  15.197  0.00  0.00    +0.000 HD
ATOM     41  H   UNL     1      -7.774  -9.173  15.444  0.00  0.00    +0.000 HD
ATOM     42  H   UNL     1      -9.228  -9.233  14.431  0.00  0.00    +0.000 HD
ENDBRANCH  30  39
ENDBRANCH  20  30
ENDBRANCH   1  23
BRANCH   6  43
ATOM     43  O   UNL     1     -11.856   1.436  18.937  0.00  0.00    +0.000 OA
ATOM     44  H   UNL     1     -12.186   2.267  18.544  0.00  0.00    +0.000 HD
ENDBRANCH   6  43
BRANCH   7  45
ATOM     45  O   UNL     1     -11.019   2.695  16.676  0.00  0.00    +0.000 OA
ATOM     46  H   UNL     1     -11.549   2.988  15.909  0.00  0.00    +0.000 HD
ENDBRANCH   7  45
BRANCH  14  47
ATOM     47  O   UNL     1     -10.473  -4.858  12.098  0.00  0.00    +0.000 OA
ATOM     48  H   UNL     1      -9.808  -5.418  12.538  0.00  0.00    +0.000 HD
ENDBRANCH  14  47
BRANCH  15  49
ATOM     49  O   UNL     1      -9.103  -4.582  14.437  0.00  0.00    +0.000 OA
ATOM     50  H   UNL     1      -8.376  -3.941  14.576  0.00  0.00    +0.000 HD
ENDBRANCH  15  49
TORSDOF 9
ENDMDL
