REMARK  Name = 
REMARK  2 active torsions:
REMARK  status: ('A' for Active; 'I' for Inactive)
REMARK    1  A    between atoms: C_1  and  O_2
REMARK    2  A    between atoms: O_2  and  C_3
REMARK                            x       y       z     vdW  Elec       q    Type
REMARK                         _______ _______ _______ _____ _____    ______ ____
ROOT
ATOM      1  C   UNL     1      -2.846  -3.546  -0.153  0.00  0.00    +0.000 A 
ATOM      2  C   UNL     1      -3.187  -2.763   0.947  0.00  0.00    +0.000 A 
ATOM      3  C   UNL     1      -2.464  -1.602   1.270  0.00  0.00    +0.000 A 
ATOM      4  C   UNL     1      -1.386  -1.212   0.464  0.00  0.00    +0.000 A 
ATOM      5  C   UNL     1      -1.080  -2.004  -0.660  0.00  0.00    +0.000 A 
ATOM      6  C   UNL     1      -1.780  -3.176  -0.971  0.00  0.00    +0.000 A 
ATOM      7  N   UNL     1      -0.016  -1.439  -1.334  0.00  0.00    +0.000 N 
ATOM      8  C   UNL     1       0.402  -0.289  -0.711  0.00  0.00    +0.000 A 
ATOM      9  C   UNL     1       1.381   0.656  -1.049  0.00  0.00    +0.000 A 
ATOM     10  C   UNL     1       2.023   0.587  -2.294  0.00  0.00    +0.000 A 
ATOM     11  C   UNL     1       2.882   1.611  -2.685  0.00  0.00    +0.000 A 
ATOM     12  C   UNL     1       3.248   2.591  -1.747  0.00  0.00    +0.000 A 
ATOM     13  C   UNL     1       4.101   3.722  -1.813  0.00  0.00    +0.000 A 
ATOM     14  C   UNL     1       4.361   4.090  -0.516  0.00  0.00    +0.000 A 
ATOM     15  N   UNL     1       3.445   3.456   0.284  0.00  0.00    +0.000 N 
ATOM     16  C   UNL     1       2.710   2.550  -0.454  0.00  0.00    +0.000 A 
ATOM     17  C   UNL     1       1.657   1.683  -0.114  0.00  0.00    +0.000 A 
ATOM     18  C   UNL     1       0.827   1.756   1.018  0.00  0.00    +0.000 A 
ATOM     19  C   UNL     1      -0.256   0.868   1.296  0.00  0.00    +0.000 A 
ATOM     20  C   UNL     1      -0.412  -0.205   0.391  0.00  0.00    +0.000 A 
ATOM     21  C   UNL     1      -0.962   1.323   2.457  0.00  0.00    +0.000 C 
ATOM     22  O   UNL     1      -1.940   0.918   3.077  0.00  0.00    +0.000 OA
ATOM     23  N   UNL     1      -0.267   2.445   2.811  0.00  0.00    +0.000 N 
ATOM     24  C   UNL     1       0.822   2.765   2.046  0.00  0.00    +0.000 C 
ATOM     25  O   UNL     1       1.563   3.710   2.293  0.00  0.00    +0.000 OA
ATOM     26  H   UNL     1      -4.021  -3.022   1.591  0.00  0.00    +0.000 HD
ATOM     27  H   UNL     1      -2.765  -1.023   2.132  0.00  0.00    +0.000 HD
ATOM     28  H   UNL     1      -1.512  -3.780  -1.832  0.00  0.00    +0.000 HD
ATOM     29  H   UNL     1       0.391  -1.828  -2.170  0.00  0.00    +0.000 HD
ATOM     30  H   UNL     1       1.821  -0.214  -2.997  0.00  0.00    +0.000 HD
ATOM     31  H   UNL     1       3.317   1.613  -3.680  0.00  0.00    +0.000 HD
ATOM     32  H   UNL     1       4.575   4.125  -2.698  0.00  0.00    +0.000 HD
ATOM     33  H   UNL     1       5.097   4.763  -0.099  0.00  0.00    +0.000 HD
ATOM     34  H   UNL     1       3.356   3.582   1.286  0.00  0.00    +0.000 HD
ATOM     35  H   UNL     1      -0.539   3.001   3.608  0.00  0.00    +0.000 HD
ENDROOT
BRANCH   1  36
ATOM     36  O   UNL     1      -3.471  -4.693  -0.554  0.00  0.00    +0.000 OA
BRANCH  36  37
ATOM     37  C   UNL     1      -4.552  -5.149   0.246  0.00  0.00    +0.000 C 
ATOM     38  H   UNL     1      -4.925  -6.079  -0.193  0.00  0.00    +0.000 HD
ATOM     39  H   UNL     1      -5.373  -4.425   0.240  0.00  0.00    +0.000 HD
ATOM     40  H   UNL     1      -4.225  -5.369   1.267  0.00  0.00    +0.000 HD
ENDBRANCH  36  37
ENDBRANCH   1  36
TORSDOF 2
