
 OpenBabel01112422403D

 40 43  0  0  0  0  0  0  0  0999 V2000
    8.2311    4.8576   -1.9003 N   0  0  0  0  0  0  0  0  0  0  0  0
    7.4772    4.0481   -1.5535 C   0  0  0  0  0  0  0  0  0  0  0  0
    6.5488    3.0476   -1.1209 C   0  0  0  0  0  0  0  0  0  0  0  0
    5.6953    2.4351   -2.0376 C   0  0  0  0  0  0  0  0  0  0  0  0
    4.8006    1.4514   -1.6102 C   0  0  0  0  0  0  0  0  0  0  0  0
    4.7450    1.0620   -0.2643 C   0  0  0  0  0  0  0  0  0  0  0  0
    3.7960   -0.0217    0.1970 C   0  0  0  0  0  0  0  0  0  0  0  0
    4.3851   -1.3618    0.1507 N   0  0  0  0  0  0  0  0  0  0  0  0
    5.0881   -1.9510    1.1972 C   0  0  0  0  0  0  0  0  0  0  0  0
    5.5029   -1.4460    2.4476 C   0  0  0  0  0  0  0  0  0  0  0  0
    6.2079   -2.2996    3.2950 C   0  0  0  0  0  0  0  0  0  0  0  0
    6.6611   -1.8794    4.5181 O   0  0  0  0  0  0  0  0  0  0  0  0
    6.4726   -3.6121    2.9342 C   0  0  0  0  0  0  0  0  0  0  0  0
    7.1547   -4.4284    3.7932 O   0  0  0  0  0  0  0  0  0  0  0  0
    6.0491   -4.1209    1.7131 C   0  0  0  0  0  0  0  0  0  0  0  0
    5.3473   -3.2749    0.8240 C   0  0  0  0  0  0  0  0  0  0  0  0
    4.7679   -3.4827   -0.4646 C   0  0  0  0  0  0  0  0  0  0  0  0
    4.6725   -4.6161   -1.3091 C   0  0  0  0  0  0  0  0  0  0  0  0
    4.0121   -4.5302   -2.5395 C   0  0  0  0  0  0  0  0  0  0  0  0
    3.4619   -3.3222   -2.9286 C   0  0  0  0  0  0  0  0  0  0  0  0
    2.8009   -3.1819   -4.1219 O   0  0  0  0  0  0  0  0  0  0  0  0
    3.5387   -2.1890   -2.1136 C   0  0  0  0  0  0  0  0  0  0  0  0
    2.9438   -1.0342   -2.5627 O   0  0  0  0  0  0  0  0  0  0  0  0
    4.1889   -2.2757   -0.8730 C   0  0  0  0  0  0  0  0  0  0  0  0
    5.5877    1.7094    0.6487 C   0  0  0  0  0  0  0  0  0  0  0  0
    6.4855    2.6921    0.2276 C   0  0  0  0  0  0  0  0  0  0  0  0
    5.7222    2.7125   -3.0901 H   0  0  0  0  0  0  0  0  0  0  0  0
    4.1436    0.9971   -2.3480 H   0  0  0  0  0  0  0  0  0  0  0  0
    2.8709   -0.0175   -0.3863 H   0  0  0  0  0  0  0  0  0  0  0  0
    3.4794    0.1630    1.2304 H   0  0  0  0  0  0  0  0  0  0  0  0
    5.2768   -0.4329    2.7472 H   0  0  0  0  0  0  0  0  0  0  0  0
    6.4322   -0.9403    4.6210 H   0  0  0  0  0  0  0  0  0  0  0  0
    7.3465   -3.8618    4.5667 H   0  0  0  0  0  0  0  0  0  0  0  0
    6.2547   -5.1548    1.4558 H   0  0  0  0  0  0  0  0  0  0  0  0
    5.1013   -5.5633   -0.9912 H   0  0  0  0  0  0  0  0  0  0  0  0
    3.9379   -5.4149   -3.1630 H   0  0  0  0  0  0  0  0  0  0  0  0
    2.7852   -4.0501   -4.5602 H   0  0  0  0  0  0  0  0  0  0  0  0
    2.5948   -1.2777   -3.4449 H   0  0  0  0  0  0  0  0  0  0  0  0
    5.5539    1.4645    1.7059 H   0  0  0  0  0  0  0  0  0  0  0  0
    7.1394    3.1671    0.9556 H   0  0  0  0  0  0  0  0  0  0  0  0
  1  2  3  0  0  0  0
  2  3  1  0  0  0  0
  3  4  1  0  0  0  0
  3 26  2  0  0  0  0
  4  5  2  0  0  0  0
  4 27  1  0  0  0  0
  5  6  1  0  0  0  0
  5 28  1  0  0  0  0
  6  7  1  0  0  0  0
  6 25  2  0  0  0  0
  7  8  1  0  0  0  0
  7 29  1  0  0  0  0
  7 30  1  0  0  0  0
  8  9  1  0  0  0  0
  8 24  1  0  0  0  0
  9 10  1  0  0  0  0
  9 16  2  0  0  0  0
 10 11  2  0  0  0  0
 10 31  1  0  0  0  0
 11 12  1  0  0  0  0
 11 13  1  0  0  0  0
 12 32  1  0  0  0  0
 13 14  1  0  0  0  0
 13 15  2  0  0  0  0
 14 33  1  0  0  0  0
 15 16  1  0  0  0  0
 15 34  1  0  0  0  0
 16 17  1  0  0  0  0
 17 18  1  0  0  0  0
 17 24  2  0  0  0  0
 18 19  2  0  0  0  0
 18 35  1  0  0  0  0
 19 20  1  0  0  0  0
 19 36  1  0  0  0  0
 20 21  1  0  0  0  0
 20 22  2  0  0  0  0
 21 37  1  0  0  0  0
 22 23  1  0  0  0  0
 22 24  1  0  0  0  0
 23 38  1  0  0  0  0
 25 26  1  0  0  0  0
 25 39  1  0  0  0  0
 26 40  1  0  0  0  0
M  END
$$$$
