MODEL 1
REMARK VINA RESULT:    -7.719      0.000      0.000
REMARK INTER + INTRA:         -10.565
REMARK INTER:                  -9.749
REMARK INTRA:                  -0.816
REMARK UNBOUND:                -0.816
REMARK  Name = 
REMARK  6 active torsions:
REMARK  status: ('A' for Active; 'I' for Inactive)
REMARK    1  A    between atoms: C_1  and  O_2
REMARK    2  A    between atoms: O_2  and  C_3
REMARK    3  A    between atoms: C_4  and  N_5
REMARK    4  A    between atoms: N_5  and  C_6
REMARK    5  A    between atoms: C_7  and  C_9
REMARK    6  A    between atoms: C_18  and  C_19
REMARK                            x       y       z     vdW  Elec       q    Type
REMARK                         _______ _______ _______ _____ _____    ______ ____
ROOT
ATOM      1  C   UNL     1     -10.136  -2.310  20.568  0.00  0.00    +0.000 C 
ATOM      2  C   UNL     1      -9.558  -2.255  19.176  0.00  0.00    +0.000 C 
ATOM      3  C   UNL     1     -10.242  -0.887  18.625  0.00  0.00    +0.000 C 
ATOM      4  C   UNL     1     -10.476   0.277  19.808  0.00  0.00    +0.000 C 
ATOM      5  O   UNL     1      -9.311   0.074  20.606  0.00  0.00    +0.000 OA
ATOM      6  C   UNL     1      -9.352  -1.213  21.300  0.00  0.00    +0.000 C 
ATOM      7  N   UNL     1     -10.036  -1.093  22.564  0.00  0.00    +0.000 N 
ATOM      8  C   UNL     1      -9.626  -1.605  23.804  0.00  0.00    +0.000 A 
ATOM      9  C   UNL     1      -9.335  -2.938  24.140  0.00  0.00    +0.000 A 
ATOM     10  C   UNL     1      -8.982  -3.207  25.454  0.00  0.00    +0.000 A 
ATOM     11  C   UNL     1      -8.814  -2.171  26.369  0.00  0.00    +0.000 A 
ATOM     12  C   UNL     1      -8.971  -0.819  26.007  0.00  0.00    +0.000 A 
ATOM     13  C   UNL     1      -9.444  -0.514  24.719  0.00  0.00    +0.000 A 
ATOM     14  C   UNL     1      -9.939   0.653  24.078  0.00  0.00    +0.000 A 
ATOM     15  C   UNL     1      -9.657   2.014  24.245  0.00  0.00    +0.000 A 
ATOM     16  C   UNL     1     -10.738   2.816  23.768  0.00  0.00    +0.000 A 
ATOM     17  C   UNL     1     -11.358   2.181  22.656  0.00  0.00    +0.000 A 
ATOM     18  C   UNL     1     -11.808   2.845  21.508  0.00  0.00    +0.000 A 
ATOM     19  C   UNL     1     -11.947   4.171  21.097  0.00  0.00    +0.000 A 
ATOM     20  C   UNL     1     -13.072   4.457  20.344  0.00  0.00    +0.000 A 
ATOM     21  C   UNL     1     -14.013   3.450  20.111  0.00  0.00    +0.000 A 
ATOM     22  C   UNL     1     -13.693   2.086  20.268  0.00  0.00    +0.000 A 
ATOM     23  C   UNL     1     -12.383   1.808  20.677  0.00  0.00    +0.000 A 
ATOM     24  N   UNL     1     -11.585   0.605  20.788  0.00  0.00    +0.000 N 
ATOM     25  C   UNL     1     -11.231   0.896  22.117  0.00  0.00    +0.000 A 
ATOM     26  C   UNL     1     -10.490   0.093  22.933  0.00  0.00    +0.000 A 
ATOM     27  C   UNL     1     -10.363   4.180  23.879  0.00  0.00    +0.000 C 
ATOM     28  O   UNL     1     -10.990   5.218  23.969  0.00  0.00    +0.000 OA
ATOM     29  N   UNL     1      -8.986   4.120  23.784  0.00  0.00    +0.000 N 
ATOM     30  C   UNL     1      -8.452   2.771  23.744  0.00  0.00    +0.000 C 
ATOM     31  H   UNL     1     -10.047  -3.242  21.124  0.00  0.00    +0.000 HD
ATOM     32  H   UNL     1      -8.472  -2.109  19.165  0.00  0.00    +0.000 HD
ATOM     33  H   UNL     1      -9.460  -0.454  17.977  0.00  0.00    +0.000 HD
ATOM     34  H   UNL     1     -11.125  -1.041  18.005  0.00  0.00    +0.000 HD
ATOM     35  H   UNL     1     -10.352   1.230  19.273  0.00  0.00    +0.000 HD
ATOM     36  H   UNL     1      -9.467  -3.744  23.427  0.00  0.00    +0.000 HD
ATOM     37  H   UNL     1      -8.861  -4.241  25.770  0.00  0.00    +0.000 HD
ATOM     38  H   UNL     1      -8.598  -2.420  27.404  0.00  0.00    +0.000 HD
ATOM     39  H   UNL     1      -8.873  -0.043  26.758  0.00  0.00    +0.000 HD
ATOM     40  H   UNL     1     -11.323   4.967  21.487  0.00  0.00    +0.000 HD
ATOM     41  H   UNL     1     -13.275   5.491  20.085  0.00  0.00    +0.000 HD
ATOM     42  H   UNL     1     -15.015   3.743  19.812  0.00  0.00    +0.000 HD
ATOM     43  H   UNL     1     -14.443   1.311  20.154  0.00  0.00    +0.000 HD
ATOM     44  H   UNL     1      -8.479   4.974  23.589  0.00  0.00    +0.000 HD
ATOM     45  H   UNL     1      -7.528   2.682  24.300  0.00  0.00    +0.000 HD
ATOM     46  H   UNL     1      -8.298   2.528  22.675  0.00  0.00    +0.000 HD
ENDROOT
BRANCH   6  47
ATOM     47  C   UNL     1      -7.827  -1.391  21.490  0.00  0.00    +0.000 C 
ATOM     48  H   UNL     1      -7.436  -2.225  20.890  0.00  0.00    +0.000 HD
ATOM     49  H   UNL     1      -7.297  -0.518  21.076  0.00  0.00    +0.000 HD
ATOM     50  H   UNL     1      -7.522  -1.527  22.527  0.00  0.00    +0.000 HD
ENDBRANCH   6  47
BRANCH   2  51
ATOM     51  N   UNL     1      -9.671  -3.639  18.606  0.00  0.00    +0.000 N 
ATOM     52  C   UNL     1     -10.665  -4.145  17.802  0.00  0.00    +0.000 C 
ATOM     53  O   UNL     1     -11.016  -5.323  17.817  0.00  0.00    +0.000 OA
BRANCH  52  54
ATOM     54  C   UNL     1     -11.200  -3.293  16.750  0.00  0.00    +0.000 A 
ATOM     55  C   UNL     1     -12.419  -2.633  16.921  0.00  0.00    +0.000 A 
ATOM     56  C   UNL     1     -12.798  -1.699  15.969  0.00  0.00    +0.000 A 
ATOM     57  C   UNL     1     -11.937  -1.474  14.900  0.00  0.00    +0.000 A 
ATOM     58  N   UNL     1     -10.746  -2.096  14.725  0.00  0.00    +0.000 NA
ATOM     59  C   UNL     1     -10.390  -2.987  15.680  0.00  0.00    +0.000 A 
ATOM     60  H   UNL     1     -13.027  -2.791  17.810  0.00  0.00    +0.000 HD
ATOM     61  H   UNL     1     -13.717  -1.140  16.065  0.00  0.00    +0.000 HD
ATOM     62  H   UNL     1     -12.184  -0.750  14.126  0.00  0.00    +0.000 HD
ATOM     63  H   UNL     1      -9.402  -3.434  15.579  0.00  0.00    +0.000 HD
ENDBRANCH  52  54
BRANCH  51  64
ATOM     64  C   UNL     1      -8.753  -4.671  19.119  0.00  0.00    +0.000 C 
ATOM     65  H   UNL     1      -7.714  -4.322  19.103  0.00  0.00    +0.000 HD
ATOM     66  H   UNL     1      -8.800  -5.575  18.505  0.00  0.00    +0.000 HD
ATOM     67  H   UNL     1      -9.050  -4.933  20.142  0.00  0.00    +0.000 HD
ENDBRANCH  51  64
ENDBRANCH   2  51
BRANCH   1  68
ATOM     68  O   UNL     1     -11.538  -2.113  20.259  0.00  0.00    +0.000 OA
BRANCH  68  69
ATOM     69  C   UNL     1     -12.545  -2.998  20.669  0.00  0.00    +0.000 C 
ATOM     70  H   UNL     1     -12.584  -3.824  19.954  0.00  0.00    +0.000 HD
ATOM     71  H   UNL     1     -13.501  -2.470  20.574  0.00  0.00    +0.000 HD
ATOM     72  H   UNL     1     -12.417  -3.369  21.682  0.00  0.00    +0.000 HD
ENDBRANCH  68  69
ENDBRANCH   1  68
TORSDOF 6
ENDMDL
MODEL 2
REMARK VINA RESULT:    -7.658      2.486      7.345
REMARK INTER + INTRA:         -10.488
REMARK INTER:                  -9.966
REMARK INTRA:                  -0.522
REMARK UNBOUND:                -0.816
REMARK  Name = 
REMARK  6 active torsions:
REMARK  status: ('A' for Active; 'I' for Inactive)
REMARK    1  A    between atoms: C_1  and  O_2
REMARK    2  A    between atoms: O_2  and  C_3
REMARK    3  A    between atoms: C_4  and  N_5
REMARK    4  A    between atoms: N_5  and  C_6
REMARK    5  A    between atoms: C_7  and  C_9
REMARK    6  A    between atoms: C_18  and  C_19
REMARK                            x       y       z     vdW  Elec       q    Type
REMARK                         _______ _______ _______ _____ _____    ______ ____
ROOT
ATOM      1  C   UNL     1     -10.636   1.731  22.331  0.00  0.00    +0.000 C 
ATOM      2  C   UNL     1     -11.912   2.281  22.918  0.00  0.00    +0.000 C 
ATOM      3  C   UNL     1     -12.762   2.569  21.563  0.00  0.00    +0.000 C 
ATOM      4  C   UNL     1     -12.455   1.481  20.326  0.00  0.00    +0.000 C 
ATOM      5  O   UNL     1     -12.275   0.280  21.076  0.00  0.00    +0.000 OA
ATOM      6  C   UNL     1     -11.053   0.325  21.880  0.00  0.00    +0.000 C 
ATOM      7  N   UNL     1      -9.920  -0.138  21.117  0.00  0.00    +0.000 N 
ATOM      8  C   UNL     1      -8.929  -1.040  21.531  0.00  0.00    +0.000 A 
ATOM      9  C   UNL     1      -8.082  -0.947  22.649  0.00  0.00    +0.000 A 
ATOM     10  C   UNL     1      -7.147  -1.955  22.831  0.00  0.00    +0.000 A 
ATOM     11  C   UNL     1      -7.134  -3.069  21.998  0.00  0.00    +0.000 A 
ATOM     12  C   UNL     1      -8.068  -3.237  20.957  0.00  0.00    +0.000 A 
ATOM     13  C   UNL     1      -8.952  -2.184  20.666  0.00  0.00    +0.000 A 
ATOM     14  C   UNL     1      -9.839  -1.880  19.598  0.00  0.00    +0.000 A 
ATOM     15  C   UNL     1     -10.589  -2.686  18.733  0.00  0.00    +0.000 A 
ATOM     16  C   UNL     1     -10.904  -1.981  17.532  0.00  0.00    +0.000 A 
ATOM     17  C   UNL     1     -11.083  -0.598  17.815  0.00  0.00    +0.000 A 
ATOM     18  C   UNL     1     -12.074   0.210  17.244  0.00  0.00    +0.000 A 
ATOM     19  C   UNL     1     -13.037   0.073  16.244  0.00  0.00    +0.000 A 
ATOM     20  C   UNL     1     -13.247   1.188  15.450  0.00  0.00    +0.000 A 
ATOM     21  C   UNL     1     -12.454   2.322  15.640  0.00  0.00    +0.000 A 
ATOM     22  C   UNL     1     -11.730   2.529  16.833  0.00  0.00    +0.000 A 
ATOM     23  C   UNL     1     -11.851   1.527  17.803  0.00  0.00    +0.000 A 
ATOM     24  N   UNL     1     -11.455   1.400  19.190  0.00  0.00    +0.000 N 
ATOM     25  C   UNL     1     -10.817   0.170  18.953  0.00  0.00    +0.000 A 
ATOM     26  C   UNL     1     -10.112  -0.546  19.875  0.00  0.00    +0.000 A 
ATOM     27  C   UNL     1     -11.736  -2.810  16.735  0.00  0.00    +0.000 C 
ATOM     28  O   UNL     1     -11.971  -2.865  15.544  0.00  0.00    +0.000 OA
ATOM     29  N   UNL     1     -12.366  -3.597  17.680  0.00  0.00    +0.000 N 
ATOM     30  C   UNL     1     -11.883  -3.399  19.035  0.00  0.00    +0.000 C 
ATOM     31  H   UNL     1      -9.765   1.652  22.979  0.00  0.00    +0.000 HD
ATOM     32  H   UNL     1     -12.469   1.544  23.508  0.00  0.00    +0.000 HD
ATOM     33  H   UNL     1     -13.801   2.346  21.862  0.00  0.00    +0.000 HD
ATOM     34  H   UNL     1     -12.740   3.606  21.227  0.00  0.00    +0.000 HD
ATOM     35  H   UNL     1     -13.414   1.402  19.795  0.00  0.00    +0.000 HD
ATOM     36  H   UNL     1      -8.092  -0.078  23.297  0.00  0.00    +0.000 HD
ATOM     37  H   UNL     1      -6.405  -1.853  23.621  0.00  0.00    +0.000 HD
ATOM     38  H   UNL     1      -6.350  -3.810  22.129  0.00  0.00    +0.000 HD
ATOM     39  H   UNL     1      -7.999  -4.098  20.302  0.00  0.00    +0.000 HD
ATOM     40  H   UNL     1     -13.465  -0.886  15.979  0.00  0.00    +0.000 HD
ATOM     41  H   UNL     1     -13.913   1.099  14.597  0.00  0.00    +0.000 HD
ATOM     42  H   UNL     1     -12.396   3.050  14.835  0.00  0.00    +0.000 HD
ATOM     43  H   UNL     1     -11.063   3.375  16.951  0.00  0.00    +0.000 HD
ATOM     44  H   UNL     1     -13.193  -4.111  17.405  0.00  0.00    +0.000 HD
ATOM     45  H   UNL     1     -11.836  -4.327  19.590  0.00  0.00    +0.000 HD
ATOM     46  H   UNL     1     -12.581  -2.685  19.513  0.00  0.00    +0.000 HD
ENDROOT
BRANCH   6  47
ATOM     47  C   UNL     1     -11.478  -0.704  22.954  0.00  0.00    +0.000 C 
ATOM     48  H   UNL     1     -11.461  -1.731  22.564  0.00  0.00    +0.000 HD
ATOM     49  H   UNL     1     -10.726  -0.732  23.759  0.00  0.00    +0.000 HD
ATOM     50  H   UNL     1     -12.454  -0.508  23.394  0.00  0.00    +0.000 HD
ENDBRANCH   6  47
BRANCH   2  51
ATOM     51  N   UNL     1     -11.510   3.260  23.983  0.00  0.00    +0.000 N 
ATOM     52  C   UNL     1     -11.947   4.553  24.153  0.00  0.00    +0.000 C 
ATOM     53  O   UNL     1     -11.251   5.447  24.628  0.00  0.00    +0.000 OA
BRANCH  52  54
ATOM     54  C   UNL     1     -13.358   4.837  23.935  0.00  0.00    +0.000 A 
ATOM     55  C   UNL     1     -14.286   4.659  24.962  0.00  0.00    +0.000 A 
ATOM     56  C   UNL     1     -15.582   5.109  24.761  0.00  0.00    +0.000 A 
ATOM     57  C   UNL     1     -15.878   5.714  23.544  0.00  0.00    +0.000 A 
ATOM     58  N   UNL     1     -14.987   5.907  22.541  0.00  0.00    +0.000 NA
ATOM     59  C   UNL     1     -13.724   5.477  22.772  0.00  0.00    +0.000 A 
ATOM     60  H   UNL     1     -13.991   4.243  25.923  0.00  0.00    +0.000 HD
ATOM     61  H   UNL     1     -16.333   5.021  25.532  0.00  0.00    +0.000 HD
ATOM     62  H   UNL     1     -16.878   6.089  23.334  0.00  0.00    +0.000 HD
ATOM     63  H   UNL     1     -12.991   5.695  21.997  0.00  0.00    +0.000 HD
ENDBRANCH  52  54
BRANCH  51  64
ATOM     64  C   UNL     1     -10.356   2.917  24.833  0.00  0.00    +0.000 C 
ATOM     65  H   UNL     1     -10.663   2.311  25.694  0.00  0.00    +0.000 HD
ATOM     66  H   UNL     1      -9.880   3.820  25.226  0.00  0.00    +0.000 HD
ATOM     67  H   UNL     1      -9.619   2.374  24.228  0.00  0.00    +0.000 HD
ENDBRANCH  51  64
ENDBRANCH   2  51
BRANCH   1  68
ATOM     68  O   UNL     1     -10.360   2.754  21.343  0.00  0.00    +0.000 OA
BRANCH  68  69
ATOM     69  C   UNL     1      -9.374   3.737  21.512  0.00  0.00    +0.000 C 
ATOM     70  H   UNL     1      -8.401   3.279  21.319  0.00  0.00    +0.000 HD
ATOM     71  H   UNL     1      -9.373   4.016  22.572  0.00  0.00    +0.000 HD
ATOM     72  H   UNL     1      -9.518   4.615  20.890  0.00  0.00    +0.000 HD
ENDBRANCH  68  69
ENDBRANCH   1  68
TORSDOF 6
ENDMDL
MODEL 3
REMARK VINA RESULT:    -7.619      2.701      7.580
REMARK INTER + INTRA:         -10.439
REMARK INTER:                  -9.685
REMARK INTRA:                  -0.754
REMARK UNBOUND:                -0.816
REMARK  Name = 
REMARK  6 active torsions:
REMARK  status: ('A' for Active; 'I' for Inactive)
REMARK    1  A    between atoms: C_1  and  O_2
REMARK    2  A    between atoms: O_2  and  C_3
REMARK    3  A    between atoms: C_4  and  N_5
REMARK    4  A    between atoms: N_5  and  C_6
REMARK    5  A    between atoms: C_7  and  C_9
REMARK    6  A    between atoms: C_18  and  C_19
REMARK                            x       y       z     vdW  Elec       q    Type
REMARK                         _______ _______ _______ _____ _____    ______ ____
ROOT
ATOM      1  C   UNL     1     -10.663  -0.698  20.081  0.00  0.00    +0.000 C 
ATOM      2  C   UNL     1      -9.215  -1.060  20.296  0.00  0.00    +0.000 C 
ATOM      3  C   UNL     1      -8.950  -2.008  19.003  0.00  0.00    +0.000 C 
ATOM      4  C   UNL     1      -9.821  -1.559  17.643  0.00  0.00    +0.000 C 
ATOM      5  O   UNL     1      -9.797  -0.138  17.778  0.00  0.00    +0.000 OA
ATOM      6  C   UNL     1     -10.589   0.307  18.924  0.00  0.00    +0.000 C 
ATOM      7  N   UNL     1     -11.969   0.498  18.550  0.00  0.00    +0.000 N 
ATOM      8  C   UNL     1     -12.792   1.588  18.869  0.00  0.00    +0.000 A 
ATOM      9  C   UNL     1     -13.113   2.092  20.141  0.00  0.00    +0.000 A 
ATOM     10  C   UNL     1     -13.987   3.168  20.204  0.00  0.00    +0.000 A 
ATOM     11  C   UNL     1     -14.431   3.789  19.041  0.00  0.00    +0.000 A 
ATOM     12  C   UNL     1     -14.006   3.378  17.763  0.00  0.00    +0.000 A 
ATOM     13  C   UNL     1     -13.219   2.218  17.652  0.00  0.00    +0.000 A 
ATOM     14  C   UNL     1     -12.805   1.380  16.583  0.00  0.00    +0.000 A 
ATOM     15  C   UNL     1     -12.537   1.633  15.232  0.00  0.00    +0.000 A 
ATOM     16  C   UNL     1     -12.662   0.439  14.460  0.00  0.00    +0.000 A 
ATOM     17  C   UNL     1     -12.261  -0.684  15.236  0.00  0.00    +0.000 A 
ATOM     18  C   UNL     1     -11.508  -1.761  14.750  0.00  0.00    +0.000 A 
ATOM     19  C   UNL     1     -11.038  -2.185  13.507  0.00  0.00    +0.000 A 
ATOM     20  C   UNL     1     -11.060  -3.552  13.286  0.00  0.00    +0.000 A 
ATOM     21  C   UNL     1     -11.606  -4.392  14.259  0.00  0.00    +0.000 A 
ATOM     22  C   UNL     1     -11.774  -3.970  15.594  0.00  0.00    +0.000 A 
ATOM     23  C   UNL     1     -11.370  -2.660  15.876  0.00  0.00    +0.000 A 
ATOM     24  N   UNL     1     -11.193  -1.888  17.088  0.00  0.00    +0.000 N 
ATOM     25  C   UNL     1     -11.981  -0.833  16.599  0.00  0.00    +0.000 A 
ATOM     26  C   UNL     1     -12.324   0.289  17.295  0.00  0.00    +0.000 A 
ATOM     27  C   UNL     1     -12.294   0.734  13.122  0.00  0.00    +0.000 C 
ATOM     28  O   UNL     1     -12.557   0.228  12.048  0.00  0.00    +0.000 OA
ATOM     29  N   UNL     1     -11.415   1.788  13.279  0.00  0.00    +0.000 N 
ATOM     30  C   UNL     1     -11.300   2.266  14.645  0.00  0.00    +0.000 C 
ATOM     31  H   UNL     1     -11.209  -0.249  20.908  0.00  0.00    +0.000 HD
ATOM     32  H   UNL     1      -8.539  -0.200  20.219  0.00  0.00    +0.000 HD
ATOM     33  H   UNL     1      -7.903  -1.786  18.734  0.00  0.00    +0.000 HD
ATOM     34  H   UNL     1      -9.010  -3.078  19.206  0.00  0.00    +0.000 HD
ATOM     35  H   UNL     1      -9.163  -1.826  16.804  0.00  0.00    +0.000 HD
ATOM     36  H   UNL     1     -12.768   1.607  21.047  0.00  0.00    +0.000 HD
ATOM     37  H   UNL     1     -14.342   3.507  21.175  0.00  0.00    +0.000 HD
ATOM     38  H   UNL     1     -15.162   4.589  19.123  0.00  0.00    +0.000 HD
ATOM     39  H   UNL     1     -14.407   3.859  16.878  0.00  0.00    +0.000 HD
ATOM     40  H   UNL     1     -10.840  -1.495  12.695  0.00  0.00    +0.000 HD
ATOM     41  H   UNL     1     -10.799  -3.922  12.300  0.00  0.00    +0.000 HD
ATOM     42  H   UNL     1     -11.912  -5.392  13.962  0.00  0.00    +0.000 HD
ATOM     43  H   UNL     1     -12.260  -4.600  16.331  0.00  0.00    +0.000 HD
ATOM     44  H   UNL     1     -10.816   2.037  12.502  0.00  0.00    +0.000 HD
ATOM     45  H   UNL     1     -11.207   3.343  14.693  0.00  0.00    +0.000 HD
ATOM     46  H   UNL     1     -10.408   1.771  15.074  0.00  0.00    +0.000 HD
ENDROOT
BRANCH   6  47
ATOM     47  C   UNL     1      -9.868   1.656  19.158  0.00  0.00    +0.000 C 
ATOM     48  H   UNL     1      -8.930   1.525  19.715  0.00  0.00    +0.000 HD
ATOM     49  H   UNL     1      -9.529   2.068  18.194  0.00  0.00    +0.000 HD
ATOM     50  H   UNL     1     -10.479   2.403  19.663  0.00  0.00    +0.000 HD
ENDBRANCH   6  47
BRANCH   2  51
ATOM     51  N   UNL     1      -9.070  -1.414  21.747  0.00  0.00    +0.000 N 
ATOM     52  C   UNL     1      -8.628  -2.598  22.290  0.00  0.00    +0.000 C 
ATOM     53  O   UNL     1      -9.023  -3.042  23.365  0.00  0.00    +0.000 OA
BRANCH  52  54
ATOM     54  C   UNL     1      -7.501  -3.268  21.655  0.00  0.00    +0.000 A 
ATOM     55  C   UNL     1      -6.190  -2.902  21.965  0.00  0.00    +0.000 A 
ATOM     56  C   UNL     1      -5.157  -3.684  21.471  0.00  0.00    +0.000 A 
ATOM     57  C   UNL     1      -5.492  -4.790  20.696  0.00  0.00    +0.000 A 
ATOM     58  N   UNL     1      -6.759  -5.167  20.396  0.00  0.00    +0.000 NA
ATOM     59  C   UNL     1      -7.749  -4.399  20.908  0.00  0.00    +0.000 A 
ATOM     60  H   UNL     1      -5.980  -2.069  22.632  0.00  0.00    +0.000 HD
ATOM     61  H   UNL     1      -4.126  -3.463  21.701  0.00  0.00    +0.000 HD
ATOM     62  H   UNL     1      -4.722  -5.439  20.286  0.00  0.00    +0.000 HD
ATOM     63  H   UNL     1      -8.767  -4.740  20.729  0.00  0.00    +0.000 HD
ENDBRANCH  52  54
BRANCH  51  64
ATOM     64  C   UNL     1      -9.665  -0.504  22.741  0.00  0.00    +0.000 C 
ATOM     65  H   UNL     1     -10.237   0.296  22.255  0.00  0.00    +0.000 HD
ATOM     66  H   UNL     1      -8.889  -0.026  23.346  0.00  0.00    +0.000 HD
ATOM     67  H   UNL     1     -10.315  -1.083  23.409  0.00  0.00    +0.000 HD
ENDBRANCH  51  64
ENDBRANCH   2  51
BRANCH   1  68
ATOM     68  O   UNL     1     -11.214  -2.020  19.854  0.00  0.00    +0.000 OA
BRANCH  68  69
ATOM     69  C   UNL     1     -12.233  -2.570  20.645  0.00  0.00    +0.000 C 
ATOM     70  H   UNL     1     -11.786  -2.933  21.573  0.00  0.00    +0.000 HD
ATOM     71  H   UNL     1     -12.607  -3.457  20.121  0.00  0.00    +0.000 HD
ATOM     72  H   UNL     1     -13.048  -1.882  20.852  0.00  0.00    +0.000 HD
ENDBRANCH  68  69
ENDBRANCH   1  68
TORSDOF 6
ENDMDL
MODEL 4
REMARK VINA RESULT:    -7.506      2.351      8.634
REMARK INTER + INTRA:         -10.296
REMARK INTER:                  -9.892
REMARK INTRA:                  -0.404
REMARK UNBOUND:                -0.816
REMARK  Name = 
REMARK  6 active torsions:
REMARK  status: ('A' for Active; 'I' for Inactive)
REMARK    1  A    between atoms: C_1  and  O_2
REMARK    2  A    between atoms: O_2  and  C_3
REMARK    3  A    between atoms: C_4  and  N_5
REMARK    4  A    between atoms: N_5  and  C_6
REMARK    5  A    between atoms: C_7  and  C_9
REMARK    6  A    between atoms: C_18  and  C_19
REMARK                            x       y       z     vdW  Elec       q    Type
REMARK                         _______ _______ _______ _____ _____    ______ ____
ROOT
ATOM      1  C   UNL     1     -10.913  -0.518  19.711  0.00  0.00    +0.000 C 
ATOM      2  C   UNL     1      -9.548  -0.546  20.353  0.00  0.00    +0.000 C 
ATOM      3  C   UNL     1      -9.026  -2.011  19.880  0.00  0.00    +0.000 C 
ATOM      4  C   UNL     1      -9.583  -2.472  18.368  0.00  0.00    +0.000 C 
ATOM      5  O   UNL     1      -9.569  -1.216  17.692  0.00  0.00    +0.000 OA
ATOM      6  C   UNL     1     -10.582  -0.305  18.228  0.00  0.00    +0.000 C 
ATOM      7  N   UNL     1     -11.848  -0.499  17.565  0.00  0.00    +0.000 N 
ATOM      8  C   UNL     1     -12.705   0.492  17.066  0.00  0.00    +0.000 A 
ATOM      9  C   UNL     1     -13.283   1.571  17.758  0.00  0.00    +0.000 A 
ATOM     10  C   UNL     1     -14.136   2.405  17.051  0.00  0.00    +0.000 A 
ATOM     11  C   UNL     1     -14.314   2.239  15.681  0.00  0.00    +0.000 A 
ATOM     12  C   UNL     1     -13.633   1.245  14.952  0.00  0.00    +0.000 A 
ATOM     13  C   UNL     1     -12.855   0.307  15.651  0.00  0.00    +0.000 A 
ATOM     14  C   UNL     1     -12.235  -0.929  15.326  0.00  0.00    +0.000 A 
ATOM     15  C   UNL     1     -11.682  -1.426  14.140  0.00  0.00    +0.000 A 
ATOM     16  C   UNL     1     -11.655  -2.854  14.154  0.00  0.00    +0.000 A 
ATOM     17  C   UNL     1     -11.443  -3.321  15.482  0.00  0.00    +0.000 A 
ATOM     18  C   UNL     1     -10.619  -4.400  15.824  0.00  0.00    +0.000 A 
ATOM     19  C   UNL     1      -9.900  -5.380  15.139  0.00  0.00    +0.000 A 
ATOM     20  C   UNL     1      -9.893  -6.639  15.715  0.00  0.00    +0.000 A 
ATOM     21  C   UNL     1     -10.644  -6.866  16.871  0.00  0.00    +0.000 A 
ATOM     22  C   UNL     1     -11.087  -5.805  17.688  0.00  0.00    +0.000 A 
ATOM     23  C   UNL     1     -10.735  -4.518  17.263  0.00  0.00    +0.000 A 
ATOM     24  N   UNL     1     -10.809  -3.196  17.849  0.00  0.00    +0.000 N 
ATOM     25  C   UNL     1     -11.461  -2.671  16.720  0.00  0.00    +0.000 A 
ATOM     26  C   UNL     1     -11.930  -1.396  16.599  0.00  0.00    +0.000 A 
ATOM     27  C   UNL     1     -11.008  -3.299  12.973  0.00  0.00    +0.000 C 
ATOM     28  O   UNL     1     -11.043  -4.333  12.335  0.00  0.00    +0.000 OA
ATOM     29  N   UNL     1     -10.169  -2.242  12.676  0.00  0.00    +0.000 N 
ATOM     30  C   UNL     1     -10.340  -1.088  13.540  0.00  0.00    +0.000 C 
ATOM     31  H   UNL     1     -11.616   0.248  20.032  0.00  0.00    +0.000 HD
ATOM     32  H   UNL     1      -8.860   0.200  19.937  0.00  0.00    +0.000 HD
ATOM     33  H   UNL     1      -7.944  -1.860  19.731  0.00  0.00    +0.000 HD
ATOM     34  H   UNL     1      -9.142  -2.795  20.629  0.00  0.00    +0.000 HD
ATOM     35  H   UNL     1      -8.764  -3.081  17.957  0.00  0.00    +0.000 HD
ATOM     36  H   UNL     1     -13.144   1.699  18.826  0.00  0.00    +0.000 HD
ATOM     37  H   UNL     1     -14.685   3.178  17.585  0.00  0.00    +0.000 HD
ATOM     38  H   UNL     1     -15.036   2.870  15.168  0.00  0.00    +0.000 HD
ATOM     39  H   UNL     1     -13.831   1.120  13.893  0.00  0.00    +0.000 HD
ATOM     40  H   UNL     1      -9.525  -5.228  14.134  0.00  0.00    +0.000 HD
ATOM     41  H   UNL     1      -9.433  -7.457  15.170  0.00  0.00    +0.000 HD
ATOM     42  H   UNL     1     -10.893  -7.891  17.130  0.00  0.00    +0.000 HD
ATOM     43  H   UNL     1     -11.726  -5.979  18.546  0.00  0.00    +0.000 HD
ATOM     44  H   UNL     1      -9.415  -2.395  12.019  0.00  0.00    +0.000 HD
ATOM     45  H   UNL     1     -10.246  -0.156  12.997  0.00  0.00    +0.000 HD
ATOM     46  H   UNL     1      -9.567  -1.169  14.327  0.00  0.00    +0.000 HD
ENDROOT
BRANCH   6  47
ATOM     47  C   UNL     1      -9.909   1.021  17.801  0.00  0.00    +0.000 C 
ATOM     48  H   UNL     1     -10.409   1.893  18.245  0.00  0.00    +0.000 HD
ATOM     49  H   UNL     1      -8.893   1.076  18.224  0.00  0.00    +0.000 HD
ATOM     50  H   UNL     1      -9.847   1.160  16.723  0.00  0.00    +0.000 HD
ENDBRANCH   6  47
BRANCH   2  51
ATOM     51  N   UNL     1      -9.720  -0.033  21.753  0.00  0.00    +0.000 N 
ATOM     52  C   UNL     1      -9.627  -0.738  22.930  0.00  0.00    +0.000 C 
ATOM     53  O   UNL     1     -10.277  -0.466  23.937  0.00  0.00    +0.000 OA
BRANCH  52  54
ATOM     54  C   UNL     1      -8.575  -1.737  23.053  0.00  0.00    +0.000 A 
ATOM     55  C   UNL     1      -8.881  -3.049  23.420  0.00  0.00    +0.000 A 
ATOM     56  C   UNL     1      -7.874  -4.000  23.351  0.00  0.00    +0.000 A 
ATOM     57  C   UNL     1      -6.619  -3.588  22.918  0.00  0.00    +0.000 A 
ATOM     58  N   UNL     1      -6.308  -2.322  22.546  0.00  0.00    +0.000 NA
ATOM     59  C   UNL     1      -7.314  -1.418  22.602  0.00  0.00    +0.000 A 
ATOM     60  H   UNL     1      -9.895  -3.339  23.686  0.00  0.00    +0.000 HD
ATOM     61  H   UNL     1      -8.062  -5.035  23.597  0.00  0.00    +0.000 HD
ATOM     62  H   UNL     1      -5.793  -4.293  22.842  0.00  0.00    +0.000 HD
ATOM     63  H   UNL     1      -7.086  -0.419  22.237  0.00  0.00    +0.000 HD
ENDBRANCH  52  54
BRANCH  51  64
ATOM     64  C   UNL     1     -10.268   1.323  21.927  0.00  0.00    +0.000 C 
ATOM     65  H   UNL     1     -10.664   1.465  22.940  0.00  0.00    +0.000 HD
ATOM     66  H   UNL     1     -11.092   1.504  21.230  0.00  0.00    +0.000 HD
ATOM     67  H   UNL     1      -9.477   2.056  21.723  0.00  0.00    +0.000 HD
ENDBRANCH  51  64
ENDBRANCH   2  51
BRANCH   1  68
ATOM     68  O   UNL     1     -11.420  -1.799  20.161  0.00  0.00    +0.000 OA
BRANCH  68  69
ATOM     69  C   UNL     1     -12.409  -1.928  21.146  0.00  0.00    +0.000 C 
ATOM     70  H   UNL     1     -12.825  -0.936  21.343  0.00  0.00    +0.000 HD
ATOM     71  H   UNL     1     -11.907  -2.236  22.071  0.00  0.00    +0.000 HD
ATOM     72  H   UNL     1     -13.195  -2.633  20.890  0.00  0.00    +0.000 HD
ENDBRANCH  68  69
ENDBRANCH   1  68
TORSDOF 6
ENDMDL
MODEL 5
REMARK VINA RESULT:    -7.395      2.068      8.589
REMARK INTER + INTRA:         -10.156
REMARK INTER:                  -9.111
REMARK INTRA:                  -1.045
REMARK UNBOUND:                -0.816
REMARK  Name = 
REMARK  6 active torsions:
REMARK  status: ('A' for Active; 'I' for Inactive)
REMARK    1  A    between atoms: C_1  and  O_2
REMARK    2  A    between atoms: O_2  and  C_3
REMARK    3  A    between atoms: C_4  and  N_5
REMARK    4  A    between atoms: N_5  and  C_6
REMARK    5  A    between atoms: C_7  and  C_9
REMARK    6  A    between atoms: C_18  and  C_19
REMARK                            x       y       z     vdW  Elec       q    Type
REMARK                         _______ _______ _______ _____ _____    ______ ____
ROOT
ATOM      1  C   UNL     1     -10.858  -1.023  19.872  0.00  0.00    +0.000 C 
ATOM      2  C   UNL     1      -9.637  -0.806  20.729  0.00  0.00    +0.000 C 
ATOM      3  C   UNL     1      -8.942  -2.273  20.634  0.00  0.00    +0.000 C 
ATOM      4  C   UNL     1      -9.180  -3.040  19.163  0.00  0.00    +0.000 C 
ATOM      5  O   UNL     1      -9.124  -1.924  18.276  0.00  0.00    +0.000 OA
ATOM      6  C   UNL     1     -10.274  -1.038  18.453  0.00  0.00    +0.000 C 
ATOM      7  N   UNL     1     -11.381  -1.465  17.634  0.00  0.00    +0.000 N 
ATOM      8  C   UNL     1     -12.195  -0.663  16.820  0.00  0.00    +0.000 A 
ATOM      9  C   UNL     1     -12.959   0.457  17.191  0.00  0.00    +0.000 A 
ATOM     10  C   UNL     1     -13.720   1.070  16.206  0.00  0.00    +0.000 A 
ATOM     11  C   UNL     1     -13.632   0.653  14.881  0.00  0.00    +0.000 A 
ATOM     12  C   UNL     1     -12.765  -0.380  14.476  0.00  0.00    +0.000 A 
ATOM     13  C   UNL     1     -12.070  -1.104  15.461  0.00  0.00    +0.000 A 
ATOM     14  C   UNL     1     -11.321  -2.311  15.482  0.00  0.00    +0.000 A 
ATOM     15  C   UNL     1     -10.528  -2.949  14.521  0.00  0.00    +0.000 A 
ATOM     16  C   UNL     1     -10.412  -4.343  14.806  0.00  0.00    +0.000 A 
ATOM     17  C   UNL     1     -10.417  -4.551  16.214  0.00  0.00    +0.000 A 
ATOM     18  C   UNL     1      -9.602  -5.469  16.887  0.00  0.00    +0.000 A 
ATOM     19  C   UNL     1      -8.707  -6.478  16.529  0.00  0.00    +0.000 A 
ATOM     20  C   UNL     1      -8.724  -7.612  17.323  0.00  0.00    +0.000 A 
ATOM     21  C   UNL     1      -9.658  -7.708  18.357  0.00  0.00    +0.000 A 
ATOM     22  C   UNL     1     -10.312  -6.570  18.874  0.00  0.00    +0.000 A 
ATOM     23  C   UNL     1      -9.973  -5.348  18.281  0.00  0.00    +0.000 A 
ATOM     24  N   UNL     1     -10.240  -3.959  18.589  0.00  0.00    +0.000 N 
ATOM     25  C   UNL     1     -10.706  -3.702  17.288  0.00  0.00    +0.000 A 
ATOM     26  C   UNL     1     -11.226  -2.519  16.852  0.00  0.00    +0.000 A 
ATOM     27  C   UNL     1      -9.530  -4.920  13.856  0.00  0.00    +0.000 C 
ATOM     28  O   UNL     1      -9.380  -6.047  13.426  0.00  0.00    +0.000 OA
ATOM     29  N   UNL     1      -8.722  -3.853  13.513  0.00  0.00    +0.000 N 
ATOM     30  C   UNL     1      -9.124  -2.590  14.104  0.00  0.00    +0.000 C 
ATOM     31  H   UNL     1     -11.657  -0.285  19.920  0.00  0.00    +0.000 HD
ATOM     32  H   UNL     1      -8.934  -0.080  20.304  0.00  0.00    +0.000 HD
ATOM     33  H   UNL     1      -7.863  -2.045  20.645  0.00  0.00    +0.000 HD
ATOM     34  H   UNL     1      -9.142  -2.924  21.486  0.00  0.00    +0.000 HD
ATOM     35  H   UNL     1      -8.262  -3.628  19.018  0.00  0.00    +0.000 HD
ATOM     36  H   UNL     1     -13.028   0.780  18.224  0.00  0.00    +0.000 HD
ATOM     37  H   UNL     1     -14.407   1.866  16.485  0.00  0.00    +0.000 HD
ATOM     38  H   UNL     1     -14.286   1.113  14.145  0.00  0.00    +0.000 HD
ATOM     39  H   UNL     1     -12.756  -0.705  13.442  0.00  0.00    +0.000 HD
ATOM     40  H   UNL     1      -8.164  -6.466  15.591  0.00  0.00    +0.000 HD
ATOM     41  H   UNL     1      -8.119  -8.463  17.026  0.00  0.00    +0.000 HD
ATOM     42  H   UNL     1      -9.883  -8.693  18.757  0.00  0.00    +0.000 HD
ATOM     43  H   UNL     1     -11.086  -6.655  19.628  0.00  0.00    +0.000 HD
ATOM     44  H   UNL     1      -7.851  -4.043  13.033  0.00  0.00    +0.000 HD
ATOM     45  H   UNL     1      -8.992  -1.761  13.420  0.00  0.00    +0.000 HD
ATOM     46  H   UNL     1      -8.505  -2.458  15.011  0.00  0.00    +0.000 HD
ENDROOT
BRANCH   6  47
ATOM     47  C   UNL     1      -9.623   0.255  17.905  0.00  0.00    +0.000 C 
ATOM     48  H   UNL     1      -9.225   0.885  18.713  0.00  0.00    +0.000 HD
ATOM     49  H   UNL     1      -8.722  -0.001  17.325  0.00  0.00    +0.000 HD
ATOM     50  H   UNL     1     -10.283   0.853  17.281  0.00  0.00    +0.000 HD
ENDBRANCH   6  47
BRANCH   2  51
ATOM     51  N   UNL     1     -10.096  -0.079  21.959  0.00  0.00    +0.000 N 
ATOM     52  C   UNL     1     -10.375   1.261  22.096  0.00  0.00    +0.000 C 
ATOM     53  O   UNL     1     -10.205   1.887  23.139  0.00  0.00    +0.000 OA
BRANCH  52  54
ATOM     54  C   UNL     1     -11.082   1.931  21.013  0.00  0.00    +0.000 A 
ATOM     55  C   UNL     1     -12.473   1.862  20.922  0.00  0.00    +0.000 A 
ATOM     56  C   UNL     1     -13.110   2.657  19.981  0.00  0.00    +0.000 A 
ATOM     57  C   UNL     1     -12.321   3.479  19.185  0.00  0.00    +0.000 A 
ATOM     58  N   UNL     1     -10.970   3.568  19.268  0.00  0.00    +0.000 NA
ATOM     59  C   UNL     1     -10.376   2.797  20.208  0.00  0.00    +0.000 A 
ATOM     60  H   UNL     1     -13.055   1.255  21.614  0.00  0.00    +0.000 HD
ATOM     61  H   UNL     1     -14.186   2.663  19.887  0.00  0.00    +0.000 HD
ATOM     62  H   UNL     1     -12.767   4.126  18.433  0.00  0.00    +0.000 HD
ATOM     63  H   UNL     1      -9.301   2.920  20.325  0.00  0.00    +0.000 HD
ENDBRANCH  52  54
BRANCH  51  64
ATOM     64  C   UNL     1     -10.041  -0.797  23.244  0.00  0.00    +0.000 C 
ATOM     65  H   UNL     1     -10.476  -1.800  23.158  0.00  0.00    +0.000 HD
ATOM     66  H   UNL     1     -10.607  -0.264  24.013  0.00  0.00    +0.000 HD
ATOM     67  H   UNL     1      -8.995  -0.863  23.570  0.00  0.00    +0.000 HD
ENDBRANCH  51  64
ENDBRANCH   2  51
BRANCH   1  68
ATOM     68  O   UNL     1     -11.355  -2.250  20.461  0.00  0.00    +0.000 OA
BRANCH  68  69
ATOM     69  C   UNL     1     -12.560  -2.324  21.175  0.00  0.00    +0.000 C 
ATOM     70  H   UNL     1     -12.637  -1.434  21.805  0.00  0.00    +0.000 HD
ATOM     71  H   UNL     1     -12.479  -3.175  21.861  0.00  0.00    +0.000 HD
ATOM     72  H   UNL     1     -13.438  -2.429  20.545  0.00  0.00    +0.000 HD
ENDBRANCH  68  69
ENDBRANCH   1  68
TORSDOF 6
ENDMDL
MODEL 6
REMARK VINA RESULT:    -7.289      2.522      6.386
REMARK INTER + INTRA:         -10.022
REMARK INTER:                  -9.047
REMARK INTRA:                  -0.974
REMARK UNBOUND:                -0.816
REMARK  Name = 
REMARK  6 active torsions:
REMARK  status: ('A' for Active; 'I' for Inactive)
REMARK    1  A    between atoms: C_1  and  O_2
REMARK    2  A    between atoms: O_2  and  C_3
REMARK    3  A    between atoms: C_4  and  N_5
REMARK    4  A    between atoms: N_5  and  C_6
REMARK    5  A    between atoms: C_7  and  C_9
REMARK    6  A    between atoms: C_18  and  C_19
REMARK                            x       y       z     vdW  Elec       q    Type
REMARK                         _______ _______ _______ _____ _____    ______ ____
ROOT
ATOM      1  C   UNL     1     -11.980   3.495  20.935  0.00  0.00    +0.000 C 
ATOM      2  C   UNL     1     -13.418   3.373  20.498  0.00  0.00    +0.000 C 
ATOM      3  C   UNL     1     -13.339   2.026  19.590  0.00  0.00    +0.000 C 
ATOM      4  C   UNL     1     -12.215   0.908  20.133  0.00  0.00    +0.000 C 
ATOM      5  O   UNL     1     -12.346   1.074  21.545  0.00  0.00    +0.000 OA
ATOM      6  C   UNL     1     -11.852   2.380  21.981  0.00  0.00    +0.000 C 
ATOM      7  N   UNL     1     -10.436   2.329  22.251  0.00  0.00    +0.000 N 
ATOM      8  C   UNL     1      -9.765   2.853  23.365  0.00  0.00    +0.000 A 
ATOM      9  C   UNL     1      -9.761   4.178  23.833  0.00  0.00    +0.000 A 
ATOM     10  C   UNL     1      -8.982   4.464  24.945  0.00  0.00    +0.000 A 
ATOM     11  C   UNL     1      -8.327   3.447  25.632  0.00  0.00    +0.000 A 
ATOM     12  C   UNL     1      -8.435   2.095  25.252  0.00  0.00    +0.000 A 
ATOM     13  C   UNL     1      -9.115   1.780  24.062  0.00  0.00    +0.000 A 
ATOM     14  C   UNL     1      -9.235   0.622  23.248  0.00  0.00    +0.000 A 
ATOM     15  C   UNL     1      -9.212  -0.746  23.542  0.00  0.00    +0.000 A 
ATOM     16  C   UNL     1      -8.854  -1.505  22.386  0.00  0.00    +0.000 A 
ATOM     17  C   UNL     1      -9.355  -0.870  21.216  0.00  0.00    +0.000 A 
ATOM     18  C   UNL     1      -9.922  -1.541  20.125  0.00  0.00    +0.000 A 
ATOM     19  C   UNL     1     -10.082  -2.869  19.728  0.00  0.00    +0.000 A 
ATOM     20  C   UNL     1      -9.937  -3.118  18.374  0.00  0.00    +0.000 A 
ATOM     21  C   UNL     1      -9.575  -2.072  17.522  0.00  0.00    +0.000 A 
ATOM     22  C   UNL     1      -9.729  -0.722  17.899  0.00  0.00    +0.000 A 
ATOM     23  C   UNL     1     -10.256  -0.499  19.177  0.00  0.00    +0.000 A 
ATOM     24  N   UNL     1     -10.739   0.664  19.891  0.00  0.00    +0.000 N 
ATOM     25  C   UNL     1      -9.921   0.392  21.000  0.00  0.00    +0.000 A 
ATOM     26  C   UNL     1      -9.802   1.179  22.108  0.00  0.00    +0.000 A 
ATOM     27  C   UNL     1      -8.933  -2.883  22.716  0.00  0.00    +0.000 C 
ATOM     28  O   UNL     1      -8.412  -3.885  22.266  0.00  0.00    +0.000 OA
ATOM     29  N   UNL     1      -9.881  -2.896  23.721  0.00  0.00    +0.000 N 
ATOM     30  C   UNL     1     -10.321  -1.576  24.138  0.00  0.00    +0.000 C 
ATOM     31  H   UNL     1     -11.657   4.436  21.377  0.00  0.00    +0.000 HD
ATOM     32  H   UNL     1     -14.107   3.171  21.327  0.00  0.00    +0.000 HD
ATOM     33  H   UNL     1     -14.311   1.538  19.773  0.00  0.00    +0.000 HD
ATOM     34  H   UNL     1     -13.268   2.208  18.517  0.00  0.00    +0.000 HD
ATOM     35  H   UNL     1     -12.656  -0.064  19.868  0.00  0.00    +0.000 HD
ATOM     36  H   UNL     1     -10.271   4.970  23.297  0.00  0.00    +0.000 HD
ATOM     37  H   UNL     1      -8.870   5.499  25.262  0.00  0.00    +0.000 HD
ATOM     38  H   UNL     1      -7.676   3.712  26.462  0.00  0.00    +0.000 HD
ATOM     39  H   UNL     1      -7.875   1.336  25.787  0.00  0.00    +0.000 HD
ATOM     40  H   UNL     1     -10.133  -3.685  20.440  0.00  0.00    +0.000 HD
ATOM     41  H   UNL     1      -9.953  -4.147  18.031  0.00  0.00    +0.000 HD
ATOM     42  H   UNL     1      -9.157  -2.321  16.551  0.00  0.00    +0.000 HD
ATOM     43  H   UNL     1      -9.384   0.087  17.264  0.00  0.00    +0.000 HD
ATOM     44  H   UNL     1     -10.306  -3.779  23.972  0.00  0.00    +0.000 HD
ATOM     45  H   UNL     1     -10.481  -1.520  25.207  0.00  0.00    +0.000 HD
ATOM     46  H   UNL     1     -11.257  -1.371  23.585  0.00  0.00    +0.000 HD
ENDROOT
BRANCH   6  47
ATOM     47  C   UNL     1     -12.679   2.486  23.284  0.00  0.00    +0.000 C 
ATOM     48  H   UNL     1     -12.111   2.971  24.090  0.00  0.00    +0.000 HD
ATOM     49  H   UNL     1     -13.527   3.172  23.131  0.00  0.00    +0.000 HD
ATOM     50  H   UNL     1     -13.061   1.532  23.645  0.00  0.00    +0.000 HD
ENDBRANCH   6  47
BRANCH   2  51
ATOM     51  N   UNL     1     -13.861   4.745  20.080  0.00  0.00    +0.000 N 
ATOM     52  C   UNL     1     -13.826   5.299  18.822  0.00  0.00    +0.000 C 
ATOM     53  O   UNL     1     -13.662   6.499  18.613  0.00  0.00    +0.000 OA
BRANCH  52  54
ATOM     54  C   UNL     1     -14.187   4.459  17.689  0.00  0.00    +0.000 A 
ATOM     55  C   UNL     1     -15.525   4.181  17.407  0.00  0.00    +0.000 A 
ATOM     56  C   UNL     1     -15.824   3.526  16.222  0.00  0.00    +0.000 A 
ATOM     57  C   UNL     1     -14.769   3.187  15.383  0.00  0.00    +0.000 A 
ATOM     58  N   UNL     1     -13.465   3.461  15.634  0.00  0.00    +0.000 NA
ATOM     59  C   UNL     1     -13.203   4.119  16.787  0.00  0.00    +0.000 A 
ATOM     60  H   UNL     1     -16.323   4.527  18.062  0.00  0.00    +0.000 HD
ATOM     61  H   UNL     1     -16.845   3.310  15.942  0.00  0.00    +0.000 HD
ATOM     62  H   UNL     1     -14.946   2.675  14.439  0.00  0.00    +0.000 HD
ATOM     63  H   UNL     1     -12.166   4.402  16.957  0.00  0.00    +0.000 HD
ENDBRANCH  52  54
BRANCH  51  64
ATOM     64  C   UNL     1     -14.168   5.721  21.140  0.00  0.00    +0.000 C 
ATOM     65  H   UNL     1     -14.742   6.568  20.745  0.00  0.00    +0.000 HD
ATOM     66  H   UNL     1     -13.250   6.127  21.573  0.00  0.00    +0.000 HD
ATOM     67  H   UNL     1     -14.732   5.217  21.935  0.00  0.00    +0.000 HD
ENDBRANCH  51  64
ENDBRANCH   2  51
BRANCH   1  68
ATOM     68  O   UNL     1     -11.322   3.361  19.651  0.00  0.00    +0.000 OA
BRANCH  68  69
ATOM     69  C   UNL     1     -10.301   4.219  19.220  0.00  0.00    +0.000 C 
ATOM     70  H   UNL     1     -10.615   5.247  19.418  0.00  0.00    +0.000 HD
ATOM     71  H   UNL     1     -10.236   4.126  18.130  0.00  0.00    +0.000 HD
ATOM     72  H   UNL     1      -9.335   4.016  19.675  0.00  0.00    +0.000 HD
ENDBRANCH  68  69
ENDBRANCH   1  68
TORSDOF 6
ENDMDL
MODEL 7
REMARK VINA RESULT:    -7.226      2.194      7.617
REMARK INTER + INTRA:          -9.942
REMARK INTER:                  -8.859
REMARK INTRA:                  -1.084
REMARK UNBOUND:                -0.816
REMARK  Name = 
REMARK  6 active torsions:
REMARK  status: ('A' for Active; 'I' for Inactive)
REMARK    1  A    between atoms: C_1  and  O_2
REMARK    2  A    between atoms: O_2  and  C_3
REMARK    3  A    between atoms: C_4  and  N_5
REMARK    4  A    between atoms: N_5  and  C_6
REMARK    5  A    between atoms: C_7  and  C_9
REMARK    6  A    between atoms: C_18  and  C_19
REMARK                            x       y       z     vdW  Elec       q    Type
REMARK                         _______ _______ _______ _____ _____    ______ ____
ROOT
ATOM      1  C   UNL     1     -12.327   3.305  21.107  0.00  0.00    +0.000 C 
ATOM      2  C   UNL     1     -13.773   3.722  21.017  0.00  0.00    +0.000 C 
ATOM      3  C   UNL     1     -14.135   3.220  19.514  0.00  0.00    +0.000 C 
ATOM      4  C   UNL     1     -13.320   1.832  19.049  0.00  0.00    +0.000 C 
ATOM      5  O   UNL     1     -13.290   1.121  20.286  0.00  0.00    +0.000 OA
ATOM      6  C   UNL     1     -12.426   1.782  21.265  0.00  0.00    +0.000 C 
ATOM      7  N   UNL     1     -11.062   1.336  21.128  0.00  0.00    +0.000 N 
ATOM      8  C   UNL     1     -10.188   0.947  22.154  0.00  0.00    +0.000 A 
ATOM      9  C   UNL     1      -9.786   1.687  23.280  0.00  0.00    +0.000 A 
ATOM     10  C   UNL     1      -8.875   1.097  24.144  0.00  0.00    +0.000 A 
ATOM     11  C   UNL     1      -8.471  -0.221  23.956  0.00  0.00    +0.000 A 
ATOM     12  C   UNL     1      -8.973  -1.016  22.908  0.00  0.00    +0.000 A 
ATOM     13  C   UNL     1      -9.803  -0.419  21.943  0.00  0.00    +0.000 A 
ATOM     14  C   UNL     1     -10.298  -0.798  20.667  0.00  0.00    +0.000 A 
ATOM     15  C   UNL     1     -10.626  -2.040  20.111  0.00  0.00    +0.000 A 
ATOM     16  C   UNL     1     -10.580  -1.984  18.685  0.00  0.00    +0.000 A 
ATOM     17  C   UNL     1     -10.978  -0.692  18.238  0.00  0.00    +0.000 A 
ATOM     18  C   UNL     1     -11.790  -0.450  17.123  0.00  0.00    +0.000 A 
ATOM     19  C   UNL     1     -12.336  -1.209  16.087  0.00  0.00    +0.000 A 
ATOM     20  C   UNL     1     -12.370  -0.600  14.844  0.00  0.00    +0.000 A 
ATOM     21  C   UNL     1     -11.804   0.667  14.688  0.00  0.00    +0.000 A 
ATOM     22  C   UNL     1     -11.554   1.509  15.792  0.00  0.00    +0.000 A 
ATOM     23  C   UNL     1     -11.900   0.992  17.046  0.00  0.00    +0.000 A 
ATOM     24  N   UNL     1     -11.990   1.539  18.383  0.00  0.00    +0.000 N 
ATOM     25  C   UNL     1     -11.193   0.512  18.917  0.00  0.00    +0.000 A 
ATOM     26  C   UNL     1     -10.778   0.424  20.214  0.00  0.00    +0.000 A 
ATOM     27  C   UNL     1     -11.005  -3.237  18.175  0.00  0.00    +0.000 C 
ATOM     28  O   UNL     1     -10.814  -3.828  17.130  0.00  0.00    +0.000 OA
ATOM     29  N   UNL     1     -11.840  -3.699  19.175  0.00  0.00    +0.000 N 
ATOM     30  C   UNL     1     -11.870  -2.857  20.358  0.00  0.00    +0.000 C 
ATOM     31  H   UNL     1     -11.726   3.708  21.919  0.00  0.00    +0.000 HD
ATOM     32  H   UNL     1     -14.424   3.178  21.712  0.00  0.00    +0.000 HD
ATOM     33  H   UNL     1     -15.186   2.896  19.600  0.00  0.00    +0.000 HD
ATOM     34  H   UNL     1     -14.101   4.003  18.756  0.00  0.00    +0.000 HD
ATOM     35  H   UNL     1     -14.029   1.316  18.384  0.00  0.00    +0.000 HD
ATOM     36  H   UNL     1     -10.101   2.714  23.425  0.00  0.00    +0.000 HD
ATOM     37  H   UNL     1      -8.461   1.686  24.959  0.00  0.00    +0.000 HD
ATOM     38  H   UNL     1      -7.710  -0.632  24.614  0.00  0.00    +0.000 HD
ATOM     39  H   UNL     1      -8.602  -2.025  22.769  0.00  0.00    +0.000 HD
ATOM     40  H   UNL     1     -12.552  -2.265  16.194  0.00  0.00    +0.000 HD
ATOM     41  H   UNL     1     -12.694  -1.185  13.989  0.00  0.00    +0.000 HD
ATOM     42  H   UNL     1     -11.547   0.995  13.685  0.00  0.00    +0.000 HD
ATOM     43  H   UNL     1     -11.053   2.463  15.675  0.00  0.00    +0.000 HD
ATOM     44  H   UNL     1     -12.469  -4.462  18.965  0.00  0.00    +0.000 HD
ATOM     45  H   UNL     1     -11.924  -3.438  21.270  0.00  0.00    +0.000 HD
ATOM     46  H   UNL     1     -12.754  -2.201  20.252  0.00  0.00    +0.000 HD
ENDROOT
BRANCH   6  47
ATOM     47  C   UNL     1     -13.090   1.210  22.541  0.00  0.00    +0.000 C 
ATOM     48  H   UNL     1     -13.054   0.111  22.561  0.00  0.00    +0.000 HD
ATOM     49  H   UNL     1     -12.497   1.493  23.426  0.00  0.00    +0.000 HD
ATOM     50  H   UNL     1     -14.118   1.534  22.689  0.00  0.00    +0.000 HD
ENDBRANCH   6  47
BRANCH   2  51
ATOM     51  N   UNL     1     -13.856   5.114  21.572  0.00  0.00    +0.000 N 
ATOM     52  C   UNL     1     -13.916   5.497  22.892  0.00  0.00    +0.000 C 
ATOM     53  O   UNL     1     -14.511   6.499  23.282  0.00  0.00    +0.000 OA
BRANCH  52  54
ATOM     54  C   UNL     1     -13.080   4.790  23.852  0.00  0.00    +0.000 A 
ATOM     55  C   UNL     1     -11.696   4.969  23.858  0.00  0.00    +0.000 A 
ATOM     56  C   UNL     1     -10.967   4.415  24.899  0.00  0.00    +0.000 A 
ATOM     57  C   UNL     1     -11.662   3.714  25.878  0.00  0.00    +0.000 A 
ATOM     58  N   UNL     1     -13.006   3.541  25.895  0.00  0.00    +0.000 NA
ATOM     59  C   UNL     1     -13.696   4.110  24.879  0.00  0.00    +0.000 A 
ATOM     60  H   UNL     1     -11.203   5.585  23.107  0.00  0.00    +0.000 HD
ATOM     61  H   UNL     1      -9.897   4.545  24.967  0.00  0.00    +0.000 HD
ATOM     62  H   UNL     1     -11.140   3.261  26.719  0.00  0.00    +0.000 HD
ATOM     63  H   UNL     1     -14.780   4.034  24.929  0.00  0.00    +0.000 HD
ENDBRANCH  52  54
BRANCH  51  64
ATOM     64  C   UNL     1     -14.132   6.215  20.633  0.00  0.00    +0.000 C 
ATOM     65  H   UNL     1     -14.700   5.862  19.763  0.00  0.00    +0.000 HD
ATOM     66  H   UNL     1     -13.201   6.649  20.257  0.00  0.00    +0.000 HD
ATOM     67  H   UNL     1     -14.691   6.999  21.159  0.00  0.00    +0.000 HD
ENDBRANCH  51  64
ENDBRANCH   2  51
BRANCH   1  68
ATOM     68  O   UNL     1     -11.832   3.871  19.868  0.00  0.00    +0.000 OA
BRANCH  68  69
ATOM     69  C   UNL     1     -10.676   4.661  19.795  0.00  0.00    +0.000 C 
ATOM     70  H   UNL     1     -10.161   4.599  20.757  0.00  0.00    +0.000 HD
ATOM     71  H   UNL     1     -11.001   5.703  19.691  0.00  0.00    +0.000 HD
ATOM     72  H   UNL     1     -10.010   4.390  18.981  0.00  0.00    +0.000 HD
ENDBRANCH  68  69
ENDBRANCH   1  68
TORSDOF 6
ENDMDL
MODEL 8
REMARK VINA RESULT:    -7.164      2.392      7.338
REMARK INTER + INTRA:          -9.865
REMARK INTER:                  -8.692
REMARK INTRA:                  -1.173
REMARK UNBOUND:                -0.816
REMARK  Name = 
REMARK  6 active torsions:
REMARK  status: ('A' for Active; 'I' for Inactive)
REMARK    1  A    between atoms: C_1  and  O_2
REMARK    2  A    between atoms: O_2  and  C_3
REMARK    3  A    between atoms: C_4  and  N_5
REMARK    4  A    between atoms: N_5  and  C_6
REMARK    5  A    between atoms: C_7  and  C_9
REMARK    6  A    between atoms: C_18  and  C_19
REMARK                            x       y       z     vdW  Elec       q    Type
REMARK                         _______ _______ _______ _____ _____    ______ ____
ROOT
ATOM      1  C   UNL     1     -11.751   3.441  21.323  0.00  0.00    +0.000 C 
ATOM      2  C   UNL     1     -13.215   3.351  20.973  0.00  0.00    +0.000 C 
ATOM      3  C   UNL     1     -13.228   1.985  20.093  0.00  0.00    +0.000 C 
ATOM      4  C   UNL     1     -12.105   0.846  20.595  0.00  0.00    +0.000 C 
ATOM      5  O   UNL     1     -12.148   1.045  22.007  0.00  0.00    +0.000 OA
ATOM      6  C   UNL     1     -11.593   2.345  22.385  0.00  0.00    +0.000 C 
ATOM      7  N   UNL     1     -10.166   2.258  22.573  0.00  0.00    +0.000 N 
ATOM      8  C   UNL     1      -9.416   2.785  23.634  0.00  0.00    +0.000 A 
ATOM      9  C   UNL     1      -9.347   4.119  24.071  0.00  0.00    +0.000 A 
ATOM     10  C   UNL     1      -8.497   4.406  25.129  0.00  0.00    +0.000 A 
ATOM     11  C   UNL     1      -7.831   3.384  25.800  0.00  0.00    +0.000 A 
ATOM     12  C   UNL     1      -7.999   2.029  25.457  0.00  0.00    +0.000 A 
ATOM     13  C   UNL     1      -8.756   1.709  24.316  0.00  0.00    +0.000 A 
ATOM     14  C   UNL     1      -8.956   0.538  23.537  0.00  0.00    +0.000 A 
ATOM     15  C   UNL     1      -8.954  -0.824  23.860  0.00  0.00    +0.000 A 
ATOM     16  C   UNL     1      -8.687  -1.617  22.703  0.00  0.00    +0.000 A 
ATOM     17  C   UNL     1      -9.238  -0.992  21.549  0.00  0.00    +0.000 A 
ATOM     18  C   UNL     1      -9.886  -1.670  20.509  0.00  0.00    +0.000 A 
ATOM     19  C   UNL     1     -10.106  -3.000  20.153  0.00  0.00    +0.000 A 
ATOM     20  C   UNL     1     -10.048  -3.281  18.798  0.00  0.00    +0.000 A 
ATOM     21  C   UNL     1      -9.708  -2.264  17.903  0.00  0.00    +0.000 A 
ATOM     22  C   UNL     1      -9.801  -0.903  18.258  0.00  0.00    +0.000 A 
ATOM     23  C   UNL     1     -10.246  -0.638  19.558  0.00  0.00    +0.000 A 
ATOM     24  N   UNL     1     -10.653   0.553  20.273  0.00  0.00    +0.000 N 
ATOM     25  C   UNL     1      -9.779   0.280  21.339  0.00  0.00    +0.000 A 
ATOM     26  C   UNL     1      -9.573   1.087  22.420  0.00  0.00    +0.000 A 
ATOM     27  C   UNL     1      -8.785  -2.985  23.068  0.00  0.00    +0.000 C 
ATOM     28  O   UNL     1      -8.319  -4.011  22.611  0.00  0.00    +0.000 OA
ATOM     29  N   UNL     1      -9.672  -2.949  24.127  0.00  0.00    +0.000 N 
ATOM     30  C   UNL     1     -10.050  -1.609  24.539  0.00  0.00    +0.000 C 
ATOM     31  H   UNL     1     -11.376   4.381  21.724  0.00  0.00    +0.000 HD
ATOM     32  H   UNL     1     -13.859   3.188  21.845  0.00  0.00    +0.000 HD
ATOM     33  H   UNL     1     -14.201   1.529  20.343  0.00  0.00    +0.000 HD
ATOM     34  H   UNL     1     -13.214   2.142  19.014  0.00  0.00    +0.000 HD
ATOM     35  H   UNL     1     -12.588  -0.118  20.378  0.00  0.00    +0.000 HD
ATOM     36  H   UNL     1      -9.865   4.915  23.547  0.00  0.00    +0.000 HD
ATOM     37  H   UNL     1      -8.337   5.443  25.415  0.00  0.00    +0.000 HD
ATOM     38  H   UNL     1      -7.125   3.648  26.583  0.00  0.00    +0.000 HD
ATOM     39  H   UNL     1      -7.431   1.265  25.975  0.00  0.00    +0.000 HD
ATOM     40  H   UNL     1     -10.139  -3.799  20.885  0.00  0.00    +0.000 HD
ATOM     41  H   UNL     1     -10.114  -4.317  18.480  0.00  0.00    +0.000 HD
ATOM     42  H   UNL     1      -9.355  -2.546  16.915  0.00  0.00    +0.000 HD
ATOM     43  H   UNL     1      -9.472  -0.118  17.585  0.00  0.00    +0.000 HD
ATOM     44  H   UNL     1     -10.107  -3.814  24.421  0.00  0.00    +0.000 HD
ATOM     45  H   UNL     1     -10.144  -1.525  25.614  0.00  0.00    +0.000 HD
ATOM     46  H   UNL     1     -11.011  -1.387  24.037  0.00  0.00    +0.000 HD
ENDROOT
BRANCH   6  47
ATOM     47  C   UNL     1     -12.339   2.502  23.731  0.00  0.00    +0.000 C 
ATOM     48  H   UNL     1     -12.485   1.534  24.231  0.00  0.00    +0.000 HD
ATOM     49  H   UNL     1     -11.706   3.056  24.444  0.00  0.00    +0.000 HD
ATOM     50  H   UNL     1     -13.299   3.008  23.650  0.00  0.00    +0.000 HD
ENDBRANCH   6  47
BRANCH   2  51
ATOM     51  N   UNL     1     -13.644   4.727  20.551  0.00  0.00    +0.000 N 
ATOM     52  C   UNL     1     -14.302   5.675  21.298  0.00  0.00    +0.000 C 
ATOM     53  O   UNL     1     -15.085   6.492  20.820  0.00  0.00    +0.000 OA
BRANCH  52  54
ATOM     54  C   UNL     1     -13.913   5.845  22.691  0.00  0.00    +0.000 A 
ATOM     55  C   UNL     1     -14.719   5.352  23.719  0.00  0.00    +0.000 A 
ATOM     56  C   UNL     1     -14.222   5.383  25.013  0.00  0.00    +0.000 A 
ATOM     57  C   UNL     1     -12.947   5.901  25.208  0.00  0.00    +0.000 A 
ATOM     58  N   UNL     1     -12.146   6.372  24.221  0.00  0.00    +0.000 NA
ATOM     59  C   UNL     1     -12.647   6.312  22.965  0.00  0.00    +0.000 A 
ATOM     60  H   UNL     1     -15.682   4.892  23.510  0.00  0.00    +0.000 HD
ATOM     61  H   UNL     1     -14.792   4.990  25.843  0.00  0.00    +0.000 HD
ATOM     62  H   UNL     1     -12.506   5.946  26.202  0.00  0.00    +0.000 HD
ATOM     63  H   UNL     1     -11.979   6.622  22.163  0.00  0.00    +0.000 HD
ENDBRANCH  52  54
BRANCH  51  64
ATOM     64  C   UNL     1     -13.571   5.061  19.118  0.00  0.00    +0.000 C 
ATOM     65  H   UNL     1     -13.228   4.203  18.527  0.00  0.00    +0.000 HD
ATOM     66  H   UNL     1     -12.864   5.877  18.943  0.00  0.00    +0.000 HD
ATOM     67  H   UNL     1     -14.563   5.384  18.778  0.00  0.00    +0.000 HD
ENDBRANCH  51  64
ENDBRANCH   2  51
BRANCH   1  68
ATOM     68  O   UNL     1     -11.174   3.260  20.006  0.00  0.00    +0.000 OA
BRANCH  68  69
ATOM     69  C   UNL     1     -10.059   3.981  19.554  0.00  0.00    +0.000 C 
ATOM     70  H   UNL     1     -10.404   4.716  18.822  0.00  0.00    +0.000 HD
ATOM     71  H   UNL     1      -9.422   3.280  19.002  0.00  0.00    +0.000 HD
ATOM     72  H   UNL     1      -9.495   4.461  20.348  0.00  0.00    +0.000 HD
ENDBRANCH  68  69
ENDBRANCH   1  68
TORSDOF 6
ENDMDL
MODEL 9
REMARK VINA RESULT:    -7.164      2.687      5.584
REMARK INTER + INTRA:          -9.864
REMARK INTER:                  -8.619
REMARK INTRA:                  -1.245
REMARK UNBOUND:                -0.816
REMARK  Name = 
REMARK  6 active torsions:
REMARK  status: ('A' for Active; 'I' for Inactive)
REMARK    1  A    between atoms: C_1  and  O_2
REMARK    2  A    between atoms: O_2  and  C_3
REMARK    3  A    between atoms: C_4  and  N_5
REMARK    4  A    between atoms: N_5  and  C_6
REMARK    5  A    between atoms: C_7  and  C_9
REMARK    6  A    between atoms: C_18  and  C_19
REMARK                            x       y       z     vdW  Elec       q    Type
REMARK                         _______ _______ _______ _____ _____    ______ ____
ROOT
ATOM      1  C   UNL     1     -11.537   0.446  16.160  0.00  0.00    +0.000 C 
ATOM      2  C   UNL     1     -10.774   1.646  15.658  0.00  0.00    +0.000 C 
ATOM      3  C   UNL     1     -10.753   2.566  16.998  0.00  0.00    +0.000 C 
ATOM      4  C   UNL     1     -10.684   1.687  18.423  0.00  0.00    +0.000 C 
ATOM      5  O   UNL     1      -9.841   0.607  18.021  0.00  0.00    +0.000 OA
ATOM      6  C   UNL     1     -10.506  -0.261  17.049  0.00  0.00    +0.000 C 
ATOM      7  N   UNL     1     -11.274  -1.283  17.715  0.00  0.00    +0.000 N 
ATOM      8  C   UNL     1     -11.307  -2.652  17.415  0.00  0.00    +0.000 A 
ATOM      9  C   UNL     1     -11.633  -3.266  16.193  0.00  0.00    +0.000 A 
ATOM     10  C   UNL     1     -11.632  -4.653  16.151  0.00  0.00    +0.000 A 
ATOM     11  C   UNL     1     -11.209  -5.395  17.249  0.00  0.00    +0.000 A 
ATOM     12  C   UNL     1     -10.749  -4.785  18.433  0.00  0.00    +0.000 A 
ATOM     13  C   UNL     1     -10.850  -3.389  18.558  0.00  0.00    +0.000 A 
ATOM     14  C   UNL     1     -10.725  -2.462  19.627  0.00  0.00    +0.000 A 
ATOM     15  C   UNL     1      -9.950  -2.463  20.793  0.00  0.00    +0.000 A 
ATOM     16  C   UNL     1     -10.527  -1.611  21.783  0.00  0.00    +0.000 A 
ATOM     17  C   UNL     1     -11.165  -0.504  21.158  0.00  0.00    +0.000 A 
ATOM     18  C   UNL     1     -11.123   0.813  21.633  0.00  0.00    +0.000 A 
ATOM     19  C   UNL     1     -10.649   1.460  22.774  0.00  0.00    +0.000 A 
ATOM     20  C   UNL     1     -11.430   2.501  23.247  0.00  0.00    +0.000 A 
ATOM     21  C   UNL     1     -12.646   2.783  22.620  0.00  0.00    +0.000 A 
ATOM     22  C   UNL     1     -12.930   2.328  21.316  0.00  0.00    +0.000 A 
ATOM     23  C   UNL     1     -11.926   1.574  20.698  0.00  0.00    +0.000 A 
ATOM     24  N   UNL     1     -11.707   1.073  19.358  0.00  0.00    +0.000 N 
ATOM     25  C   UNL     1     -11.482  -0.234  19.822  0.00  0.00    +0.000 A 
ATOM     26  C   UNL     1     -11.265  -1.327  19.035  0.00  0.00    +0.000 A 
ATOM     27  C   UNL     1      -9.658  -1.581  22.905  0.00  0.00    +0.000 C 
ATOM     28  O   UNL     1      -9.820  -1.342  24.086  0.00  0.00    +0.000 OA
ATOM     29  N   UNL     1      -8.425  -1.833  22.335  0.00  0.00    +0.000 N 
ATOM     30  C   UNL     1      -8.480  -2.149  20.919  0.00  0.00    +0.000 C 
ATOM     31  H   UNL     1     -11.920  -0.262  15.427  0.00  0.00    +0.000 HD
ATOM     32  H   UNL     1      -9.733   1.418  15.398  0.00  0.00    +0.000 HD
ATOM     33  H   UNL     1      -9.772   3.069  16.947  0.00  0.00    +0.000 HD
ATOM     34  H   UNL     1     -11.513   3.348  17.022  0.00  0.00    +0.000 HD
ATOM     35  H   UNL     1     -10.104   2.327  19.104  0.00  0.00    +0.000 HD
ATOM     36  H   UNL     1     -11.963  -2.687  15.338  0.00  0.00    +0.000 HD
ATOM     37  H   UNL     1     -11.988  -5.156  15.255  0.00  0.00    +0.000 HD
ATOM     38  H   UNL     1     -11.278  -6.478  17.205  0.00  0.00    +0.000 HD
ATOM     39  H   UNL     1     -10.468  -5.398  19.283  0.00  0.00    +0.000 HD
ATOM     40  H   UNL     1      -9.828   1.070  23.364  0.00  0.00    +0.000 HD
ATOM     41  H   UNL     1     -11.156   2.969  24.187  0.00  0.00    +0.000 HD
ATOM     42  H   UNL     1     -13.385   3.361  23.168  0.00  0.00    +0.000 HD
ATOM     43  H   UNL     1     -13.900   2.490  20.858  0.00  0.00    +0.000 HD
ATOM     44  H   UNL     1      -7.594  -1.628  22.874  0.00  0.00    +0.000 HD
ATOM     45  H   UNL     1      -7.770  -2.920  20.646  0.00  0.00    +0.000 HD
ATOM     46  H   UNL     1      -8.269  -1.206  20.380  0.00  0.00    +0.000 HD
ENDROOT
BRANCH   6  47
ATOM     47  C   UNL     1      -9.232  -0.841  16.390  0.00  0.00    +0.000 C 
ATOM     48  H   UNL     1      -8.602  -1.371  17.118  0.00  0.00    +0.000 HD
ATOM     49  H   UNL     1      -9.511  -1.636  15.679  0.00  0.00    +0.000 HD
ATOM     50  H   UNL     1      -8.626  -0.102  15.868  0.00  0.00    +0.000 HD
ENDBRANCH   6  47
BRANCH   2  51
ATOM     51  N   UNL     1     -11.341   1.987  14.311  0.00  0.00    +0.000 N 
ATOM     52  C   UNL     1     -11.030   1.425  13.095  0.00  0.00    +0.000 C 
ATOM     53  O   UNL     1     -11.065   2.043  12.033  0.00  0.00    +0.000 OA
BRANCH  52  54
ATOM     54  C   UNL     1     -10.832  -0.016  13.033  0.00  0.00    +0.000 A 
ATOM     55  C   UNL     1     -11.926  -0.881  12.961  0.00  0.00    +0.000 A 
ATOM     56  C   UNL     1     -11.683  -2.227  12.726  0.00  0.00    +0.000 A 
ATOM     57  C   UNL     1     -10.362  -2.632  12.574  0.00  0.00    +0.000 A 
ATOM     58  N   UNL     1      -9.289  -1.804  12.629  0.00  0.00    +0.000 NA
ATOM     59  C   UNL     1      -9.555  -0.493  12.838  0.00  0.00    +0.000 A 
ATOM     60  H   UNL     1     -12.946  -0.508  13.017  0.00  0.00    +0.000 HD
ATOM     61  H   UNL     1     -12.493  -2.935  12.635  0.00  0.00    +0.000 HD
ATOM     62  H   UNL     1     -10.114  -3.674  12.386  0.00  0.00    +0.000 HD
ATOM     63  H   UNL     1      -8.703   0.183  12.810  0.00  0.00    +0.000 HD
ENDBRANCH  52  54
BRANCH  51  64
ATOM     64  C   UNL     1     -12.162   3.205  14.198  0.00  0.00    +0.000 C 
ATOM     65  H   UNL     1     -12.846   3.303  15.049  0.00  0.00    +0.000 HD
ATOM     66  H   UNL     1     -12.774   3.180  13.292  0.00  0.00    +0.000 HD
ATOM     67  H   UNL     1     -11.498   4.077  14.142  0.00  0.00    +0.000 HD
ENDBRANCH  51  64
ENDBRANCH   2  51
BRANCH   1  68
ATOM     68  O   UNL     1     -12.673   1.114  16.763  0.00  0.00    +0.000 OA
BRANCH  68  69
ATOM     69  C   UNL     1     -14.001   0.838  16.408  0.00  0.00    +0.000 C 
ATOM     70  H   UNL     1     -14.613   0.889  17.312  0.00  0.00    +0.000 HD
ATOM     71  H   UNL     1     -14.038  -0.206  16.076  0.00  0.00    +0.000 HD
ATOM     72  H   UNL     1     -14.395   1.494  15.637  0.00  0.00    +0.000 HD
ENDBRANCH  68  69
ENDBRANCH   1  68
TORSDOF 6
ENDMDL
