MODEL 1
REMARK VINA RESULT:    -9.007      0.000      0.000
REMARK INTER + INTRA:         -15.858
REMARK INTER:                 -14.272
REMARK INTRA:                  -1.585
REMARK UNBOUND:                -1.585
REMARK  Name = 
REMARK  12 active torsions:
REMARK  status: ('A' for Active; 'I' for Inactive)
REMARK    1  A    between atoms: C_1  and  O_2
REMARK    2  A    between atoms: O_2  and  C_3
REMARK    3  A    between atoms: C_3  and  C_5
REMARK    4  A    between atoms: C_5  and  C_6
REMARK    5  A    between atoms: C_10  and  N_11
REMARK    6  A    between atoms: C_12  and  C_14
REMARK    7  A    between atoms: C_14  and  C_15
REMARK    8  A    between atoms: C_15  and  N_16
REMARK    9  A    between atoms: N_16  and  C_17
REMARK   10  A    between atoms: N_16  and  C_18
REMARK   11  A    between atoms: N_21  and  C_22
REMARK   12  A    between atoms: C_29  and  C_30
REMARK                            x       y       z     vdW  Elec       q    Type
REMARK                         _______ _______ _______ _____ _____    ______ ____
ROOT
ATOM      1  C   UNL     1     -10.044  -6.020  16.867  0.00  0.00    +0.000 C 
ATOM      2  C   UNL     1     -11.002  -7.206  17.250  0.00  0.00    +0.000 C 
ATOM      3  C   UNL     1     -10.456  -8.043  18.414  0.00  0.00    +0.000 C 
ATOM      4  N   UNL     1      -9.207  -8.584  17.941  0.00  0.00    +0.000 N 
ATOM      5  C   UNL     1      -8.164  -7.573  17.828  0.00  0.00    +0.000 C 
ATOM      6  C   UNL     1      -8.591  -6.557  16.757  0.00  0.00    +0.000 C 
ATOM      7  H   UNL     1     -11.106  -7.841  16.366  0.00  0.00    +0.000 HD
ATOM      8  H   UNL     1     -12.006  -6.845  17.502  0.00  0.00    +0.000 HD
ATOM      9  H   UNL     1     -11.150  -8.801  18.762  0.00  0.00    +0.000 HD
ATOM     10  H   UNL     1     -10.273  -7.442  19.310  0.00  0.00    +0.000 HD
ATOM     11  H   UNL     1      -7.190  -7.979  17.535  0.00  0.00    +0.000 HD
ATOM     12  H   UNL     1      -8.019  -7.064  18.789  0.00  0.00    +0.000 HD
ATOM     13  H   UNL     1      -8.484  -7.058  15.784  0.00  0.00    +0.000 HD
ATOM     14  H   UNL     1      -7.863  -5.746  16.799  0.00  0.00    +0.000 HD
ENDROOT
BRANCH   4  15
ATOM     15  C   UNL     1      -8.913  -9.930  17.912  0.00  0.00    +0.000 A 
ATOM     16  N   UNL     1      -8.520 -10.481  19.100  0.00  0.00    +0.000 NA
ATOM     17  C   UNL     1      -8.184 -11.776  19.180  0.00  0.00    +0.000 A 
ATOM     18  N   UNL     1      -8.164 -12.669  18.194  0.00  0.00    +0.000 NA
ATOM     19  C   UNL     1      -8.528 -12.119  17.031  0.00  0.00    +0.000 A 
ATOM     20  N   UNL     1      -8.550 -12.839  15.876  0.00  0.00    +0.000 N 
ATOM     21  C   UNL     1      -8.914 -12.032  14.837  0.00  0.00    +0.000 A 
ATOM     22  C   UNL     1      -9.139 -10.762  15.332  0.00  0.00    +0.000 A 
ATOM     23  C   UNL     1      -8.910 -10.801  16.774  0.00  0.00    +0.000 A 
ATOM     24  H   UNL     1      -7.888 -12.133  20.161  0.00  0.00    +0.000 HD
ATOM     25  H   UNL     1      -8.296 -13.812  15.815  0.00  0.00    +0.000 HD
ATOM     26  H   UNL     1      -8.965 -12.419  13.830  0.00  0.00    +0.000 HD
BRANCH  22  27
ATOM     27  C   UNL     1      -9.496  -9.639  14.422  0.00  0.00    +0.000 C 
ATOM     28  H   UNL     1      -9.084  -8.690  14.795  0.00  0.00    +0.000 HD
ATOM     29  H   UNL     1     -10.572  -9.498  14.381  0.00  0.00    +0.000 HD
ATOM     30  H   UNL     1      -9.076  -9.768  13.422  0.00  0.00    +0.000 HD
ENDBRANCH  22  27
ENDBRANCH   4  15
BRANCH   1  32
ATOM     31  N   UNL     1      -9.088  -4.309  18.405  0.00  0.00    +0.000 N 
ATOM     32  C   UNL     1     -10.224  -4.964  17.979  0.00  0.00    +0.000 C 
ATOM     33  O   UNL     1     -11.351  -4.736  18.415  0.00  0.00    +0.000 OA
ATOM     34  H   UNL     1      -8.278  -4.387  17.793  0.00  0.00    +0.000 HD
BRANCH  31  39
ATOM     35  C   UNL     1      -8.324  -2.336  21.469  0.00  0.00    +0.000 A 
ATOM     36  C   UNL     1      -8.806  -1.071  21.106  0.00  0.00    +0.000 A 
ATOM     37  C   UNL     1      -9.483  -0.904  19.907  0.00  0.00    +0.000 A 
ATOM     38  C   UNL     1      -9.653  -1.984  19.047  0.00  0.00    +0.000 A 
ATOM     39  C   UNL     1      -9.089  -3.235  19.333  0.00  0.00    +0.000 A 
ATOM     40  C   UNL     1      -8.456  -3.411  20.570  0.00  0.00    +0.000 A 
ATOM     41  H   UNL     1      -8.658  -0.210  21.751  0.00  0.00    +0.000 HD
ATOM     42  H   UNL     1      -9.875   0.072  19.623  0.00  0.00    +0.000 HD
ATOM     43  H   UNL     1     -10.217  -1.800  18.142  0.00  0.00    +0.000 HD
ATOM     44  H   UNL     1      -8.037  -4.382  20.831  0.00  0.00    +0.000 HD
BRANCH  35  45
ATOM     45  C   UNL     1      -7.651  -2.508  22.808  0.00  0.00    +0.000 C 
ATOM     46  H   UNL     1      -6.729  -3.086  22.663  0.00  0.00    +0.000 HD
ATOM     47  H   UNL     1      -7.361  -1.528  23.203  0.00  0.00    +0.000 HD
BRANCH  45  48
ATOM     48  C   UNL     1      -8.492  -3.220  23.845  0.00  0.00    +0.000 C 
ATOM     49  O   UNL     1      -8.096  -4.019  24.681  0.00  0.00    +0.000 OA
BRANCH  48  50
ATOM     50  O   UNL     1      -9.798  -2.842  23.690  0.00  0.00    +0.000 OA
BRANCH  50  51
ATOM     51  C   UNL     1     -10.438  -2.466  24.909  0.00  0.00    +0.000 C 
ATOM     52  H   UNL     1     -11.512  -2.395  24.720  0.00  0.00    +0.000 HD
ATOM     53  H   UNL     1     -10.080  -1.488  25.246  0.00  0.00    +0.000 HD
ATOM     54  H   UNL     1     -10.271  -3.228  25.677  0.00  0.00    +0.000 HD
ENDBRANCH  50  51
ENDBRANCH  48  50
ENDBRANCH  45  48
ENDBRANCH  35  45
ENDBRANCH  31  39
ENDBRANCH   1  32
BRANCH   1  55
ATOM     55  C   UNL     1     -10.563  -5.458  15.497  0.00  0.00    +0.000 C 
ATOM     56  H   UNL     1     -11.656  -5.589  15.526  0.00  0.00    +0.000 HD
ATOM     57  H   UNL     1     -10.208  -6.108  14.685  0.00  0.00    +0.000 HD
BRANCH  55  58
ATOM     58  N   UNL     1     -10.327  -4.038  15.121  0.00  0.00    +0.000 NA
BRANCH  58  59
ATOM     59  C   UNL     1      -9.622  -3.839  13.853  0.00  0.00    +0.000 C 
ATOM     60  H   UNL     1      -8.544  -3.796  13.976  0.00  0.00    +0.000 HD
ATOM     61  H   UNL     1      -9.886  -2.857  13.441  0.00  0.00    +0.000 HD
ATOM     62  H   UNL     1      -9.863  -4.603  13.106  0.00  0.00    +0.000 HD
ENDBRANCH  58  59
BRANCH  58  63
ATOM     63  C   UNL     1     -11.641  -3.369  14.987  0.00  0.00    +0.000 C 
ATOM     64  H   UNL     1     -11.784  -2.959  13.983  0.00  0.00    +0.000 HD
ATOM     65  H   UNL     1     -11.754  -2.549  15.709  0.00  0.00    +0.000 HD
ATOM     66  H   UNL     1     -12.452  -4.086  15.156  0.00  0.00    +0.000 HD
ENDBRANCH  58  63
ENDBRANCH  55  58
ENDBRANCH   1  55
TORSDOF 12
ENDMDL
MODEL 2
REMARK VINA RESULT:    -8.900      1.036      1.969
REMARK INTER + INTRA:         -15.688
REMARK INTER:                 -14.462
REMARK INTRA:                  -1.226
REMARK UNBOUND:                -1.585
REMARK  Name = 
REMARK  12 active torsions:
REMARK  status: ('A' for Active; 'I' for Inactive)
REMARK    1  A    between atoms: C_1  and  O_2
REMARK    2  A    between atoms: O_2  and  C_3
REMARK    3  A    between atoms: C_3  and  C_5
REMARK    4  A    between atoms: C_5  and  C_6
REMARK    5  A    between atoms: C_10  and  N_11
REMARK    6  A    between atoms: C_12  and  C_14
REMARK    7  A    between atoms: C_14  and  C_15
REMARK    8  A    between atoms: C_15  and  N_16
REMARK    9  A    between atoms: N_16  and  C_17
REMARK   10  A    between atoms: N_16  and  C_18
REMARK   11  A    between atoms: N_21  and  C_22
REMARK   12  A    between atoms: C_29  and  C_30
REMARK                            x       y       z     vdW  Elec       q    Type
REMARK                         _______ _______ _______ _____ _____    ______ ____
ROOT
ATOM      1  C   UNL     1     -10.407  -5.320  16.684  0.00  0.00    +0.000 C 
ATOM      2  C   UNL     1     -11.356  -6.555  16.897  0.00  0.00    +0.000 C 
ATOM      3  C   UNL     1     -10.689  -7.666  17.719  0.00  0.00    +0.000 C 
ATOM      4  N   UNL     1      -9.548  -8.080  16.941  0.00  0.00    +0.000 N 
ATOM      5  C   UNL     1      -8.485  -7.084  16.929  0.00  0.00    +0.000 C 
ATOM      6  C   UNL     1      -9.013  -5.825  16.224  0.00  0.00    +0.000 C 
ATOM      7  H   UNL     1     -11.616  -6.943  15.909  0.00  0.00    +0.000 HD
ATOM      8  H   UNL     1     -12.295  -6.260  17.380  0.00  0.00    +0.000 HD
ATOM      9  H   UNL     1     -11.361  -8.481  17.966  0.00  0.00    +0.000 HD
ATOM     10  H   UNL     1     -10.350  -7.314  18.698  0.00  0.00    +0.000 HD
ATOM     11  H   UNL     1      -7.584  -7.412  16.399  0.00  0.00    +0.000 HD
ATOM     12  H   UNL     1      -8.179  -6.838  17.953  0.00  0.00    +0.000 HD
ATOM     13  H   UNL     1      -9.071  -6.062  15.151  0.00  0.00    +0.000 HD
ATOM     14  H   UNL     1      -8.248  -5.058  16.357  0.00  0.00    +0.000 HD
ENDROOT
BRANCH   4  15
ATOM     15  C   UNL     1      -9.326  -9.378  16.532  0.00  0.00    +0.000 A 
ATOM     16  N   UNL     1      -9.626  -9.651  15.227  0.00  0.00    +0.000 NA
ATOM     17  C   UNL     1      -9.474 -10.888  14.732  0.00  0.00    +0.000 A 
ATOM     18  N   UNL     1      -9.055 -11.973  15.378  0.00  0.00    +0.000 NA
ATOM     19  C   UNL     1      -8.785 -11.703  16.659  0.00  0.00    +0.000 A 
ATOM     20  N   UNL     1      -8.371 -12.671  17.521  0.00  0.00    +0.000 N 
ATOM     21  C   UNL     1      -8.209 -12.140  18.768  0.00  0.00    +0.000 A 
ATOM     22  C   UNL     1      -8.520 -10.795  18.710  0.00  0.00    +0.000 A 
ATOM     23  C   UNL     1      -8.883 -10.482  17.331  0.00  0.00    +0.000 A 
ATOM     24  H   UNL     1      -9.730 -11.018  13.685  0.00  0.00    +0.000 HD
ATOM     25  H   UNL     1      -8.245 -13.637  17.264  0.00  0.00    +0.000 HD
ATOM     26  H   UNL     1      -7.906 -12.761  19.598  0.00  0.00    +0.000 HD
BRANCH  22  27
ATOM     27  C   UNL     1      -8.495  -9.950  19.936  0.00  0.00    +0.000 C 
ATOM     28  H   UNL     1      -7.471  -9.615  20.157  0.00  0.00    +0.000 HD
ATOM     29  H   UNL     1      -8.813 -10.518  20.806  0.00  0.00    +0.000 HD
ATOM     30  H   UNL     1      -9.085  -9.038  19.822  0.00  0.00    +0.000 HD
ENDBRANCH  22  27
ENDBRANCH   4  15
BRANCH   1  32
ATOM     31  N   UNL     1      -9.203  -3.931  18.365  0.00  0.00    +0.000 N 
ATOM     32  C   UNL     1     -10.375  -4.580  18.038  0.00  0.00    +0.000 C 
ATOM     33  O   UNL     1     -11.381  -4.578  18.746  0.00  0.00    +0.000 OA
ATOM     34  H   UNL     1      -8.553  -3.779  17.596  0.00  0.00    +0.000 HD
BRANCH  31  39
ATOM     35  C   UNL     1      -8.053  -2.810  21.724  0.00  0.00    +0.000 A 
ATOM     36  C   UNL     1      -8.434  -1.462  21.708  0.00  0.00    +0.000 A 
ATOM     37  C   UNL     1      -9.170  -0.962  20.643  0.00  0.00    +0.000 A 
ATOM     38  C   UNL     1      -9.500  -1.789  19.575  0.00  0.00    +0.000 A 
ATOM     39  C   UNL     1      -9.040  -3.113  19.513  0.00  0.00    +0.000 A 
ATOM     40  C   UNL     1      -8.346  -3.626  20.615  0.00  0.00    +0.000 A 
ATOM     41  H   UNL     1      -8.162  -0.793  22.519  0.00  0.00    +0.000 HD
ATOM     42  H   UNL     1      -9.485   0.081  20.628  0.00  0.00    +0.000 HD
ATOM     43  H   UNL     1     -10.102  -1.353  18.790  0.00  0.00    +0.000 HD
ATOM     44  H   UNL     1      -8.005  -4.661  20.607  0.00  0.00    +0.000 HD
BRANCH  35  45
ATOM     45  C   UNL     1      -7.311  -3.347  22.924  0.00  0.00    +0.000 C 
ATOM     46  H   UNL     1      -6.810  -4.281  22.634  0.00  0.00    +0.000 HD
ATOM     47  H   UNL     1      -6.531  -2.638  23.222  0.00  0.00    +0.000 HD
BRANCH  45  48
ATOM     48  C   UNL     1      -8.187  -3.638  24.122  0.00  0.00    +0.000 C 
ATOM     49  O   UNL     1      -7.871  -4.267  25.121  0.00  0.00    +0.000 OA
BRANCH  48  50
ATOM     50  O   UNL     1      -9.425  -3.096  23.906  0.00  0.00    +0.000 OA
BRANCH  50  51
ATOM     51  C   UNL     1      -9.958  -2.407  25.038  0.00  0.00    +0.000 C 
ATOM     52  H   UNL     1     -11.048  -2.468  24.989  0.00  0.00    +0.000 HD
ATOM     53  H   UNL     1      -9.669  -1.351  25.017  0.00  0.00    +0.000 HD
ATOM     54  H   UNL     1      -9.625  -2.885  25.965  0.00  0.00    +0.000 HD
ENDBRANCH  50  51
ENDBRANCH  48  50
ENDBRANCH  45  48
ENDBRANCH  35  45
ENDBRANCH  31  39
ENDBRANCH   1  32
BRANCH   1  55
ATOM     55  C   UNL     1     -11.091  -4.422  15.593  0.00  0.00    +0.000 C 
ATOM     56  H   UNL     1     -12.172  -4.588  15.718  0.00  0.00    +0.000 HD
ATOM     57  H   UNL     1     -10.843  -4.816  14.597  0.00  0.00    +0.000 HD
BRANCH  55  58
ATOM     58  N   UNL     1     -10.896  -2.947  15.593  0.00  0.00    +0.000 NA
BRANCH  58  59
ATOM     59  C   UNL     1     -10.356  -2.390  14.351  0.00  0.00    +0.000 C 
ATOM     60  H   UNL     1      -9.478  -1.772  14.517  0.00  0.00    +0.000 HD
ATOM     61  H   UNL     1     -11.090  -1.704  13.911  0.00  0.00    +0.000 HD
ATOM     62  H   UNL     1     -10.112  -3.158  13.608  0.00  0.00    +0.000 HD
ENDBRANCH  58  59
BRANCH  58  63
ATOM     63  C   UNL     1     -12.212  -2.306  15.809  0.00  0.00    +0.000 C 
ATOM     64  H   UNL     1     -12.161  -1.221  15.670  0.00  0.00    +0.000 HD
ATOM     65  H   UNL     1     -12.597  -2.501  16.819  0.00  0.00    +0.000 HD
ATOM     66  H   UNL     1     -12.944  -2.684  15.087  0.00  0.00    +0.000 HD
ENDBRANCH  58  63
ENDBRANCH  55  58
ENDBRANCH   1  55
TORSDOF 12
ENDMDL
MODEL 3
REMARK VINA RESULT:    -8.874      1.500      2.559
REMARK INTER + INTRA:         -15.647
REMARK INTER:                 -15.789
REMARK INTRA:                   0.142
REMARK UNBOUND:                -1.585
REMARK  Name = 
REMARK  12 active torsions:
REMARK  status: ('A' for Active; 'I' for Inactive)
REMARK    1  A    between atoms: C_1  and  O_2
REMARK    2  A    between atoms: O_2  and  C_3
REMARK    3  A    between atoms: C_3  and  C_5
REMARK    4  A    between atoms: C_5  and  C_6
REMARK    5  A    between atoms: C_10  and  N_11
REMARK    6  A    between atoms: C_12  and  C_14
REMARK    7  A    between atoms: C_14  and  C_15
REMARK    8  A    between atoms: C_15  and  N_16
REMARK    9  A    between atoms: N_16  and  C_17
REMARK   10  A    between atoms: N_16  and  C_18
REMARK   11  A    between atoms: N_21  and  C_22
REMARK   12  A    between atoms: C_29  and  C_30
REMARK                            x       y       z     vdW  Elec       q    Type
REMARK                         _______ _______ _______ _____ _____    ______ ____
ROOT
ATOM      1  C   UNL     1     -10.196  -5.402  17.439  0.00  0.00    +0.000 C 
ATOM      2  C   UNL     1     -10.718  -6.691  18.171  0.00  0.00    +0.000 C 
ATOM      3  C   UNL     1      -9.603  -7.716  18.412  0.00  0.00    +0.000 C 
ATOM      4  N   UNL     1      -9.132  -8.081  17.100  0.00  0.00    +0.000 N 
ATOM      5  C   UNL     1      -8.377  -7.013  16.457  0.00  0.00    +0.000 C 
ATOM      6  C   UNL     1      -9.325  -5.826  16.226  0.00  0.00    +0.000 C 
ATOM      7  H   UNL     1     -11.489  -7.138  17.537  0.00  0.00    +0.000 HD
ATOM      8  H   UNL     1     -11.198  -6.444  19.125  0.00  0.00    +0.000 HD
ATOM      9  H   UNL     1      -9.920  -8.565  19.008  0.00  0.00    +0.000 HD
ATOM     10  H   UNL     1      -8.773  -7.300  18.991  0.00  0.00    +0.000 HD
ATOM     11  H   UNL     1      -7.954  -7.298  15.488  0.00  0.00    +0.000 HD
ATOM     12  H   UNL     1      -7.537  -6.702  17.091  0.00  0.00    +0.000 HD
ATOM     13  H   UNL     1      -9.997  -6.112  15.403  0.00  0.00    +0.000 HD
ATOM     14  H   UNL     1      -8.701  -5.001  15.877  0.00  0.00    +0.000 HD
ENDROOT
BRANCH   4  15
ATOM     15  C   UNL     1      -9.095  -9.376  16.629  0.00  0.00    +0.000 A 
ATOM     16  N   UNL     1      -9.479  -9.548  15.328  0.00  0.00    +0.000 NA
ATOM     17  C   UNL     1      -9.508 -10.770  14.776  0.00  0.00    +0.000 A 
ATOM     18  N   UNL     1      -9.206 -11.928  15.358  0.00  0.00    +0.000 NA
ATOM     19  C   UNL     1      -8.852 -11.754  16.635  0.00  0.00    +0.000 A 
ATOM     20  N   UNL     1      -8.531 -12.806  17.436  0.00  0.00    +0.000 N 
ATOM     21  C   UNL     1      -8.252 -12.358  18.695  0.00  0.00    +0.000 A 
ATOM     22  C   UNL     1      -8.390 -10.983  18.707  0.00  0.00    +0.000 A 
ATOM     23  C   UNL     1      -8.765 -10.564  17.359  0.00  0.00    +0.000 A 
ATOM     24  H   UNL     1      -9.820 -10.818  13.738  0.00  0.00    +0.000 HD
ATOM     25  H   UNL     1      -8.540 -13.767  17.134  0.00  0.00    +0.000 HD
ATOM     26  H   UNL     1      -7.998 -13.051  19.484  0.00  0.00    +0.000 HD
BRANCH  22  27
ATOM     27  C   UNL     1      -8.207 -10.207  19.964  0.00  0.00    +0.000 C 
ATOM     28  H   UNL     1      -7.476  -9.398  19.819  0.00  0.00    +0.000 HD
ATOM     29  H   UNL     1      -7.801 -10.834  20.753  0.00  0.00    +0.000 HD
ATOM     30  H   UNL     1      -9.129  -9.716  20.285  0.00  0.00    +0.000 HD
ENDBRANCH  22  27
ENDBRANCH   4  15
BRANCH   1  32
ATOM     31  N   UNL     1      -8.433  -5.284  19.195  0.00  0.00    +0.000 N 
ATOM     32  C   UNL     1      -9.416  -4.605  18.505  0.00  0.00    +0.000 C 
ATOM     33  O   UNL     1      -9.678  -3.416  18.679  0.00  0.00    +0.000 OA
ATOM     34  H   UNL     1      -8.133  -6.165  18.781  0.00  0.00    +0.000 HD
BRANCH  31  39
ATOM     35  C   UNL     1      -7.258  -3.369  22.163  0.00  0.00    +0.000 A 
ATOM     36  C   UNL     1      -5.890  -3.674  22.161  0.00  0.00    +0.000 A 
ATOM     37  C   UNL     1      -5.345  -4.410  21.119  0.00  0.00    +0.000 A 
ATOM     38  C   UNL     1      -6.161  -4.875  20.094  0.00  0.00    +0.000 A 
ATOM     39  C   UNL     1      -7.549  -4.677  20.124  0.00  0.00    +0.000 A 
ATOM     40  C   UNL     1      -8.084  -3.887  21.149  0.00  0.00    +0.000 A 
ATOM     41  H   UNL     1      -5.241  -3.345  22.968  0.00  0.00    +0.000 HD
ATOM     42  H   UNL     1      -4.279  -4.639  21.100  0.00  0.00    +0.000 HD
ATOM     43  H   UNL     1      -5.674  -5.414  19.292  0.00  0.00    +0.000 HD
ATOM     44  H   UNL     1      -9.155  -3.692  21.179  0.00  0.00    +0.000 HD
BRANCH  35  45
ATOM     45  C   UNL     1      -7.815  -2.511  23.273  0.00  0.00    +0.000 C 
ATOM     46  H   UNL     1      -7.013  -1.862  23.648  0.00  0.00    +0.000 HD
ATOM     47  H   UNL     1      -8.601  -1.860  22.875  0.00  0.00    +0.000 HD
BRANCH  45  48
ATOM     48  C   UNL     1      -8.375  -3.288  24.444  0.00  0.00    +0.000 C 
ATOM     49  O   UNL     1      -8.038  -4.407  24.803  0.00  0.00    +0.000 OA
BRANCH  48  50
ATOM     50  O   UNL     1      -9.354  -2.543  25.042  0.00  0.00    +0.000 OA
BRANCH  50  51
ATOM     51  C   UNL     1     -10.635  -2.673  24.424  0.00  0.00    +0.000 C 
ATOM     52  H   UNL     1     -11.053  -1.670  24.297  0.00  0.00    +0.000 HD
ATOM     53  H   UNL     1     -11.312  -3.253  25.059  0.00  0.00    +0.000 HD
ATOM     54  H   UNL     1     -10.536  -3.135  23.437  0.00  0.00    +0.000 HD
ENDBRANCH  50  51
ENDBRANCH  48  50
ENDBRANCH  45  48
ENDBRANCH  35  45
ENDBRANCH  31  39
ENDBRANCH   1  32
BRANCH   1  55
ATOM     55  C   UNL     1     -11.470  -4.602  16.990  0.00  0.00    +0.000 C 
ATOM     56  H   UNL     1     -11.796  -4.052  17.886  0.00  0.00    +0.000 HD
ATOM     57  H   UNL     1     -12.279  -5.312  16.767  0.00  0.00    +0.000 HD
BRANCH  55  58
ATOM     58  N   UNL     1     -11.390  -3.599  15.896  0.00  0.00    +0.000 NA
BRANCH  58  59
ATOM     59  C   UNL     1     -11.803  -4.081  14.576  0.00  0.00    +0.000 C 
ATOM     60  H   UNL     1     -10.984  -4.522  14.016  0.00  0.00    +0.000 HD
ATOM     61  H   UNL     1     -12.123  -3.230  13.962  0.00  0.00    +0.000 HD
ATOM     62  H   UNL     1     -12.628  -4.802  14.624  0.00  0.00    +0.000 HD
ENDBRANCH  58  59
BRANCH  58  63
ATOM     63  C   UNL     1     -12.284  -2.470  16.235  0.00  0.00    +0.000 C 
ATOM     64  H   UNL     1     -12.979  -2.732  17.040  0.00  0.00    +0.000 HD
ATOM     65  H   UNL     1     -12.876  -2.146  15.368  0.00  0.00    +0.000 HD
ATOM     66  H   UNL     1     -11.700  -1.612  16.588  0.00  0.00    +0.000 HD
ENDBRANCH  58  63
ENDBRANCH  55  58
ENDBRANCH   1  55
TORSDOF 12
ENDMDL
MODEL 4
REMARK VINA RESULT:    -8.723      2.771      6.834
REMARK INTER + INTRA:         -15.408
REMARK INTER:                 -13.968
REMARK INTRA:                  -1.440
REMARK UNBOUND:                -1.585
REMARK  Name = 
REMARK  12 active torsions:
REMARK  status: ('A' for Active; 'I' for Inactive)
REMARK    1  A    between atoms: C_1  and  O_2
REMARK    2  A    between atoms: O_2  and  C_3
REMARK    3  A    between atoms: C_3  and  C_5
REMARK    4  A    between atoms: C_5  and  C_6
REMARK    5  A    between atoms: C_10  and  N_11
REMARK    6  A    between atoms: C_12  and  C_14
REMARK    7  A    between atoms: C_14  and  C_15
REMARK    8  A    between atoms: C_15  and  N_16
REMARK    9  A    between atoms: N_16  and  C_17
REMARK   10  A    between atoms: N_16  and  C_18
REMARK   11  A    between atoms: N_21  and  C_22
REMARK   12  A    between atoms: C_29  and  C_30
REMARK                            x       y       z     vdW  Elec       q    Type
REMARK                         _______ _______ _______ _____ _____    ______ ____
ROOT
ATOM      1  C   UNL     1      -9.678  -5.735  17.559  0.00  0.00    +0.000 C 
ATOM      2  C   UNL     1      -8.676  -6.315  16.496  0.00  0.00    +0.000 C 
ATOM      3  C   UNL     1      -9.336  -7.354  15.580  0.00  0.00    +0.000 C 
ATOM      4  N   UNL     1      -9.758  -8.418  16.456  0.00  0.00    +0.000 N 
ATOM      5  C   UNL     1     -10.891  -8.042  17.291  0.00  0.00    +0.000 C 
ATOM      6  C   UNL     1     -10.445  -6.908  18.227  0.00  0.00    +0.000 C 
ATOM      7  H   UNL     1      -7.854  -6.785  17.043  0.00  0.00    +0.000 HD
ATOM      8  H   UNL     1      -8.236  -5.519  15.884  0.00  0.00    +0.000 HD
ATOM      9  H   UNL     1      -8.692  -7.689  14.775  0.00  0.00    +0.000 HD
ATOM     10  H   UNL     1     -10.207  -6.953  15.054  0.00  0.00    +0.000 HD
ATOM     11  H   UNL     1     -11.268  -8.861  17.914  0.00  0.00    +0.000 HD
ATOM     12  H   UNL     1     -11.730  -7.705  16.669  0.00  0.00    +0.000 HD
ATOM     13  H   UNL     1      -9.787  -7.361  18.983  0.00  0.00    +0.000 HD
ATOM     14  H   UNL     1     -11.346  -6.558  18.733  0.00  0.00    +0.000 HD
ENDROOT
BRANCH   4  15
ATOM     15  C   UNL     1      -9.378  -9.734  16.306  0.00  0.00    +0.000 A 
ATOM     16  N   UNL     1      -9.561 -10.271  15.062  0.00  0.00    +0.000 NA
ATOM     17  C   UNL     1      -9.251 -11.551  14.813  0.00  0.00    +0.000 A 
ATOM     18  N   UNL     1      -8.764 -12.447  15.669  0.00  0.00    +0.000 NA
ATOM     19  C   UNL     1      -8.608 -11.922  16.888  0.00  0.00    +0.000 A 
ATOM     20  N   UNL     1      -8.153 -12.666  17.933  0.00  0.00    +0.000 N 
ATOM     21  C   UNL     1      -8.128 -11.904  19.064  0.00  0.00    +0.000 A 
ATOM     22  C   UNL     1      -8.573 -10.635  18.743  0.00  0.00    +0.000 A 
ATOM     23  C   UNL     1      -8.875 -10.620  17.315  0.00  0.00    +0.000 A 
ATOM     24  H   UNL     1      -9.423 -11.896  13.799  0.00  0.00    +0.000 HD
ATOM     25  H   UNL     1      -7.911 -13.641  17.865  0.00  0.00    +0.000 HD
ATOM     26  H   UNL     1      -7.818 -12.327  20.009  0.00  0.00    +0.000 HD
BRANCH  22  27
ATOM     27  C   UNL     1      -8.715  -9.586  19.791  0.00  0.00    +0.000 C 
ATOM     28  H   UNL     1      -7.838  -9.579  20.455  0.00  0.00    +0.000 HD
ATOM     29  H   UNL     1      -9.568  -9.790  20.432  0.00  0.00    +0.000 HD
ATOM     30  H   UNL     1      -8.770  -8.582  19.366  0.00  0.00    +0.000 HD
ENDBRANCH  22  27
ENDBRANCH   4  15
BRANCH   1  32
ATOM     31  N   UNL     1     -10.010  -4.025  15.777  0.00  0.00    +0.000 N 
ATOM     32  C   UNL     1     -10.596  -4.767  16.781  0.00  0.00    +0.000 C 
ATOM     33  O   UNL     1     -11.791  -4.713  17.065  0.00  0.00    +0.000 OA
ATOM     34  H   UNL     1      -9.097  -4.350  15.464  0.00  0.00    +0.000 HD
BRANCH  31  39
ATOM     35  C   UNL     1     -12.115  -2.952  12.900  0.00  0.00    +0.000 A 
ATOM     36  C   UNL     1     -12.390  -1.622  13.244  0.00  0.00    +0.000 A 
ATOM     37  C   UNL     1     -11.787  -1.054  14.356  0.00  0.00    +0.000 A 
ATOM     38  C   UNL     1     -10.936  -1.814  15.151  0.00  0.00    +0.000 A 
ATOM     39  C   UNL     1     -10.726  -3.176  14.894  0.00  0.00    +0.000 A 
ATOM     40  C   UNL     1     -11.294  -3.728  13.738  0.00  0.00    +0.000 A 
ATOM     41  H   UNL     1     -13.074  -1.020  12.652  0.00  0.00    +0.000 HD
ATOM     42  H   UNL     1     -11.982  -0.015  14.623  0.00  0.00    +0.000 HD
ATOM     43  H   UNL     1     -10.469  -1.308  15.985  0.00  0.00    +0.000 HD
ATOM     44  H   UNL     1     -11.121  -4.777  13.498  0.00  0.00    +0.000 HD
BRANCH  35  45
ATOM     45  C   UNL     1     -12.730  -3.528  11.647  0.00  0.00    +0.000 C 
ATOM     46  H   UNL     1     -13.188  -4.494  11.897  0.00  0.00    +0.000 HD
ATOM     47  H   UNL     1     -13.532  -2.869  11.295  0.00  0.00    +0.000 HD
BRANCH  45  48
ATOM     48  C   UNL     1     -11.752  -3.751  10.515  0.00  0.00    +0.000 C 
ATOM     49  O   UNL     1     -11.684  -4.736   9.795  0.00  0.00    +0.000 OA
BRANCH  48  50
ATOM     50  O   UNL     1     -10.920  -2.668  10.430  0.00  0.00    +0.000 OA
BRANCH  50  51
ATOM     51  C   UNL     1     -10.420  -2.429   9.114  0.00  0.00    +0.000 C 
ATOM     52  H   UNL     1     -11.254  -2.525   8.413  0.00  0.00    +0.000 HD
ATOM     53  H   UNL     1      -9.658  -3.169   8.850  0.00  0.00    +0.000 HD
ATOM     54  H   UNL     1     -10.019  -1.413   9.038  0.00  0.00    +0.000 HD
ENDBRANCH  50  51
ENDBRANCH  48  50
ENDBRANCH  45  48
ENDBRANCH  35  45
ENDBRANCH  31  39
ENDBRANCH   1  32
BRANCH   1  55
ATOM     55  C   UNL     1      -8.809  -4.940  18.596  0.00  0.00    +0.000 C 
ATOM     56  H   UNL     1      -9.477  -4.161  18.996  0.00  0.00    +0.000 HD
ATOM     57  H   UNL     1      -8.014  -4.402  18.061  0.00  0.00    +0.000 HD
BRANCH  55  58
ATOM     58  N   UNL     1      -8.221  -5.626  19.777  0.00  0.00    +0.000 NA
BRANCH  58  59
ATOM     59  C   UNL     1      -6.956  -6.320  19.529  0.00  0.00    +0.000 C 
ATOM     60  H   UNL     1      -6.852  -7.226  20.120  0.00  0.00    +0.000 HD
ATOM     61  H   UNL     1      -6.123  -5.687  19.858  0.00  0.00    +0.000 HD
ATOM     62  H   UNL     1      -6.805  -6.568  18.472  0.00  0.00    +0.000 HD
ENDBRANCH  58  59
BRANCH  58  63
ATOM     63  C   UNL     1      -7.950  -4.609  20.818  0.00  0.00    +0.000 C 
ATOM     64  H   UNL     1      -7.714  -5.070  21.782  0.00  0.00    +0.000 HD
ATOM     65  H   UNL     1      -8.808  -3.938  20.963  0.00  0.00    +0.000 HD
ATOM     66  H   UNL     1      -7.085  -3.998  20.537  0.00  0.00    +0.000 HD
ENDBRANCH  58  63
ENDBRANCH  55  58
ENDBRANCH   1  55
TORSDOF 12
ENDMDL
MODEL 5
REMARK VINA RESULT:    -8.617      2.138      3.620
REMARK INTER + INTRA:         -15.240
REMARK INTER:                 -14.705
REMARK INTRA:                  -0.535
REMARK UNBOUND:                -1.585
REMARK  Name = 
REMARK  12 active torsions:
REMARK  status: ('A' for Active; 'I' for Inactive)
REMARK    1  A    between atoms: C_1  and  O_2
REMARK    2  A    between atoms: O_2  and  C_3
REMARK    3  A    between atoms: C_3  and  C_5
REMARK    4  A    between atoms: C_5  and  C_6
REMARK    5  A    between atoms: C_10  and  N_11
REMARK    6  A    between atoms: C_12  and  C_14
REMARK    7  A    between atoms: C_14  and  C_15
REMARK    8  A    between atoms: C_15  and  N_16
REMARK    9  A    between atoms: N_16  and  C_17
REMARK   10  A    between atoms: N_16  and  C_18
REMARK   11  A    between atoms: N_21  and  C_22
REMARK   12  A    between atoms: C_29  and  C_30
REMARK                            x       y       z     vdW  Elec       q    Type
REMARK                         _______ _______ _______ _____ _____    ______ ____
ROOT
ATOM      1  C   UNL     1      -8.262  -6.621  18.529  0.00  0.00    +0.000 C 
ATOM      2  C   UNL     1      -8.213  -7.362  17.144  0.00  0.00    +0.000 C 
ATOM      3  C   UNL     1      -9.306  -8.430  17.016  0.00  0.00    +0.000 C 
ATOM      4  N   UNL     1      -9.034  -9.380  18.066  0.00  0.00    +0.000 N 
ATOM      5  C   UNL     1      -9.330  -8.853  19.391  0.00  0.00    +0.000 C 
ATOM      6  C   UNL     1      -8.384  -7.674  19.664  0.00  0.00    +0.000 C 
ATOM      7  H   UNL     1      -7.232  -7.837  17.061  0.00  0.00    +0.000 HD
ATOM      8  H   UNL     1      -8.295  -6.656  16.309  0.00  0.00    +0.000 HD
ATOM      9  H   UNL     1      -9.356  -8.880  16.031  0.00  0.00    +0.000 HD
ATOM     10  H   UNL     1     -10.310  -8.018  17.155  0.00  0.00    +0.000 HD
ATOM     11  H   UNL     1      -9.193  -9.586  20.195  0.00  0.00    +0.000 HD
ATOM     12  H   UNL     1     -10.373  -8.516  19.445  0.00  0.00    +0.000 HD
ATOM     13  H   UNL     1      -7.386  -8.103  19.843  0.00  0.00    +0.000 HD
ATOM     14  H   UNL     1      -8.725  -7.219  20.595  0.00  0.00    +0.000 HD
ENDROOT
BRANCH   4  15
ATOM     15  C   UNL     1      -8.838 -10.728  17.851  0.00  0.00    +0.000 A 
ATOM     16  N   UNL     1      -8.614 -11.483  18.969  0.00  0.00    +0.000 NA
ATOM     17  C   UNL     1      -8.384 -12.800  18.872  0.00  0.00    +0.000 A 
ATOM     18  N   UNL     1      -8.326 -13.533  17.763  0.00  0.00    +0.000 NA
ATOM     19  C   UNL     1      -8.524 -12.784  16.674  0.00  0.00    +0.000 A 
ATOM     20  N   UNL     1      -8.477 -13.318  15.423  0.00  0.00    +0.000 N 
ATOM     21  C   UNL     1      -8.670 -12.335  14.496  0.00  0.00    +0.000 A 
ATOM     22  C   UNL     1      -8.852 -11.139  15.162  0.00  0.00    +0.000 A 
ATOM     23  C   UNL     1      -8.779 -11.414  16.594  0.00  0.00    +0.000 A 
ATOM     24  H   UNL     1      -8.220 -13.326  19.808  0.00  0.00    +0.000 HD
ATOM     25  H   UNL     1      -8.291 -14.289  15.232  0.00  0.00    +0.000 HD
ATOM     26  H   UNL     1      -8.643 -12.560  13.439  0.00  0.00    +0.000 HD
BRANCH  22  27
ATOM     27  C   UNL     1      -9.027  -9.864  14.413  0.00  0.00    +0.000 C 
ATOM     28  H   UNL     1      -8.292  -9.787  13.599  0.00  0.00    +0.000 HD
ATOM     29  H   UNL     1      -8.847  -9.007  15.055  0.00  0.00    +0.000 HD
ATOM     30  H   UNL     1     -10.006  -9.799  13.932  0.00  0.00    +0.000 HD
ENDBRANCH  22  27
ENDBRANCH   4  15
BRANCH   1  32
ATOM     31  N   UNL     1      -9.257  -4.439  17.854  0.00  0.00    +0.000 N 
ATOM     32  C   UNL     1      -9.471  -5.665  18.448  0.00  0.00    +0.000 C 
ATOM     33  O   UNL     1     -10.560  -6.034  18.885  0.00  0.00    +0.000 OA
ATOM     34  H   UNL     1      -8.406  -4.360  17.300  0.00  0.00    +0.000 HD
BRANCH  31  39
ATOM     35  C   UNL     1     -11.290  -1.332  18.123  0.00  0.00    +0.000 A 
ATOM     36  C   UNL     1     -12.096  -1.433  16.980  0.00  0.00    +0.000 A 
ATOM     37  C   UNL     1     -12.047  -2.576  16.196  0.00  0.00    +0.000 A 
ATOM     38  C   UNL     1     -11.174  -3.608  16.522  0.00  0.00    +0.000 A 
ATOM     39  C   UNL     1     -10.280  -3.490  17.596  0.00  0.00    +0.000 A 
ATOM     40  C   UNL     1     -10.373  -2.359  18.416  0.00  0.00    +0.000 A 
ATOM     41  H   UNL     1     -12.763  -0.626  16.692  0.00  0.00    +0.000 HD
ATOM     42  H   UNL     1     -12.681  -2.671  15.314  0.00  0.00    +0.000 HD
ATOM     43  H   UNL     1     -11.204  -4.488  15.893  0.00  0.00    +0.000 HD
ATOM     44  H   UNL     1      -9.712  -2.256  19.276  0.00  0.00    +0.000 HD
BRANCH  35  45
ATOM     45  C   UNL     1     -11.409  -0.108  18.997  0.00  0.00    +0.000 C 
ATOM     46  H   UNL     1     -10.792   0.691  18.565  0.00  0.00    +0.000 HD
ATOM     47  H   UNL     1     -12.446   0.246  18.997  0.00  0.00    +0.000 HD
BRANCH  45  48
ATOM     48  C   UNL     1     -10.968  -0.317  20.429  0.00  0.00    +0.000 C 
ATOM     49  O   UNL     1      -9.880  -0.031  20.906  0.00  0.00    +0.000 OA
BRANCH  48  50
ATOM     50  O   UNL     1     -11.987  -0.910  21.124  0.00  0.00    +0.000 OA
BRANCH  50  51
ATOM     51  C   UNL     1     -11.621  -1.327  22.440  0.00  0.00    +0.000 C 
ATOM     52  H   UNL     1     -10.535  -1.455  22.464  0.00  0.00    +0.000 HD
ATOM     53  H   UNL     1     -12.089  -2.286  22.684  0.00  0.00    +0.000 HD
ATOM     54  H   UNL     1     -11.897  -0.561  23.171  0.00  0.00    +0.000 HD
ENDBRANCH  50  51
ENDBRANCH  48  50
ENDBRANCH  45  48
ENDBRANCH  35  45
ENDBRANCH  31  39
ENDBRANCH   1  32
BRANCH   1  55
ATOM     55  C   UNL     1      -6.929  -5.799  18.638  0.00  0.00    +0.000 C 
ATOM     56  H   UNL     1      -7.205  -4.766  18.377  0.00  0.00    +0.000 HD
ATOM     57  H   UNL     1      -6.239  -6.130  17.849  0.00  0.00    +0.000 HD
BRANCH  55  58
ATOM     58  N   UNL     1      -6.191  -5.716  19.926  0.00  0.00    +0.000 NA
BRANCH  58  59
ATOM     59  C   UNL     1      -4.739  -5.565  19.804  0.00  0.00    +0.000 C 
ATOM     60  H   UNL     1      -4.355  -5.956  18.866  0.00  0.00    +0.000 HD
ATOM     61  H   UNL     1      -4.245  -6.173  20.572  0.00  0.00    +0.000 HD
ATOM     62  H   UNL     1      -4.407  -4.527  19.918  0.00  0.00    +0.000 HD
ENDBRANCH  58  59
BRANCH  58  63
ATOM     63  C   UNL     1      -6.681  -4.532  20.666  0.00  0.00    +0.000 C 
ATOM     64  H   UNL     1      -7.131  -4.812  21.624  0.00  0.00    +0.000 HD
ATOM     65  H   UNL     1      -7.430  -3.974  20.089  0.00  0.00    +0.000 HD
ATOM     66  H   UNL     1      -5.851  -3.853  20.892  0.00  0.00    +0.000 HD
ENDBRANCH  58  63
ENDBRANCH  55  58
ENDBRANCH   1  55
TORSDOF 12
ENDMDL
MODEL 6
REMARK VINA RESULT:    -8.558      2.766      6.504
REMARK INTER + INTRA:         -15.146
REMARK INTER:                 -14.205
REMARK INTRA:                  -0.941
REMARK UNBOUND:                -1.585
REMARK  Name = 
REMARK  12 active torsions:
REMARK  status: ('A' for Active; 'I' for Inactive)
REMARK    1  A    between atoms: C_1  and  O_2
REMARK    2  A    between atoms: O_2  and  C_3
REMARK    3  A    between atoms: C_3  and  C_5
REMARK    4  A    between atoms: C_5  and  C_6
REMARK    5  A    between atoms: C_10  and  N_11
REMARK    6  A    between atoms: C_12  and  C_14
REMARK    7  A    between atoms: C_14  and  C_15
REMARK    8  A    between atoms: C_15  and  N_16
REMARK    9  A    between atoms: N_16  and  C_17
REMARK   10  A    between atoms: N_16  and  C_18
REMARK   11  A    between atoms: N_21  and  C_22
REMARK   12  A    between atoms: C_29  and  C_30
REMARK                            x       y       z     vdW  Elec       q    Type
REMARK                         _______ _______ _______ _____ _____    ______ ____
ROOT
ATOM      1  C   UNL     1      -9.556  -5.739  17.924  0.00  0.00    +0.000 C 
ATOM      2  C   UNL     1      -8.524  -6.511  17.025  0.00  0.00    +0.000 C 
ATOM      3  C   UNL     1      -9.135  -7.758  16.375  0.00  0.00    +0.000 C 
ATOM      4  N   UNL     1      -9.524  -8.606  17.474  0.00  0.00    +0.000 N 
ATOM      5  C   UNL     1     -10.678  -8.092  18.199  0.00  0.00    +0.000 C 
ATOM      6  C   UNL     1     -10.284  -6.755  18.846  0.00  0.00    +0.000 C 
ATOM      7  H   UNL     1      -7.689  -6.808  17.666  0.00  0.00    +0.000 HD
ATOM      8  H   UNL     1      -8.108  -5.861  16.245  0.00  0.00    +0.000 HD
ATOM      9  H   UNL     1      -8.471  -8.245  15.669  0.00  0.00    +0.000 HD
ATOM     10  H   UNL     1     -10.016  -7.524  15.770  0.00  0.00    +0.000 HD
ATOM     11  H   UNL     1     -11.029  -8.759  18.994  0.00  0.00    +0.000 HD
ATOM     12  H   UNL     1     -11.524  -7.941  17.516  0.00  0.00    +0.000 HD
ATOM     13  H   UNL     1      -9.616  -6.995  19.687  0.00  0.00    +0.000 HD
ATOM     14  H   UNL     1     -11.202  -6.333  19.257  0.00  0.00    +0.000 HD
ENDROOT
BRANCH   4  15
ATOM     15  C   UNL     1      -9.092  -9.905  17.633  0.00  0.00    +0.000 A 
ATOM     16  N   UNL     1      -8.668 -10.244  18.888  0.00  0.00    +0.000 NA
ATOM     17  C   UNL     1      -8.201 -11.473  19.148  0.00  0.00    +0.000 A 
ATOM     18  N   UNL     1      -8.068 -12.486  18.294  0.00  0.00    +0.000 NA
ATOM     19  C   UNL     1      -8.464 -12.141  17.065  0.00  0.00    +0.000 A 
ATOM     20  N   UNL     1      -8.387 -13.010  16.020  0.00  0.00    +0.000 N 
ATOM     21  C   UNL     1      -8.812 -12.396  14.878  0.00  0.00    +0.000 A 
ATOM     22  C   UNL     1      -9.177 -11.101  15.191  0.00  0.00    +0.000 A 
ATOM     23  C   UNL     1      -8.974 -10.918  16.626  0.00  0.00    +0.000 A 
ATOM     24  H   UNL     1      -7.890 -11.660  20.170  0.00  0.00    +0.000 HD
ATOM     25  H   UNL     1      -8.033 -13.950  16.096  0.00  0.00    +0.000 HD
ATOM     26  H   UNL     1      -8.802 -12.920  13.933  0.00  0.00    +0.000 HD
BRANCH  22  27
ATOM     27  C   UNL     1      -9.630 -10.157  14.133  0.00  0.00    +0.000 C 
ATOM     28  H   UNL     1     -10.636  -9.774  14.357  0.00  0.00    +0.000 HD
ATOM     29  H   UNL     1      -9.713 -10.659  13.173  0.00  0.00    +0.000 HD
ATOM     30  H   UNL     1      -8.988  -9.275  14.063  0.00  0.00    +0.000 HD
ENDBRANCH  22  27
ENDBRANCH   4  15
BRANCH   1  32
ATOM     31  N   UNL     1      -9.998  -3.909  16.293  0.00  0.00    +0.000 N 
ATOM     32  C   UNL     1     -10.503  -5.015  16.944  0.00  0.00    +0.000 C 
ATOM     33  O   UNL     1     -11.638  -5.455  16.767  0.00  0.00    +0.000 OA
ATOM     34  H   UNL     1      -8.985  -3.809  16.315  0.00  0.00    +0.000 HD
BRANCH  31  39
ATOM     35  C   UNL     1     -11.481  -3.112  12.972  0.00  0.00    +0.000 A 
ATOM     36  C   UNL     1     -12.268  -1.995  13.285  0.00  0.00    +0.000 A 
ATOM     37  C   UNL     1     -12.214  -1.443  14.556  0.00  0.00    +0.000 A 
ATOM     38  C   UNL     1     -11.405  -2.017  15.532  0.00  0.00    +0.000 A 
ATOM     39  C   UNL     1     -10.690  -3.197  15.279  0.00  0.00    +0.000 A 
ATOM     40  C   UNL     1     -10.706  -3.717  13.979  0.00  0.00    +0.000 A 
ATOM     41  H   UNL     1     -12.927  -1.549  12.546  0.00  0.00    +0.000 HD
ATOM     42  H   UNL     1     -12.810  -0.565  14.806  0.00  0.00    +0.000 HD
ATOM     43  H   UNL     1     -11.379  -1.523  16.494  0.00  0.00    +0.000 HD
ATOM     44  H   UNL     1     -10.134  -4.614  13.747  0.00  0.00    +0.000 HD
BRANCH  35  45
ATOM     45  C   UNL     1     -11.506  -3.654  11.564  0.00  0.00    +0.000 C 
ATOM     46  H   UNL     1     -10.794  -4.487  11.499  0.00  0.00    +0.000 HD
ATOM     47  H   UNL     1     -12.500  -4.057  11.342  0.00  0.00    +0.000 HD
BRANCH  45  48
ATOM     48  C   UNL     1     -11.143  -2.643  10.498  0.00  0.00    +0.000 C 
ATOM     49  O   UNL     1     -10.054  -2.109  10.342  0.00  0.00    +0.000 OA
BRANCH  48  50
ATOM     50  O   UNL     1     -12.247  -2.394   9.730  0.00  0.00    +0.000 OA
BRANCH  50  51
ATOM     51  C   UNL     1     -12.579  -1.008   9.631  0.00  0.00    +0.000 C 
ATOM     52  H   UNL     1     -11.963  -0.461  10.351  0.00  0.00    +0.000 HD
ATOM     53  H   UNL     1     -13.632  -0.846   9.881  0.00  0.00    +0.000 HD
ATOM     54  H   UNL     1     -12.354  -0.634   8.628  0.00  0.00    +0.000 HD
ENDBRANCH  50  51
ENDBRANCH  48  50
ENDBRANCH  45  48
ENDBRANCH  35  45
ENDBRANCH  31  39
ENDBRANCH   1  32
BRANCH   1  55
ATOM     55  C   UNL     1      -8.728  -4.692  18.749  0.00  0.00    +0.000 C 
ATOM     56  H   UNL     1      -9.461  -3.940  19.080  0.00  0.00    +0.000 HD
ATOM     57  H   UNL     1      -8.045  -4.162  18.071  0.00  0.00    +0.000 HD
BRANCH  55  58
ATOM     58  N   UNL     1      -7.981  -5.105  19.967  0.00  0.00    +0.000 NA
BRANCH  58  59
ATOM     59  C   UNL     1      -6.570  -5.436  19.750  0.00  0.00    +0.000 C 
ATOM     60  H   UNL     1      -6.152  -6.034  20.555  0.00  0.00    +0.000 HD
ATOM     61  H   UNL     1      -5.975  -4.515  19.761  0.00  0.00    +0.000 HD
ATOM     62  H   UNL     1      -6.394  -5.951  18.798  0.00  0.00    +0.000 HD
ENDBRANCH  58  59
BRANCH  58  63
ATOM     63  C   UNL     1      -8.010  -3.984  20.932  0.00  0.00    +0.000 C 
ATOM     64  H   UNL     1      -8.007  -4.341  21.967  0.00  0.00    +0.000 HD
ATOM     65  H   UNL     1      -8.898  -3.352  20.793  0.00  0.00    +0.000 HD
ATOM     66  H   UNL     1      -7.122  -3.353  20.811  0.00  0.00    +0.000 HD
ENDBRANCH  58  63
ENDBRANCH  55  58
ENDBRANCH   1  55
TORSDOF 12
ENDMDL
MODEL 7
REMARK VINA RESULT:    -8.524      2.285      3.894
REMARK INTER + INTRA:         -15.092
REMARK INTER:                 -14.504
REMARK INTRA:                  -0.588
REMARK UNBOUND:                -1.585
REMARK  Name = 
REMARK  12 active torsions:
REMARK  status: ('A' for Active; 'I' for Inactive)
REMARK    1  A    between atoms: C_1  and  O_2
REMARK    2  A    between atoms: O_2  and  C_3
REMARK    3  A    between atoms: C_3  and  C_5
REMARK    4  A    between atoms: C_5  and  C_6
REMARK    5  A    between atoms: C_10  and  N_11
REMARK    6  A    between atoms: C_12  and  C_14
REMARK    7  A    between atoms: C_14  and  C_15
REMARK    8  A    between atoms: C_15  and  N_16
REMARK    9  A    between atoms: N_16  and  C_17
REMARK   10  A    between atoms: N_16  and  C_18
REMARK   11  A    between atoms: N_21  and  C_22
REMARK   12  A    between atoms: C_29  and  C_30
REMARK                            x       y       z     vdW  Elec       q    Type
REMARK                         _______ _______ _______ _____ _____    ______ ____
ROOT
ATOM      1  C   UNL     1      -8.244  -5.990  19.264  0.00  0.00    +0.000 C 
ATOM      2  C   UNL     1      -7.591  -6.254  17.859  0.00  0.00    +0.000 C 
ATOM      3  C   UNL     1      -8.619  -6.713  16.816  0.00  0.00    +0.000 C 
ATOM      4  N   UNL     1      -9.150  -7.952  17.327  0.00  0.00    +0.000 N 
ATOM      5  C   UNL     1     -10.013  -7.759  18.484  0.00  0.00    +0.000 C 
ATOM      6  C   UNL     1      -9.163  -7.187  19.629  0.00  0.00    +0.000 C 
ATOM      7  H   UNL     1      -6.836  -7.034  17.990  0.00  0.00    +0.000 HD
ATOM      8  H   UNL     1      -7.068  -5.366  17.487  0.00  0.00    +0.000 HD
ATOM      9  H   UNL     1      -8.208  -6.800  15.816  0.00  0.00    +0.000 HD
ATOM     10  H   UNL     1      -9.435  -5.995  16.691  0.00  0.00    +0.000 HD
ATOM     11  H   UNL     1     -10.479  -8.684  18.842  0.00  0.00    +0.000 HD
ATOM     12  H   UNL     1     -10.829  -7.066  18.242  0.00  0.00    +0.000 HD
ATOM     13  H   UNL     1      -8.528  -8.008  19.994  0.00  0.00    +0.000 HD
ATOM     14  H   UNL     1      -9.862  -6.924  20.425  0.00  0.00    +0.000 HD
ENDROOT
BRANCH   4  15
ATOM     15  C   UNL     1      -9.131  -9.142  16.630  0.00  0.00    +0.000 A 
ATOM     16  N   UNL     1      -9.515  -9.072  15.319  0.00  0.00    +0.000 NA
ATOM     17  C   UNL     1      -9.560 -10.173  14.557  0.00  0.00    +0.000 A 
ATOM     18  N   UNL     1      -9.277 -11.422  14.921  0.00  0.00    +0.000 NA
ATOM     19  C   UNL     1      -8.925 -11.486  16.209  0.00  0.00    +0.000 A 
ATOM     20  N   UNL     1      -8.623 -12.670  16.808  0.00  0.00    +0.000 N 
ATOM     21  C   UNL     1      -8.340 -12.460  18.126  0.00  0.00    +0.000 A 
ATOM     22  C   UNL     1      -8.457 -11.107  18.385  0.00  0.00    +0.000 A 
ATOM     23  C   UNL     1      -8.822 -10.447  17.135  0.00  0.00    +0.000 A 
ATOM     24  H   UNL     1      -9.870 -10.029  13.527  0.00  0.00    +0.000 HD
ATOM     25  H   UNL     1      -8.646 -13.560  16.337  0.00  0.00    +0.000 HD
ATOM     26  H   UNL     1      -8.099 -13.287  18.778  0.00  0.00    +0.000 HD
BRANCH  22  27
ATOM     27  C   UNL     1      -8.266 -10.573  19.762  0.00  0.00    +0.000 C 
ATOM     28  H   UNL     1      -8.297  -9.474  19.760  0.00  0.00    +0.000 HD
ATOM     29  H   UNL     1      -7.288 -10.840  20.150  0.00  0.00    +0.000 HD
ATOM     30  H   UNL     1      -9.061 -10.888  20.442  0.00  0.00    +0.000 HD
ENDBRANCH  22  27
ENDBRANCH   4  15
BRANCH   1  32
ATOM     31  N   UNL     1      -8.851  -3.742  20.149  0.00  0.00    +0.000 N 
ATOM     32  C   UNL     1      -9.004  -4.654  19.126  0.00  0.00    +0.000 C 
ATOM     33  O   UNL     1      -9.683  -4.449  18.121  0.00  0.00    +0.000 OA
ATOM     34  H   UNL     1      -8.067  -3.911  20.777  0.00  0.00    +0.000 HD
BRANCH  31  39
ATOM     35  C   UNL     1     -10.337  -0.555  21.371  0.00  0.00    +0.000 A 
ATOM     36  C   UNL     1     -10.201   0.262  20.240  0.00  0.00    +0.000 A 
ATOM     37  C   UNL     1      -9.731  -0.274  19.050  0.00  0.00    +0.000 A 
ATOM     38  C   UNL     1      -9.361  -1.613  18.987  0.00  0.00    +0.000 A 
ATOM     39  C   UNL     1      -9.384  -2.427  20.129  0.00  0.00    +0.000 A 
ATOM     40  C   UNL     1      -9.912  -1.895  21.312  0.00  0.00    +0.000 A 
ATOM     41  H   UNL     1     -10.457   1.317  20.276  0.00  0.00    +0.000 HD
ATOM     42  H   UNL     1      -9.636   0.349  18.161  0.00  0.00    +0.000 HD
ATOM     43  H   UNL     1      -9.033  -1.983  18.025  0.00  0.00    +0.000 HD
ATOM     44  H   UNL     1      -9.971  -2.515  22.206  0.00  0.00    +0.000 HD
BRANCH  35  45
ATOM     45  C   UNL     1     -10.914   0.035  22.635  0.00  0.00    +0.000 C 
ATOM     46  H   UNL     1     -11.836   0.574  22.379  0.00  0.00    +0.000 HD
ATOM     47  H   UNL     1     -11.188  -0.770  23.325  0.00  0.00    +0.000 HD
BRANCH  45  48
ATOM     48  C   UNL     1      -9.993   0.997  23.353  0.00  0.00    +0.000 C 
ATOM     49  O   UNL     1      -9.986   2.215  23.246  0.00  0.00    +0.000 OA
BRANCH  48  50
ATOM     50  O   UNL     1      -9.135   0.282  24.143  0.00  0.00    +0.000 OA
BRANCH  50  51
ATOM     51  C   UNL     1      -8.855   0.902  25.398  0.00  0.00    +0.000 C 
ATOM     52  H   UNL     1      -7.777   1.081  25.454  0.00  0.00    +0.000 HD
ATOM     53  H   UNL     1      -9.140   0.244  26.225  0.00  0.00    +0.000 HD
ATOM     54  H   UNL     1      -9.370   1.865  25.470  0.00  0.00    +0.000 HD
ENDBRANCH  50  51
ENDBRANCH  48  50
ENDBRANCH  45  48
ENDBRANCH  35  45
ENDBRANCH  31  39
ENDBRANCH   1  32
BRANCH   1  55
ATOM     55  C   UNL     1      -7.058  -5.835  20.280  0.00  0.00    +0.000 C 
ATOM     56  H   UNL     1      -6.641  -6.847  20.395  0.00  0.00    +0.000 HD
ATOM     57  H   UNL     1      -7.463  -5.567  21.266  0.00  0.00    +0.000 HD
BRANCH  55  58
ATOM     58  N   UNL     1      -5.906  -4.947  19.971  0.00  0.00    +0.000 NA
BRANCH  58  59
ATOM     59  C   UNL     1      -5.524  -4.025  21.044  0.00  0.00    +0.000 C 
ATOM     60  H   UNL     1      -5.183  -3.065  20.668  0.00  0.00    +0.000 HD
ATOM     61  H   UNL     1      -4.656  -4.430  21.579  0.00  0.00    +0.000 HD
ATOM     62  H   UNL     1      -6.329  -3.856  21.768  0.00  0.00    +0.000 HD
ENDBRANCH  58  59
BRANCH  58  63
ATOM     63  C   UNL     1      -4.724  -5.797  19.701  0.00  0.00    +0.000 C 
ATOM     64  H   UNL     1      -4.670  -6.089  18.647  0.00  0.00    +0.000 HD
ATOM     65  H   UNL     1      -4.736  -6.712  20.308  0.00  0.00    +0.000 HD
ATOM     66  H   UNL     1      -3.802  -5.250  19.927  0.00  0.00    +0.000 HD
ENDBRANCH  58  63
ENDBRANCH  55  58
ENDBRANCH   1  55
TORSDOF 12
ENDMDL
MODEL 8
REMARK VINA RESULT:    -8.479      2.554      5.347
REMARK INTER + INTRA:         -15.021
REMARK INTER:                 -13.933
REMARK INTRA:                  -1.088
REMARK UNBOUND:                -1.585
REMARK  Name = 
REMARK  12 active torsions:
REMARK  status: ('A' for Active; 'I' for Inactive)
REMARK    1  A    between atoms: C_1  and  O_2
REMARK    2  A    between atoms: O_2  and  C_3
REMARK    3  A    between atoms: C_3  and  C_5
REMARK    4  A    between atoms: C_5  and  C_6
REMARK    5  A    between atoms: C_10  and  N_11
REMARK    6  A    between atoms: C_12  and  C_14
REMARK    7  A    between atoms: C_14  and  C_15
REMARK    8  A    between atoms: C_15  and  N_16
REMARK    9  A    between atoms: N_16  and  C_17
REMARK   10  A    between atoms: N_16  and  C_18
REMARK   11  A    between atoms: N_21  and  C_22
REMARK   12  A    between atoms: C_29  and  C_30
REMARK                            x       y       z     vdW  Elec       q    Type
REMARK                         _______ _______ _______ _____ _____    ______ ____
ROOT
ATOM      1  C   UNL     1      -9.624  -5.683  17.781  0.00  0.00    +0.000 C 
ATOM      2  C   UNL     1      -8.578  -6.475  16.914  0.00  0.00    +0.000 C 
ATOM      3  C   UNL     1      -9.173  -7.752  16.308  0.00  0.00    +0.000 C 
ATOM      4  N   UNL     1      -9.558  -8.564  17.435  0.00  0.00    +0.000 N 
ATOM      5  C   UNL     1     -10.721  -8.037  18.136  0.00  0.00    +0.000 C 
ATOM      6  C   UNL     1     -10.344  -6.673  18.736  0.00  0.00    +0.000 C 
ATOM      7  H   UNL     1      -7.744  -6.740  17.569  0.00  0.00    +0.000 HD
ATOM      8  H   UNL     1      -8.167  -5.850  16.113  0.00  0.00    +0.000 HD
ATOM      9  H   UNL     1      -8.501  -8.257  15.622  0.00  0.00    +0.000 HD
ATOM     10  H   UNL     1     -10.054  -7.550  15.691  0.00  0.00    +0.000 HD
ATOM     11  H   UNL     1     -11.068  -8.678  18.953  0.00  0.00    +0.000 HD
ATOM     12  H   UNL     1     -11.565  -7.920  17.445  0.00  0.00    +0.000 HD
ATOM     13  H   UNL     1      -9.677  -6.875  19.588  0.00  0.00    +0.000 HD
ATOM     14  H   UNL     1     -11.269  -6.246  19.128  0.00  0.00    +0.000 HD
ENDROOT
BRANCH   4  15
ATOM     15  C   UNL     1      -9.112  -9.852  17.643  0.00  0.00    +0.000 A 
ATOM     16  N   UNL     1      -8.681 -10.137  18.908  0.00  0.00    +0.000 NA
ATOM     17  C   UNL     1      -8.200 -11.350  19.213  0.00  0.00    +0.000 A 
ATOM     18  N   UNL     1      -8.061 -12.394  18.399  0.00  0.00    +0.000 NA
ATOM     19  C   UNL     1      -8.464 -12.101  17.159  0.00  0.00    +0.000 A 
ATOM     20  N   UNL     1      -8.382 -13.010  16.149  0.00  0.00    +0.000 N 
ATOM     21  C   UNL     1      -8.817 -12.445  14.985  0.00  0.00    +0.000 A 
ATOM     22  C   UNL     1      -9.194 -11.142  15.249  0.00  0.00    +0.000 A 
ATOM     23  C   UNL     1      -8.988 -10.901  16.675  0.00  0.00    +0.000 A 
ATOM     24  H   UNL     1      -7.884 -11.495  20.242  0.00  0.00    +0.000 HD
ATOM     25  H   UNL     1      -8.018 -13.943  16.260  0.00  0.00    +0.000 HD
ATOM     26  H   UNL     1      -8.805 -13.005  14.061  0.00  0.00    +0.000 HD
BRANCH  22  27
ATOM     27  C   UNL     1      -9.660 -10.244  14.157  0.00  0.00    +0.000 C 
ATOM     28  H   UNL     1     -10.430 -10.740  13.548  0.00  0.00    +0.000 HD
ATOM     29  H   UNL     1      -8.849 -10.010  13.473  0.00  0.00    +0.000 HD
ATOM     30  H   UNL     1     -10.128  -9.335  14.540  0.00  0.00    +0.000 HD
ENDBRANCH  22  27
ENDBRANCH   4  15
BRANCH   1  32
ATOM     31  N   UNL     1      -9.988  -4.281  15.754  0.00  0.00    +0.000 N 
ATOM     32  C   UNL     1     -10.574  -5.005  16.771  0.00  0.00    +0.000 C 
ATOM     33  O   UNL     1     -11.789  -5.153  16.895  0.00  0.00    +0.000 OA
ATOM     34  H   UNL     1      -8.996  -4.456  15.603  0.00  0.00    +0.000 HD
BRANCH  31  39
ATOM     35  C   UNL     1     -11.973  -1.788  13.829  0.00  0.00    +0.000 A 
ATOM     36  C   UNL     1     -11.908  -2.327  12.537  0.00  0.00    +0.000 A 
ATOM     37  C   UNL     1     -11.314  -3.563  12.329  0.00  0.00    +0.000 A 
ATOM     38  C   UNL     1     -10.751  -4.253  13.397  0.00  0.00    +0.000 A 
ATOM     39  C   UNL     1     -10.705  -3.692  14.681  0.00  0.00    +0.000 A 
ATOM     40  C   UNL     1     -11.355  -2.470  14.894  0.00  0.00    +0.000 A 
ATOM     41  H   UNL     1     -12.316  -1.790  11.685  0.00  0.00    +0.000 HD
ATOM     42  H   UNL     1     -11.272  -3.997  11.330  0.00  0.00    +0.000 HD
ATOM     43  H   UNL     1     -10.332  -5.226  13.180  0.00  0.00    +0.000 HD
ATOM     44  H   UNL     1     -11.362  -2.026  15.889  0.00  0.00    +0.000 HD
BRANCH  35  45
ATOM     45  C   UNL     1     -12.683  -0.473  14.040  0.00  0.00    +0.000 C 
ATOM     46  H   UNL     1     -12.030   0.336  13.688  0.00  0.00    +0.000 HD
ATOM     47  H   UNL     1     -13.594  -0.445  13.433  0.00  0.00    +0.000 HD
BRANCH  45  48
ATOM     48  C   UNL     1     -13.050  -0.185  15.479  0.00  0.00    +0.000 C 
ATOM     49  O   UNL     1     -14.036  -0.594  16.076  0.00  0.00    +0.000 OA
BRANCH  48  50
ATOM     50  O   UNL     1     -12.102   0.640  16.021  0.00  0.00    +0.000 OA
BRANCH  50  51
ATOM     51  C   UNL     1     -11.799   0.350  17.386  0.00  0.00    +0.000 C 
ATOM     52  H   UNL     1     -12.560   0.828  18.010  0.00  0.00    +0.000 HD
ATOM     53  H   UNL     1     -10.821   0.759  17.658  0.00  0.00    +0.000 HD
ATOM     54  H   UNL     1     -11.834  -0.729  17.562  0.00  0.00    +0.000 HD
ENDBRANCH  50  51
ENDBRANCH  48  50
ENDBRANCH  45  48
ENDBRANCH  35  45
ENDBRANCH  31  39
ENDBRANCH   1  32
BRANCH   1  55
ATOM     55  C   UNL     1      -8.811  -4.598  18.571  0.00  0.00    +0.000 C 
ATOM     56  H   UNL     1      -9.537  -3.803  18.801  0.00  0.00    +0.000 HD
ATOM     57  H   UNL     1      -8.074  -4.140  17.896  0.00  0.00    +0.000 HD
BRANCH  55  58
ATOM     58  N   UNL     1      -8.146  -4.935  19.858  0.00  0.00    +0.000 NA
BRANCH  58  59
ATOM     59  C   UNL     1      -6.752  -5.370  19.745  0.00  0.00    +0.000 C 
ATOM     60  H   UNL     1      -6.275  -5.501  20.712  0.00  0.00    +0.000 HD
ATOM     61  H   UNL     1      -6.164  -4.583  19.258  0.00  0.00    +0.000 HD
ATOM     62  H   UNL     1      -6.639  -6.294  19.166  0.00  0.00    +0.000 HD
ENDBRANCH  58  59
BRANCH  58  63
ATOM     63  C   UNL     1      -8.146  -3.725  20.711  0.00  0.00    +0.000 C 
ATOM     64  H   UNL     1      -7.484  -2.950  20.312  0.00  0.00    +0.000 HD
ATOM     65  H   UNL     1      -7.825  -3.952  21.737  0.00  0.00    +0.000 HD
ATOM     66  H   UNL     1      -9.151  -3.291  20.757  0.00  0.00    +0.000 HD
ENDBRANCH  58  63
ENDBRANCH  55  58
ENDBRANCH   1  55
TORSDOF 12
ENDMDL
MODEL 9
REMARK VINA RESULT:    -8.445      2.308      5.521
REMARK INTER + INTRA:         -14.967
REMARK INTER:                 -13.111
REMARK INTRA:                  -1.857
REMARK UNBOUND:                -1.585
REMARK  Name = 
REMARK  12 active torsions:
REMARK  status: ('A' for Active; 'I' for Inactive)
REMARK    1  A    between atoms: C_1  and  O_2
REMARK    2  A    between atoms: O_2  and  C_3
REMARK    3  A    between atoms: C_3  and  C_5
REMARK    4  A    between atoms: C_5  and  C_6
REMARK    5  A    between atoms: C_10  and  N_11
REMARK    6  A    between atoms: C_12  and  C_14
REMARK    7  A    between atoms: C_14  and  C_15
REMARK    8  A    between atoms: C_15  and  N_16
REMARK    9  A    between atoms: N_16  and  C_17
REMARK   10  A    between atoms: N_16  and  C_18
REMARK   11  A    between atoms: N_21  and  C_22
REMARK   12  A    between atoms: C_29  and  C_30
REMARK                            x       y       z     vdW  Elec       q    Type
REMARK                         _______ _______ _______ _____ _____    ______ ____
ROOT
ATOM      1  C   UNL     1      -9.078  -6.158  18.890  0.00  0.00    +0.000 C 
ATOM      2  C   UNL     1      -8.192  -6.411  17.617  0.00  0.00    +0.000 C 
ATOM      3  C   UNL     1      -9.003  -6.983  16.447  0.00  0.00    +0.000 C 
ATOM      4  N   UNL     1      -9.515  -8.244  16.921  0.00  0.00    +0.000 N 
ATOM      5  C   UNL     1     -10.564  -8.086  17.919  0.00  0.00    +0.000 C 
ATOM      6  C   UNL     1      -9.952  -7.412  19.158  0.00  0.00    +0.000 C 
ATOM      7  H   UNL     1      -7.411  -7.123  17.899  0.00  0.00    +0.000 HD
ATOM      8  H   UNL     1      -7.683  -5.495  17.294  0.00  0.00    +0.000 HD
ATOM      9  H   UNL     1      -8.433  -7.067  15.528  0.00  0.00    +0.000 HD
ATOM     10  H   UNL     1      -9.839  -6.337  16.165  0.00  0.00    +0.000 HD
ATOM     11  H   UNL     1     -11.011  -9.033  18.239  0.00  0.00    +0.000 HD
ATOM     12  H   UNL     1     -11.380  -7.468  17.523  0.00  0.00    +0.000 HD
ATOM     13  H   UNL     1      -9.325  -8.168  19.652  0.00  0.00    +0.000 HD
ATOM     14  H   UNL     1     -10.787  -7.182  19.822  0.00  0.00    +0.000 HD
ENDROOT
BRANCH   4  15
ATOM     15  C   UNL     1      -9.297  -9.449  16.287  0.00  0.00    +0.000 A 
ATOM     16  N   UNL     1      -9.583  -9.481  14.951  0.00  0.00    +0.000 NA
ATOM     17  C   UNL     1      -9.435 -10.609  14.243  0.00  0.00    +0.000 A 
ATOM     18  N   UNL     1      -9.030 -11.797  14.688  0.00  0.00    +0.000 NA
ATOM     19  C   UNL     1      -8.774 -11.764  15.999  0.00  0.00    +0.000 A 
ATOM     20  N   UNL     1      -8.376 -12.875  16.677  0.00  0.00    +0.000 N 
ATOM     21  C   UNL     1      -8.225 -12.578  18.000  0.00  0.00    +0.000 A 
ATOM     22  C   UNL     1      -8.526 -11.242  18.182  0.00  0.00    +0.000 A 
ATOM     23  C   UNL     1      -8.871 -10.683  16.878  0.00  0.00    +0.000 A 
ATOM     24  H   UNL     1      -9.679 -10.547  13.187  0.00  0.00    +0.000 HD
ATOM     25  H   UNL     1      -8.254 -13.780  16.251  0.00  0.00    +0.000 HD
ATOM     26  H   UNL     1      -7.936 -13.342  18.708  0.00  0.00    +0.000 HD
BRANCH  22  27
ATOM     27  C   UNL     1      -8.509 -10.632  19.541  0.00  0.00    +0.000 C 
ATOM     28  H   UNL     1      -9.161  -9.747  19.578  0.00  0.00    +0.000 HD
ATOM     29  H   UNL     1      -7.515 -10.277  19.795  0.00  0.00    +0.000 HD
ATOM     30  H   UNL     1      -8.893 -11.313  20.304  0.00  0.00    +0.000 HD
ENDBRANCH  22  27
ENDBRANCH   4  15
BRANCH   1  32
ATOM     31  N   UNL     1      -9.217  -3.812  18.061  0.00  0.00    +0.000 N 
ATOM     32  C   UNL     1      -9.904  -4.891  18.577  0.00  0.00    +0.000 C 
ATOM     33  O   UNL     1     -11.118  -4.901  18.773  0.00  0.00    +0.000 OA
ATOM     34  H   UNL     1      -8.288  -4.014  17.697  0.00  0.00    +0.000 HD
BRANCH  31  39
ATOM     35  C   UNL     1     -11.347  -1.522  16.041  0.00  0.00    +0.000 A 
ATOM     36  C   UNL     1     -11.314  -0.359  16.822  0.00  0.00    +0.000 A 
ATOM     37  C   UNL     1     -10.499  -0.298  17.942  0.00  0.00    +0.000 A 
ATOM     38  C   UNL     1      -9.740  -1.403  18.313  0.00  0.00    +0.000 A 
ATOM     39  C   UNL     1      -9.835  -2.616  17.614  0.00  0.00    +0.000 A 
ATOM     40  C   UNL     1     -10.616  -2.652  16.452  0.00  0.00    +0.000 A 
ATOM     41  H   UNL     1     -11.920   0.505  16.565  0.00  0.00    +0.000 HD
ATOM     42  H   UNL     1     -10.454   0.608  18.547  0.00  0.00    +0.000 HD
ATOM     43  H   UNL     1      -9.099  -1.286  19.176  0.00  0.00    +0.000 HD
ATOM     44  H   UNL     1     -10.682  -3.573  15.873  0.00  0.00    +0.000 HD
BRANCH  35  45
ATOM     45  C   UNL     1     -12.190  -1.541  14.789  0.00  0.00    +0.000 C 
ATOM     46  H   UNL     1     -13.167  -1.978  15.034  0.00  0.00    +0.000 HD
ATOM     47  H   UNL     1     -12.367  -0.515  14.449  0.00  0.00    +0.000 HD
BRANCH  45  48
ATOM     48  C   UNL     1     -11.595  -2.336  13.647  0.00  0.00    +0.000 C 
ATOM     49  O   UNL     1     -11.923  -3.459  13.293  0.00  0.00    +0.000 OA
BRANCH  48  50
ATOM     50  O   UNL     1     -10.596  -1.600  13.070  0.00  0.00    +0.000 OA
BRANCH  50  51
ATOM     51  C   UNL     1      -9.372  -2.318  12.907  0.00  0.00    +0.000 C 
ATOM     52  H   UNL     1      -9.476  -2.970  12.035  0.00  0.00    +0.000 HD
ATOM     53  H   UNL     1      -9.173  -2.942  13.784  0.00  0.00    +0.000 HD
ATOM     54  H   UNL     1      -8.546  -1.624  12.726  0.00  0.00    +0.000 HD
ENDBRANCH  50  51
ENDBRANCH  48  50
ENDBRANCH  45  48
ENDBRANCH  35  45
ENDBRANCH  31  39
ENDBRANCH   1  32
BRANCH   1  55
ATOM     55  C   UNL     1      -8.084  -5.877  20.072  0.00  0.00    +0.000 C 
ATOM     56  H   UNL     1      -7.335  -6.681  20.017  0.00  0.00    +0.000 HD
ATOM     57  H   UNL     1      -8.610  -6.026  21.025  0.00  0.00    +0.000 HD
BRANCH  55  58
ATOM     58  N   UNL     1      -7.320  -4.602  20.133  0.00  0.00    +0.000 NA
BRANCH  58  59
ATOM     59  C   UNL     1      -7.596  -3.766  21.304  0.00  0.00    +0.000 C 
ATOM     60  H   UNL     1      -6.693  -3.477  21.834  0.00  0.00    +0.000 HD
ATOM     61  H   UNL     1      -8.167  -4.346  22.039  0.00  0.00    +0.000 HD
ATOM     62  H   UNL     1      -8.165  -2.862  21.058  0.00  0.00    +0.000 HD
ENDBRANCH  58  59
BRANCH  58  63
ATOM     63  C   UNL     1      -5.877  -4.929  20.175  0.00  0.00    +0.000 C 
ATOM     64  H   UNL     1      -5.707  -6.010  20.169  0.00  0.00    +0.000 HD
ATOM     65  H   UNL     1      -5.392  -4.513  21.069  0.00  0.00    +0.000 HD
ATOM     66  H   UNL     1      -5.368  -4.523  19.293  0.00  0.00    +0.000 HD
ENDBRANCH  58  63
ENDBRANCH  55  58
ENDBRANCH   1  55
TORSDOF 12
ENDMDL
