REMARK  Name = 
REMARK  6 active torsions:
REMARK  status: ('A' for Active; 'I' for Inactive)
REMARK    1  A    between atoms: S_2  and  C_4
REMARK    2  A    between atoms: S_2  and  N_10
REMARK    3  A    between atoms: C_13  and  O_14
REMARK    4  A    between atoms: C_15  and  O_16
REMARK    5  A    between atoms: C_22  and  O_23
REMARK    6  A    between atoms: C_24  and  O_25
REMARK                            x       y       z     vdW  Elec       q    Type
REMARK                         _______ _______ _______ _____ _____    ______ ____
ROOT
ATOM      1  N   UNL     1       0.340  -0.820   0.914  0.00  0.00    +0.000 N 
ATOM      2  C   UNL     1       0.721  -1.295  -0.332  0.00  0.00    +0.000 A 
ATOM      3  C   UNL     1       0.502  -2.479  -1.051  0.00  0.00    +0.000 A 
ATOM      4  C   UNL     1       0.693  -2.398  -2.430  0.00  0.00    +0.000 A 
ATOM      5  C   UNL     1       1.004  -1.195  -3.050  0.00  0.00    +0.000 A 
ATOM      6  C   UNL     1       1.457  -0.115  -2.306  0.00  0.00    +0.000 A 
ATOM      7  C   UNL     1       1.420  -0.237  -0.905  0.00  0.00    +0.000 A 
ATOM      8  C   UNL     1       2.020   0.401   0.208  0.00  0.00    +0.000 A 
ATOM      9  C   UNL     1       3.228   1.088   0.438  0.00  0.00    +0.000 A 
ATOM     10  C   UNL     1       3.386   1.779   1.640  0.00  0.00    +0.000 A 
ATOM     11  C   UNL     1       2.278   1.971   2.451  0.00  0.00    +0.000 A 
ATOM     12  C   UNL     1       1.085   1.277   2.233  0.00  0.00    +0.000 A 
ATOM     13  C   UNL     1       1.076   0.310   1.230  0.00  0.00    +0.000 A 
ATOM     14  H   UNL     1       0.173  -3.393  -0.572  0.00  0.00    +0.000 HD
ATOM     15  H   UNL     1       1.784   0.799  -2.792  0.00  0.00    +0.000 HD
ATOM     16  H   UNL     1       4.047   1.005  -0.272  0.00  0.00    +0.000 HD
ATOM     17  H   UNL     1       4.352   2.208   1.881  0.00  0.00    +0.000 HD
ENDROOT
BRANCH   1  19
ATOM     18  O   UNL     1      -1.043  -0.929   3.071  0.00  0.00    +0.000 OA
ATOM     19  S   UNL     1      -1.099  -1.332   1.674  0.00  0.00    +0.000 S 
ATOM     20  O   UNL     1      -1.278  -2.729   1.317  0.00  0.00    +0.000 OA
BRANCH  19  21
ATOM     21  C   UNL     1      -2.303  -0.371   0.783  0.00  0.00    +0.000 A 
ATOM     22  C   UNL     1      -2.646   0.905   1.249  0.00  0.00    +0.000 A 
ATOM     23  C   UNL     1      -3.360   1.755   0.416  0.00  0.00    +0.000 A 
ATOM     24  C   UNL     1      -3.764   1.331  -0.856  0.00  0.00    +0.000 A 
ATOM     25  C   UNL     1      -3.489   0.027  -1.280  0.00  0.00    +0.000 A 
ATOM     26  C   UNL     1      -2.755  -0.830  -0.463  0.00  0.00    +0.000 A 
ATOM     27  H   UNL     1      -2.308   1.273   2.215  0.00  0.00    +0.000 HD
ATOM     28  H   UNL     1      -3.586   2.769   0.742  0.00  0.00    +0.000 HD
ATOM     29  H   UNL     1      -4.285   2.016  -1.516  0.00  0.00    +0.000 HD
ATOM     30  H   UNL     1      -3.818  -0.306  -2.262  0.00  0.00    +0.000 HD
ATOM     31  H   UNL     1      -2.501  -1.815  -0.817  0.00  0.00    +0.000 HD
ENDBRANCH  19  21
ENDBRANCH   1  19
BRANCH   4  32
ATOM     32  O   UNL     1       0.569  -3.507  -3.220  0.00  0.00    +0.000 OA
ATOM     33  H   UNL     1       0.946  -4.247  -2.707  0.00  0.00    +0.000 HD
ENDBRANCH   4  32
BRANCH   5  34
ATOM     34  O   UNL     1       0.910  -1.085  -4.407  0.00  0.00    +0.000 OA
ATOM     35  H   UNL     1       0.506  -1.929  -4.694  0.00  0.00    +0.000 HD
ENDBRANCH   5  34
BRANCH  11  36
ATOM     36  O   UNL     1       2.310   2.853   3.498  0.00  0.00    +0.000 OA
ATOM     37  H   UNL     1       3.216   3.201   3.568  0.00  0.00    +0.000 HD
ENDBRANCH  11  36
BRANCH  12  38
ATOM     38  O   UNL     1      -0.024   1.619   2.954  0.00  0.00    +0.000 OA
ATOM     39  H   UNL     1       0.236   2.423   3.448  0.00  0.00    +0.000 HD
ENDBRANCH  12  38
TORSDOF 6
