REMARK  Name = 
REMARK  8 active torsions:
REMARK  status: ('A' for Active; 'I' for Inactive)
REMARK    1  A    between atoms: C_1  and  C_2
REMARK    2  A    between atoms: C_2  and  C_3
REMARK    3  A    between atoms: C_4  and  C_5
REMARK    4  A    between atoms: C_5  and  N_6
REMARK    5  A    between atoms: N_6  and  C_7
REMARK    6  A    between atoms: N_16  and  C_17
REMARK    7  A    between atoms: C_17  and  C_18
REMARK    8  A    between atoms: C_17  and  C_19
REMARK                            x       y       z     vdW  Elec       q    Type
REMARK                         _______ _______ _______ _____ _____    ______ ____
ROOT
ATOM      1  C   UNL     1      -0.137  -0.233   0.303  0.00  0.00    +0.000 A 
ATOM      2  N   UNL     1       0.699  -1.306   0.267  0.00  0.00    +0.000 NA
ATOM      3  C   UNL     1       2.028  -1.113   0.247  0.00  0.00    +0.000 A 
ATOM      4  N   UNL     1       2.806  -2.256   0.232  0.00  0.00    +0.000 N 
ATOM      5  N   UNL     1       2.673   0.058   0.192  0.00  0.00    +0.000 NA
ATOM      6  C   UNL     1       1.829   1.099   0.237  0.00  0.00    +0.000 A 
ATOM      7  C   UNL     1       0.447   1.047   0.320  0.00  0.00    +0.000 A 
ATOM      8  N   UNL     1      -0.087   2.321   0.353  0.00  0.00    +0.000 NA
ATOM      9  C   UNL     1       0.950   3.125   0.263  0.00  0.00    +0.000 A 
ATOM     10  N   UNL     1       2.132   2.434   0.185  0.00  0.00    +0.000 N 
ATOM     11  H   UNL     1       2.259  -3.028  -0.123  0.00  0.00    +0.000 HD
ATOM     12  H   UNL     1       3.685  -2.061  -0.224  0.00  0.00    +0.000 HD
ATOM     13  H   UNL     1       0.900   4.206   0.241  0.00  0.00    +0.000 HD
ENDROOT
BRANCH   1  14
ATOM     14  N   UNL     1      -1.525  -0.405   0.268  0.00  0.00    +0.000 N 
ATOM     15  H   UNL     1      -1.923  -0.125   1.160  0.00  0.00    +0.000 HD
BRANCH  14  16
ATOM     16  C   UNL     1      -1.978  -1.698  -0.195  0.00  0.00    +0.000 C 
ATOM     17  H   UNL     1      -1.393  -2.035  -1.059  0.00  0.00    +0.000 HD
ATOM     18  H   UNL     1      -1.894  -2.449   0.595  0.00  0.00    +0.000 HD
BRANCH  16  20
ATOM     19  C   UNL     1      -4.480  -2.207  -0.315  0.00  0.00    +0.000 C 
ATOM     20  C   UNL     1      -3.388  -1.504  -0.675  0.00  0.00    +0.000 C 
ATOM     21  H   UNL     1      -3.500  -0.715  -1.413  0.00  0.00    +0.000 HD
BRANCH  19  22
ATOM     22  C   UNL     1      -5.810  -1.896  -0.943  0.00  0.00    +0.000 C 
ATOM     23  H   UNL     1      -6.594  -2.578  -0.599  0.00  0.00    +0.000 HD
ATOM     24  H   UNL     1      -5.752  -1.992  -2.033  0.00  0.00    +0.000 HD
ATOM     25  H   UNL     1      -6.127  -0.877  -0.694  0.00  0.00    +0.000 HD
ENDBRANCH  19  22
BRANCH  19  26
ATOM     26  C   UNL     1      -4.429  -3.326   0.684  0.00  0.00    +0.000 C 
ATOM     27  H   UNL     1      -5.411  -3.791   0.826  0.00  0.00    +0.000 HD
ATOM     28  H   UNL     1      -4.100  -2.954   1.660  0.00  0.00    +0.000 HD
ATOM     29  H   UNL     1      -3.744  -4.111   0.348  0.00  0.00    +0.000 HD
ENDBRANCH  19  26
ENDBRANCH  16  20
ENDBRANCH  14  16
ENDBRANCH   1  14
BRANCH  10  30
ATOM     30  C   UNL     1       3.448   3.042   0.058  0.00  0.00    +0.000 C 
ATOM     31  H   UNL     1       3.282   4.128   0.073  0.00  0.00    +0.000 HD
BRANCH  30  32
ATOM     32  C   UNL     1       4.354   2.709   1.243  0.00  0.00    +0.000 C 
ATOM     33  H   UNL     1       4.570   1.638   1.305  0.00  0.00    +0.000 HD
ATOM     34  H   UNL     1       3.884   3.010   2.186  0.00  0.00    +0.000 HD
ATOM     35  H   UNL     1       5.309   3.237   1.158  0.00  0.00    +0.000 HD
ENDBRANCH  30  32
BRANCH  30  36
ATOM     36  C   UNL     1       4.122   2.711  -1.274  0.00  0.00    +0.000 C 
ATOM     37  H   UNL     1       4.354   1.645  -1.364  0.00  0.00    +0.000 HD
ATOM     38  H   UNL     1       5.062   3.266  -1.376  0.00  0.00    +0.000 HD
ATOM     39  H   UNL     1       3.479   2.986  -2.118  0.00  0.00    +0.000 HD
ENDBRANCH  30  36
ENDBRANCH  10  30
TORSDOF 8
