
 OpenBabel01112422313D

 43 48  0  0  0  0  0  0  0  0999 V2000
    1.6679    0.4083   -0.5203 C   0  0  0  0  0  0  0  0  0  0  0  0
    2.5121    0.7280    0.5773 O   0  0  0  0  0  0  0  0  0  0  0  0
    3.2694   -0.3225    1.0775 C   0  0  0  0  0  0  0  0  0  0  0  0
    4.4019    0.0963    1.7480 C   0  0  0  0  0  0  0  0  0  0  0  0
    5.1572   -0.8416    2.4339 C   0  0  0  0  0  0  0  0  0  0  0  0
    6.1539   -0.3286    3.2714 C   0  0  0  0  0  0  0  0  0  0  0  0
    6.7870    0.8917    3.3389 N   0  0  0  0  0  0  0  0  0  0  0  0
    7.9322    0.7893    4.1153 C   0  0  0  0  0  0  0  0  0  0  0  0
    8.9940    1.6964    4.2223 C   0  0  0  0  0  0  0  0  0  0  0  0
   10.0691    1.3349    5.0340 C   0  0  0  0  0  0  0  0  0  0  0  0
   10.0641    0.1346    5.7350 C   0  0  0  0  0  0  0  0  0  0  0  0
    8.9905   -0.7574    5.6214 C   0  0  0  0  0  0  0  0  0  0  0  0
    7.9077   -0.4441    4.7687 C   0  0  0  0  0  0  0  0  0  0  0  0
    6.7710   -1.0548    4.2502 C   0  0  0  0  0  0  0  0  0  0  0  0
    6.5861   -2.4635    4.2596 C   0  0  0  0  0  0  0  0  0  0  0  0
    5.9583   -2.9731    3.0718 C   0  0  0  0  0  0  0  0  0  0  0  0
    4.9827   -2.2655    2.3243 C   0  0  0  0  0  0  0  0  0  0  0  0
    3.8668   -2.6898    1.5200 C   0  0  0  0  0  0  0  0  0  0  0  0
    2.9666   -1.6839    0.9980 C   0  0  0  0  0  0  0  0  0  0  0  0
    1.7961   -2.3627    0.5680 C   0  0  0  0  0  0  0  0  0  0  0  0
    2.2024   -3.6225    0.2538 C   0  0  0  0  0  0  0  0  0  0  0  0
    3.2535   -3.8825    1.1100 N   0  0  0  0  0  0  0  0  0  0  0  0
    3.3180   -5.2286    1.6301 C   0  0  0  0  0  0  0  0  0  0  0  0
    6.9131   -3.9811    2.6678 C   0  0  0  0  0  0  0  0  0  0  0  0
    7.3498   -4.3078    1.5671 O   0  0  0  0  0  0  0  0  0  0  0  0
    7.5586   -4.3344    3.8466 N   0  0  0  0  0  0  0  0  0  0  0  0
    7.3703   -3.4847    4.8740 C   0  0  0  0  0  0  0  0  0  0  0  0
    7.8841   -3.6155    5.9803 O   0  0  0  0  0  0  0  0  0  0  0  0
    1.4867    1.3242   -1.0848 H   0  0  0  0  0  0  0  0  0  0  0  0
    0.6978    0.0659   -0.1497 H   0  0  0  0  0  0  0  0  0  0  0  0
    2.1193   -0.3174   -1.2064 H   0  0  0  0  0  0  0  0  0  0  0  0
    4.6128    1.1589    1.7870 H   0  0  0  0  0  0  0  0  0  0  0  0
    6.6002    1.6633    2.7193 H   0  0  0  0  0  0  0  0  0  0  0  0
    9.0038    2.6287    3.6672 H   0  0  0  0  0  0  0  0  0  0  0  0
   10.9239    2.0004    5.1141 H   0  0  0  0  0  0  0  0  0  0  0  0
   10.9096   -0.1299    6.3644 H   0  0  0  0  0  0  0  0  0  0  0  0
    9.0351   -1.6857    6.1788 H   0  0  0  0  0  0  0  0  0  0  0  0
    0.8352   -1.9404    0.3196 H   0  0  0  0  0  0  0  0  0  0  0  0
    1.6962   -4.3982   -0.3061 H   0  0  0  0  0  0  0  0  0  0  0  0
    4.2842   -5.4523    2.0610 H   0  0  0  0  0  0  0  0  0  0  0  0
    3.0858   -5.9238    0.8093 H   0  0  0  0  0  0  0  0  0  0  0  0
    2.5071   -5.3137    2.3661 H   0  0  0  0  0  0  0  0  0  0  0  0
    8.4287   -4.8354    3.8293 H   0  0  0  0  0  0  0  0  0  0  0  0
  1  2  1  0  0  0  0
  1 29  1  0  0  0  0
  1 30  1  0  0  0  0
  1 31  1  0  0  0  0
  2  3  1  0  0  0  0
  3  4  1  0  0  0  0
  3 19  2  0  0  0  0
  4  5  2  0  0  0  0
  4 32  1  0  0  0  0
  5  6  1  0  0  0  0
  5 17  1  0  0  0  0
  6  7  1  0  0  0  0
  6 14  2  0  0  0  0
  7  8  1  0  0  0  0
  7 33  1  0  0  0  0
  8  9  1  0  0  0  0
  8 13  2  0  0  0  0
  9 10  2  0  0  0  0
  9 34  1  0  0  0  0
 10 11  1  0  0  0  0
 10 35  1  0  0  0  0
 11 12  2  0  0  0  0
 11 36  1  0  0  0  0
 12 13  1  0  0  0  0
 12 37  1  0  0  0  0
 13 14  1  0  0  0  0
 14 15  1  0  0  0  0
 15 16  2  0  0  0  0
 15 27  1  0  0  0  0
 16 17  1  0  0  0  0
 16 24  1  0  0  0  0
 17 18  2  0  0  0  0
 18 19  1  0  0  0  0
 18 22  1  0  0  0  0
 19 20  1  0  0  0  0
 20 21  2  0  0  0  0
 20 38  1  0  0  0  0
 21 22  1  0  0  0  0
 21 39  1  0  0  0  0
 22 23  1  0  0  0  0
 23 40  1  0  0  0  0
 23 41  1  0  0  0  0
 23 42  1  0  0  0  0
 24 25  2  0  0  0  0
 24 26  1  0  0  0  0
 26 27  1  0  0  0  0
 26 43  1  0  0  0  0
 27 28  2  0  0  0  0
M  END
$$$$
