REMARK  Name = 
REMARK  13 active torsions:
REMARK  status: ('A' for Active; 'I' for Inactive)
REMARK    1  A    between atoms: C_2  and  C_34
REMARK    2  A    between atoms: N_3  and  C_4
REMARK    3  A    between atoms: C_10  and  O_11
REMARK    4  A    between atoms: O_11  and  C_12
REMARK    5  A    between atoms: C_12  and  C_14
REMARK    6  A    between atoms: C_16  and  O_17
REMARK    7  A    between atoms: C_18  and  C_19
REMARK    8  A    between atoms: C_19  and  C_21
REMARK    9  A    between atoms: C_22  and  O_23
REMARK   10  A    between atoms: C_27  and  C_28
REMARK   11  A    between atoms: C_28  and  O_30
REMARK   12  A    between atoms: C_31  and  O_32
REMARK   13  A    between atoms: C_37  and  O_38
REMARK                            x       y       z     vdW  Elec       q    Type
REMARK                         _______ _______ _______ _____ _____    ______ ____
ROOT
ATOM      1  C   UNL     1       0.059   1.707  -2.613  0.00  0.00    +0.000 C 
ATOM      2  C   UNL     1      -0.326   2.553  -3.852  0.00  0.00    +0.000 C 
ATOM      3  C   UNL     1       0.918   3.239  -4.445  0.00  0.00    +0.000 C 
ATOM      4  C   UNL     1       1.700   2.066  -5.052  0.00  0.00    +0.000 C 
ATOM      5  C   UNL     1       0.804   0.851  -4.750  0.00  0.00    +0.000 C 
ATOM      6  C   UNL     1      -0.593   1.463  -4.889  0.00  0.00    +0.000 C 
ATOM      7  C   UNL     1       0.895   0.535  -3.241  0.00  0.00    +0.000 C 
ATOM      8  H   UNL     1      -0.853   1.322  -2.138  0.00  0.00    +0.000 HD
ATOM      9  H   UNL     1      -1.156   3.243  -3.674  0.00  0.00    +0.000 HD
ATOM     10  H   UNL     1       1.514   3.788  -3.710  0.00  0.00    +0.000 HD
ATOM     11  H   UNL     1       0.632   3.952  -5.226  0.00  0.00    +0.000 HD
ATOM     12  H   UNL     1       2.700   1.971  -4.617  0.00  0.00    +0.000 HD
ATOM     13  H   UNL     1       1.809   2.215  -6.131  0.00  0.00    +0.000 HD
ATOM     14  H   UNL     1       0.985  -0.012  -5.395  0.00  0.00    +0.000 HD
ATOM     15  H   UNL     1      -1.400   0.779  -4.607  0.00  0.00    +0.000 HD
ATOM     16  H   UNL     1      -0.787   1.863  -5.890  0.00  0.00    +0.000 HD
ATOM     17  H   UNL     1       1.933   0.531  -2.889  0.00  0.00    +0.000 HD
ENDROOT
BRANCH   1  20
ATOM     18  O   UNL     1       1.045   0.783  -0.133  0.00  0.00    +0.000 OA
ATOM     19  C   UNL     1       1.183   1.961  -0.418  0.00  0.00    +0.000 C 
ATOM     20  N   UNL     1       0.755   2.508  -1.607  0.00  0.00    +0.000 N 
ATOM     21  H   UNL     1       0.885   3.491  -1.770  0.00  0.00    +0.000 HD
BRANCH  19  22
ATOM     22  C   UNL     1       1.870   2.862   0.540  0.00  0.00    +0.000 A 
ATOM     23  C   UNL     1       2.844   2.317   1.390  0.00  0.00    +0.000 A 
ATOM     24  C   UNL     1       3.460   3.116   2.358  0.00  0.00    +0.000 A 
ATOM     25  C   UNL     1       3.087   4.451   2.476  0.00  0.00    +0.000 A 
ATOM     26  C   UNL     1       2.117   4.998   1.641  0.00  0.00    +0.000 A 
ATOM     27  C   UNL     1       1.509   4.206   0.665  0.00  0.00    +0.000 A 
ATOM     28  H   UNL     1       3.111   1.265   1.310  0.00  0.00    +0.000 HD
ATOM     29  H   UNL     1       4.206   2.678   3.014  0.00  0.00    +0.000 HD
ATOM     30  H   UNL     1       1.818   6.035   1.769  0.00  0.00    +0.000 HD
ATOM     31  H   UNL     1       0.724   4.636   0.053  0.00  0.00    +0.000 HD
BRANCH  25  32
ATOM     32  O   UNL     1       3.641   5.268   3.415  0.00  0.00    +0.000 OA
ATOM     33  H   UNL     1       4.297   4.764   3.926  0.00  0.00    +0.000 HD
ENDBRANCH  25  32
ENDBRANCH  19  22
ENDBRANCH   1  20
BRANCH   7  34
ATOM     34  O   UNL     1       0.268  -0.729  -2.952  0.00  0.00    +0.000 OA
BRANCH  34  35
ATOM     35  C   UNL     1       1.101  -1.669  -2.421  0.00  0.00    +0.000 C 
ATOM     36  O   UNL     1       2.152  -2.051  -2.921  0.00  0.00    +0.000 OA
BRANCH  35  37
ATOM     37  C   UNL     1       0.617  -2.122  -1.094  0.00  0.00    +0.000 A 
ATOM     38  C   UNL     1       1.362  -3.046  -0.349  0.00  0.00    +0.000 A 
ATOM     39  C   UNL     1       0.947  -3.394   0.944  0.00  0.00    +0.000 A 
ATOM     40  C   UNL     1      -0.188  -2.791   1.530  0.00  0.00    +0.000 A 
ATOM     41  C   UNL     1      -0.899  -1.853   0.763  0.00  0.00    +0.000 A 
ATOM     42  C   UNL     1      -0.528  -1.558  -0.541  0.00  0.00    +0.000 A 
ATOM     43  H   UNL     1       2.258  -3.486  -0.780  0.00  0.00    +0.000 HD
ATOM     44  H   UNL     1      -1.111  -0.827  -1.091  0.00  0.00    +0.000 HD
BRANCH  39  45
ATOM     45  O   UNL     1       1.650  -4.363   1.611  0.00  0.00    +0.000 OA
ATOM     46  H   UNL     1       2.539  -4.439   1.230  0.00  0.00    +0.000 HD
ENDBRANCH  39  45
BRANCH  40  47
ATOM     47  C   UNL     1      -0.619  -3.145   2.923  0.00  0.00    +0.000 C 
ATOM     48  O   UNL     1       0.220  -3.410   3.780  0.00  0.00    +0.000 OA
BRANCH  47  49
ATOM     49  C   UNL     1      -2.040  -3.084   3.397  0.00  0.00    +0.000 A 
ATOM     50  C   UNL     1      -2.287  -2.661   4.735  0.00  0.00    +0.000 A 
ATOM     51  C   UNL     1      -3.588  -2.608   5.239  0.00  0.00    +0.000 A 
ATOM     52  C   UNL     1      -4.661  -2.904   4.416  0.00  0.00    +0.000 A 
ATOM     53  C   UNL     1      -4.454  -3.246   3.083  0.00  0.00    +0.000 A 
ATOM     54  C   UNL     1      -3.166  -3.369   2.563  0.00  0.00    +0.000 A 
ATOM     55  H   UNL     1      -3.762  -2.362   6.286  0.00  0.00    +0.000 HD
ATOM     56  H   UNL     1      -5.674  -2.902   4.811  0.00  0.00    +0.000 HD
ATOM     57  H   UNL     1      -5.320  -3.469   2.477  0.00  0.00    +0.000 HD
BRANCH  50  58
ATOM     58  O   UNL     1      -1.334  -2.267   5.640  0.00  0.00    +0.000 OA
ATOM     59  H   UNL     1      -0.437  -2.396   5.262  0.00  0.00    +0.000 HD
ENDBRANCH  50  58
BRANCH  54  60
ATOM     60  C   UNL     1      -3.069  -3.805   1.117  0.00  0.00    +0.000 C 
ATOM     61  O   UNL     1      -2.152  -4.428   0.693  0.00  0.00    +0.000 OA
BRANCH  60  62
ATOM     62  O   UNL     1      -4.031  -3.324   0.280  0.00  0.00    +0.000 OA
ATOM     63  H   UNL     1      -4.905  -3.124   0.636  0.00  0.00    +0.000 HD
ENDBRANCH  60  62
ENDBRANCH  54  60
ENDBRANCH  47  49
ENDBRANCH  40  47
BRANCH  41  64
ATOM     64  O   UNL     1      -2.026  -1.179   1.156  0.00  0.00    +0.000 OA
ATOM     65  H   UNL     1      -2.249  -1.393   2.066  0.00  0.00    +0.000 HD
ENDBRANCH  41  64
ENDBRANCH  35  37
ENDBRANCH  34  35
ENDBRANCH   7  34
TORSDOF 13
