MODEL 1
REMARK VINA RESULT:   -10.196      0.000      0.000
REMARK INTER + INTRA:         -14.574
REMARK INTER:                 -13.772
REMARK INTRA:                  -0.803
REMARK UNBOUND:                -0.803
REMARK  Name = 
REMARK  7 active torsions:
REMARK  status: ('A' for Active; 'I' for Inactive)
REMARK    1  A    between atoms: C_1  and  O_2
REMARK    2  A    between atoms: O_2  and  C_3
REMARK    3  A    between atoms: C_7  and  C_8
REMARK    4  A    between atoms: C_8  and  C_9
REMARK    5  A    between atoms: C_8  and  N_10
REMARK    6  A    between atoms: C_11  and  C_13
REMARK    7  A    between atoms: C_16  and  C_17
REMARK                            x       y       z     vdW  Elec       q    Type
REMARK                         _______ _______ _______ _____ _____    ______ ____
ROOT
ATOM      1  N   UNL     1      -7.921  -4.400  20.868  0.00  0.00    +0.000 N 
ATOM      2  C   UNL     1      -8.550  -4.565  19.653  0.00  0.00    +0.000 C 
ATOM      3  O   UNL     1      -9.005  -3.634  18.995  0.00  0.00    +0.000 OA
ATOM      4  H   UNL     1      -7.429  -5.172  21.291  0.00  0.00    +0.000 HD
ENDROOT
BRANCH   2   5
ATOM      5  C   UNL     1      -8.659  -5.959  19.130  0.00  0.00    +0.000 A 
ATOM      6  C   UNL     1      -8.851  -6.227  17.773  0.00  0.00    +0.000 A 
ATOM      7  C   UNL     1      -8.904  -7.553  17.317  0.00  0.00    +0.000 A 
ATOM      8  C   UNL     1      -8.774  -8.644  18.196  0.00  0.00    +0.000 A 
ATOM      9  C   UNL     1      -8.583  -8.346  19.559  0.00  0.00    +0.000 A 
ATOM     10  C   UNL     1      -8.518  -7.026  20.020  0.00  0.00    +0.000 A 
ATOM     11  H   UNL     1      -8.923  -5.428  17.042  0.00  0.00    +0.000 HD
ATOM     12  H   UNL     1      -9.028  -7.715  16.248  0.00  0.00    +0.000 HD
ATOM     13  H   UNL     1      -8.485  -9.145  20.293  0.00  0.00    +0.000 HD
ATOM     14  H   UNL     1      -8.355  -6.839  21.081  0.00  0.00    +0.000 HD
BRANCH   8  15
ATOM     15  C   UNL     1      -8.835 -10.043  17.712  0.00  0.00    +0.000 A 
ATOM     16  C   UNL     1      -9.159 -10.347  16.382  0.00  0.00    +0.000 A 
ATOM     17  C   UNL     1      -9.170 -11.671  15.963  0.00  0.00    +0.000 A 
ATOM     18  N   UNL     1      -8.897 -12.715  16.767  0.00  0.00    +0.000 NA
ATOM     19  C   UNL     1      -8.602 -12.415  18.045  0.00  0.00    +0.000 A 
ATOM     20  F   UNL     1      -8.330 -13.434  18.873  0.00  0.00    +0.000 F 
ATOM     21  C   UNL     1      -8.558 -11.127  18.555  0.00  0.00    +0.000 A 
ATOM     22  H   UNL     1      -9.411  -9.573  15.664  0.00  0.00    +0.000 HD
ATOM     23  H   UNL     1      -9.406 -11.927  14.933  0.00  0.00    +0.000 HD
ATOM     24  H   UNL     1      -8.292 -10.998  19.597  0.00  0.00    +0.000 HD
ENDBRANCH   8  15
ENDBRANCH   2   5
BRANCH   1  25
ATOM     25  C   UNL     1      -7.731  -3.081  21.456  0.00  0.00    +0.000 C 
ATOM     26  H   UNL     1      -7.931  -2.347  20.665  0.00  0.00    +0.000 HD
BRANCH  25  31
ATOM     27  C   UNL     1      -9.220  -2.735  24.990  0.00  0.00    +0.000 A 
ATOM     28  C   UNL     1     -10.499  -2.264  24.695  0.00  0.00    +0.000 A 
ATOM     29  C   UNL     1     -10.894  -2.104  23.365  0.00  0.00    +0.000 A 
ATOM     30  C   UNL     1     -10.011  -2.400  22.325  0.00  0.00    +0.000 A 
ATOM     31  C   UNL     1      -8.710  -2.850  22.598  0.00  0.00    +0.000 A 
ATOM     32  C   UNL     1      -8.339  -3.034  23.942  0.00  0.00    +0.000 A 
ATOM     33  H   UNL     1     -11.209  -2.006  25.472  0.00  0.00    +0.000 HD
ATOM     34  H   UNL     1     -11.890  -1.732  23.141  0.00  0.00    +0.000 HD
ATOM     35  H   UNL     1     -10.341  -2.258  21.298  0.00  0.00    +0.000 HD
ATOM     36  H   UNL     1      -7.342  -3.387  24.192  0.00  0.00    +0.000 HD
BRANCH  27  37
ATOM     37  O   UNL     1      -8.707  -2.929  26.243  0.00  0.00    +0.000 OA
BRANCH  37  38
ATOM     38  C   UNL     1      -8.762  -1.823  27.138  0.00  0.00    +0.000 C 
ATOM     39  H   UNL     1      -7.735  -1.529  27.371  0.00  0.00    +0.000 HD
ATOM     40  H   UNL     1      -9.252  -2.107  28.075  0.00  0.00    +0.000 HD
ATOM     41  H   UNL     1      -9.255  -0.958  26.680  0.00  0.00    +0.000 HD
ENDBRANCH  37  38
ENDBRANCH  27  37
ENDBRANCH  25  31
BRANCH  25  42
ATOM     42  C   UNL     1      -6.286  -2.866  21.913  0.00  0.00    +0.000 C 
ATOM     43  H   UNL     1      -5.909  -1.875  21.637  0.00  0.00    +0.000 HD
ATOM     44  H   UNL     1      -5.622  -3.613  21.462  0.00  0.00    +0.000 HD
ATOM     45  H   UNL     1      -6.196  -2.952  23.002  0.00  0.00    +0.000 HD
ENDBRANCH  25  42
ENDBRANCH   1  25
TORSDOF 7
ENDMDL
MODEL 2
REMARK VINA RESULT:   -10.118      1.098      1.773
REMARK INTER + INTRA:         -14.470
REMARK INTER:                 -13.599
REMARK INTRA:                  -0.871
REMARK UNBOUND:                -0.803
REMARK  Name = 
REMARK  7 active torsions:
REMARK  status: ('A' for Active; 'I' for Inactive)
REMARK    1  A    between atoms: C_1  and  O_2
REMARK    2  A    between atoms: O_2  and  C_3
REMARK    3  A    between atoms: C_7  and  C_8
REMARK    4  A    between atoms: C_8  and  C_9
REMARK    5  A    between atoms: C_8  and  N_10
REMARK    6  A    between atoms: C_11  and  C_13
REMARK    7  A    between atoms: C_16  and  C_17
REMARK                            x       y       z     vdW  Elec       q    Type
REMARK                         _______ _______ _______ _____ _____    ______ ____
ROOT
ATOM      1  N   UNL     1      -7.446  -4.712  20.808  0.00  0.00    +0.000 N 
ATOM      2  C   UNL     1      -8.282  -4.861  19.723  0.00  0.00    +0.000 C 
ATOM      3  O   UNL     1      -8.879  -3.927  19.194  0.00  0.00    +0.000 OA
ATOM      4  H   UNL     1      -6.861  -5.477  21.104  0.00  0.00    +0.000 HD
ENDROOT
BRANCH   2   5
ATOM      5  C   UNL     1      -8.443  -6.241  19.177  0.00  0.00    +0.000 A 
ATOM      6  C   UNL     1      -8.600  -6.483  17.810  0.00  0.00    +0.000 A 
ATOM      7  C   UNL     1      -8.704  -7.798  17.333  0.00  0.00    +0.000 A 
ATOM      8  C   UNL     1      -8.660  -8.905  18.201  0.00  0.00    +0.000 A 
ATOM      9  C   UNL     1      -8.502  -8.634  19.573  0.00  0.00    +0.000 A 
ATOM     10  C   UNL     1      -8.387  -7.325  20.055  0.00  0.00    +0.000 A 
ATOM     11  H   UNL     1      -8.607  -5.671  17.089  0.00  0.00    +0.000 HD
ATOM     12  H   UNL     1      -8.798  -7.940  16.259  0.00  0.00    +0.000 HD
ATOM     13  H   UNL     1      -8.470  -9.447  20.299  0.00  0.00    +0.000 HD
ATOM     14  H   UNL     1      -8.252  -7.160  21.124  0.00  0.00    +0.000 HD
BRANCH   8  15
ATOM     15  C   UNL     1      -8.774 -10.293  17.695  0.00  0.00    +0.000 A 
ATOM     16  C   UNL     1      -9.142 -10.565  16.369  0.00  0.00    +0.000 A 
ATOM     17  C   UNL     1      -9.203 -11.880  15.928  0.00  0.00    +0.000 A 
ATOM     18  N   UNL     1      -8.939 -12.945  16.707  0.00  0.00    +0.000 NA
ATOM     19  C   UNL     1      -8.601 -12.676  17.982  0.00  0.00    +0.000 A 
ATOM     20  F   UNL     1      -8.336 -13.717  18.784  0.00  0.00    +0.000 F 
ATOM     21  C   UNL     1      -8.507 -11.400  18.512  0.00  0.00    +0.000 A 
ATOM     22  H   UNL     1      -9.391  -9.771  15.672  0.00  0.00    +0.000 HD
ATOM     23  H   UNL     1      -9.473 -12.111  14.901  0.00  0.00    +0.000 HD
ATOM     24  H   UNL     1      -8.209 -11.297  19.548  0.00  0.00    +0.000 HD
ENDBRANCH   8  15
ENDBRANCH   2   5
BRANCH   1  25
ATOM     25  C   UNL     1      -7.192  -3.405  21.400  0.00  0.00    +0.000 C 
ATOM     26  H   UNL     1      -7.407  -2.656  20.627  0.00  0.00    +0.000 HD
BRANCH  25  31
ATOM     27  C   UNL     1     -10.228  -2.373  23.531  0.00  0.00    +0.000 A 
ATOM     28  C   UNL     1      -9.854  -2.863  24.782  0.00  0.00    +0.000 A 
ATOM     29  C   UNL     1      -8.612  -3.479  24.946  0.00  0.00    +0.000 A 
ATOM     30  C   UNL     1      -7.744  -3.622  23.862  0.00  0.00    +0.000 A 
ATOM     31  C   UNL     1      -8.110  -3.161  22.589  0.00  0.00    +0.000 A 
ATOM     32  C   UNL     1      -9.352  -2.517  22.447  0.00  0.00    +0.000 A 
ATOM     33  H   UNL     1     -10.505  -2.788  25.645  0.00  0.00    +0.000 HD
ATOM     34  H   UNL     1      -8.327  -3.864  25.922  0.00  0.00    +0.000 HD
ATOM     35  H   UNL     1      -6.786  -4.114  24.016  0.00  0.00    +0.000 HD
ATOM     36  H   UNL     1      -9.667  -2.141  21.477  0.00  0.00    +0.000 HD
BRANCH  27  37
ATOM     37  O   UNL     1     -11.414  -1.759  23.233  0.00  0.00    +0.000 OA
BRANCH  37  38
ATOM     38  C   UNL     1     -11.499  -1.105  21.971  0.00  0.00    +0.000 C 
ATOM     39  H   UNL     1     -10.969  -1.721  21.238  0.00  0.00    +0.000 HD
ATOM     40  H   UNL     1     -11.008  -0.128  22.007  0.00  0.00    +0.000 HD
ATOM     41  H   UNL     1     -12.537  -1.015  21.633  0.00  0.00    +0.000 HD
ENDBRANCH  37  38
ENDBRANCH  27  37
ENDBRANCH  25  31
BRANCH  25  42
ATOM     42  C   UNL     1      -5.721  -3.237  21.792  0.00  0.00    +0.000 C 
ATOM     43  H   UNL     1      -5.550  -3.453  22.852  0.00  0.00    +0.000 HD
ATOM     44  H   UNL     1      -5.386  -2.210  21.604  0.00  0.00    +0.000 HD
ATOM     45  H   UNL     1      -5.076  -3.911  21.218  0.00  0.00    +0.000 HD
ENDBRANCH  25  42
ENDBRANCH   1  25
TORSDOF 7
ENDMDL
MODEL 3
REMARK VINA RESULT:   -10.073      2.284      3.645
REMARK INTER + INTRA:         -14.409
REMARK INTER:                 -13.863
REMARK INTRA:                  -0.546
REMARK UNBOUND:                -0.803
REMARK  Name = 
REMARK  7 active torsions:
REMARK  status: ('A' for Active; 'I' for Inactive)
REMARK    1  A    between atoms: C_1  and  O_2
REMARK    2  A    between atoms: O_2  and  C_3
REMARK    3  A    between atoms: C_7  and  C_8
REMARK    4  A    between atoms: C_8  and  C_9
REMARK    5  A    between atoms: C_8  and  N_10
REMARK    6  A    between atoms: C_11  and  C_13
REMARK    7  A    between atoms: C_16  and  C_17
REMARK                            x       y       z     vdW  Elec       q    Type
REMARK                         _______ _______ _______ _____ _____    ______ ____
ROOT
ATOM      1  N   UNL     1      -8.788  -5.987  19.271  0.00  0.00    +0.000 N 
ATOM      2  C   UNL     1      -9.852  -6.726  18.802  0.00  0.00    +0.000 C 
ATOM      3  O   UNL     1     -10.992  -6.282  18.703  0.00  0.00    +0.000 OA
ATOM      4  H   UNL     1      -7.848  -6.343  19.185  0.00  0.00    +0.000 HD
ENDROOT
BRANCH   2   5
ATOM      5  C   UNL     1      -9.570  -8.132  18.390  0.00  0.00    +0.000 A 
ATOM      6  C   UNL     1      -8.884  -9.023  19.219  0.00  0.00    +0.000 A 
ATOM      7  C   UNL     1      -8.677 -10.350  18.810  0.00  0.00    +0.000 A 
ATOM      8  C   UNL     1      -9.142 -10.823  17.569  0.00  0.00    +0.000 A 
ATOM      9  C   UNL     1      -9.828  -9.904  16.753  0.00  0.00    +0.000 A 
ATOM     10  C   UNL     1     -10.047  -8.582  17.157  0.00  0.00    +0.000 A 
ATOM     11  H   UNL     1      -8.532  -8.726  20.202  0.00  0.00    +0.000 HD
ATOM     12  H   UNL     1      -8.162 -11.016  19.499  0.00  0.00    +0.000 HD
ATOM     13  H   UNL     1     -10.205 -10.204  15.775  0.00  0.00    +0.000 HD
ATOM     14  H   UNL     1     -10.596  -7.907  16.501  0.00  0.00    +0.000 HD
BRANCH   8  15
ATOM     15  C   UNL     1      -8.919 -12.223  17.139  0.00  0.00    +0.000 A 
ATOM     16  C   UNL     1      -8.911 -13.282  18.058  0.00  0.00    +0.000 A 
ATOM     17  C   UNL     1      -8.733 -14.583  17.607  0.00  0.00    +0.000 A 
ATOM     18  N   UNL     1      -8.548 -14.910  16.315  0.00  0.00    +0.000 NA
ATOM     19  C   UNL     1      -8.541 -13.886  15.441  0.00  0.00    +0.000 A 
ATOM     20  F   UNL     1      -8.355 -14.179  14.146  0.00  0.00    +0.000 F 
ATOM     21  C   UNL     1      -8.718 -12.558  15.794  0.00  0.00    +0.000 A 
ATOM     22  H   UNL     1      -9.035 -13.114  19.124  0.00  0.00    +0.000 HD
ATOM     23  H   UNL     1      -8.737 -15.419  18.302  0.00  0.00    +0.000 HD
ATOM     24  H   UNL     1      -8.712 -11.814  15.006  0.00  0.00    +0.000 HD
ENDBRANCH   8  15
ENDBRANCH   2   5
BRANCH   1  25
ATOM     25  C   UNL     1      -8.943  -4.594  19.670  0.00  0.00    +0.000 C 
ATOM     26  H   UNL     1      -9.811  -4.548  20.340  0.00  0.00    +0.000 HD
BRANCH  25  31
ATOM     27  C   UNL     1      -6.654  -2.606  22.043  0.00  0.00    +0.000 A 
ATOM     28  C   UNL     1      -5.464  -3.323  21.928  0.00  0.00    +0.000 A 
ATOM     29  C   UNL     1      -5.387  -4.411  21.055  0.00  0.00    +0.000 A 
ATOM     30  C   UNL     1      -6.500  -4.796  20.306  0.00  0.00    +0.000 A 
ATOM     31  C   UNL     1      -7.715  -4.106  20.425  0.00  0.00    +0.000 A 
ATOM     32  C   UNL     1      -7.766  -2.995  21.286  0.00  0.00    +0.000 A 
ATOM     33  H   UNL     1      -4.582  -3.069  22.504  0.00  0.00    +0.000 HD
ATOM     34  H   UNL     1      -4.458  -4.970  20.973  0.00  0.00    +0.000 HD
ATOM     35  H   UNL     1      -6.416  -5.653  19.641  0.00  0.00    +0.000 HD
ATOM     36  H   UNL     1      -8.689  -2.432  21.399  0.00  0.00    +0.000 HD
BRANCH  27  37
ATOM     37  O   UNL     1      -6.864  -1.530  22.862  0.00  0.00    +0.000 OA
BRANCH  37  38
ATOM     38  C   UNL     1      -8.198  -1.040  22.948  0.00  0.00    +0.000 C 
ATOM     39  H   UNL     1      -8.871  -1.903  22.976  0.00  0.00    +0.000 HD
ATOM     40  H   UNL     1      -8.451  -0.446  22.064  0.00  0.00    +0.000 HD
ATOM     41  H   UNL     1      -8.359  -0.469  23.869  0.00  0.00    +0.000 HD
ENDBRANCH  37  38
ENDBRANCH  27  37
ENDBRANCH  25  31
BRANCH  25  42
ATOM     42  C   UNL     1      -9.251  -3.692  18.472  0.00  0.00    +0.000 C 
ATOM     43  H   UNL     1      -8.671  -3.971  17.585  0.00  0.00    +0.000 HD
ATOM     44  H   UNL     1      -9.020  -2.646  18.705  0.00  0.00    +0.000 HD
ATOM     45  H   UNL     1     -10.309  -3.747  18.194  0.00  0.00    +0.000 HD
ENDBRANCH  25  42
ENDBRANCH   1  25
TORSDOF 7
ENDMDL
MODEL 4
REMARK VINA RESULT:   -10.016      2.744      3.963
REMARK INTER + INTRA:         -14.332
REMARK INTER:                 -13.824
REMARK INTRA:                  -0.508
REMARK UNBOUND:                -0.803
REMARK  Name = 
REMARK  7 active torsions:
REMARK  status: ('A' for Active; 'I' for Inactive)
REMARK    1  A    between atoms: C_1  and  O_2
REMARK    2  A    between atoms: O_2  and  C_3
REMARK    3  A    between atoms: C_7  and  C_8
REMARK    4  A    between atoms: C_8  and  C_9
REMARK    5  A    between atoms: C_8  and  N_10
REMARK    6  A    between atoms: C_11  and  C_13
REMARK    7  A    between atoms: C_16  and  C_17
REMARK                            x       y       z     vdW  Elec       q    Type
REMARK                         _______ _______ _______ _____ _____    ______ ____
ROOT
ATOM      1  N   UNL     1      -9.022  -5.903  19.264  0.00  0.00    +0.000 N 
ATOM      2  C   UNL     1     -10.049  -6.540  18.603  0.00  0.00    +0.000 C 
ATOM      3  O   UNL     1     -11.118  -6.000  18.333  0.00  0.00    +0.000 OA
ATOM      4  H   UNL     1      -8.113  -6.336  19.321  0.00  0.00    +0.000 HD
ENDROOT
BRANCH   2   5
ATOM      5  C   UNL     1      -9.816  -7.957  18.195  0.00  0.00    +0.000 A 
ATOM      6  C   UNL     1     -10.292  -8.467  16.985  0.00  0.00    +0.000 A 
ATOM      7  C   UNL     1     -10.015  -9.793  16.620  0.00  0.00    +0.000 A 
ATOM      8  C   UNL     1      -9.262 -10.646  17.448  0.00  0.00    +0.000 A 
ATOM      9  C   UNL     1      -8.796 -10.108  18.662  0.00  0.00    +0.000 A 
ATOM     10  C   UNL     1      -9.060  -8.784  19.029  0.00  0.00    +0.000 A 
ATOM     11  H   UNL     1     -10.849  -7.847  16.289  0.00  0.00    +0.000 HD
ATOM     12  H   UNL     1     -10.382 -10.139  15.656  0.00  0.00    +0.000 HD
ATOM     13  H   UNL     1      -8.216 -10.720  19.354  0.00  0.00    +0.000 HD
ATOM     14  H   UNL     1      -8.668  -8.402  19.972  0.00  0.00    +0.000 HD
BRANCH   8  15
ATOM     15  C   UNL     1      -8.974 -12.047  17.062  0.00  0.00    +0.000 A 
ATOM     16  C   UNL     1      -8.873 -13.068  18.018  0.00  0.00    +0.000 A 
ATOM     17  C   UNL     1      -8.636 -14.373  17.608  0.00  0.00    +0.000 A 
ATOM     18  N   UNL     1      -8.477 -14.738  16.323  0.00  0.00    +0.000 NA
ATOM     19  C   UNL     1      -8.560 -13.750  15.413  0.00  0.00    +0.000 A 
ATOM     20  F   UNL     1      -8.402 -14.082  14.123  0.00  0.00    +0.000 F 
ATOM     21  C   UNL     1      -8.801 -12.422  15.723  0.00  0.00    +0.000 A 
ATOM     22  H   UNL     1      -8.969 -12.867  19.080  0.00  0.00    +0.000 HD
ATOM     23  H   UNL     1      -8.568 -15.181  18.332  0.00  0.00    +0.000 HD
ATOM     24  H   UNL     1      -8.865 -11.710  14.909  0.00  0.00    +0.000 HD
ENDBRANCH   8  15
ENDBRANCH   2   5
BRANCH   1  25
ATOM     25  C   UNL     1      -9.129  -4.511  19.678  0.00  0.00    +0.000 C 
ATOM     26  H   UNL     1     -10.036  -4.429  20.292  0.00  0.00    +0.000 HD
BRANCH  25  31
ATOM     27  C   UNL     1      -5.532  -4.182  21.012  0.00  0.00    +0.000 A 
ATOM     28  C   UNL     1      -5.701  -3.207  21.994  0.00  0.00    +0.000 A 
ATOM     29  C   UNL     1      -6.973  -2.694  22.256  0.00  0.00    +0.000 A 
ATOM     30  C   UNL     1      -8.079  -3.141  21.531  0.00  0.00    +0.000 A 
ATOM     31  C   UNL     1      -7.930  -4.102  20.520  0.00  0.00    +0.000 A 
ATOM     32  C   UNL     1      -6.646  -4.629  20.289  0.00  0.00    +0.000 A 
ATOM     33  H   UNL     1      -4.867  -2.820  22.568  0.00  0.00    +0.000 HD
ATOM     34  H   UNL     1      -7.098  -1.930  23.019  0.00  0.00    +0.000 HD
ATOM     35  H   UNL     1      -9.057  -2.718  21.749  0.00  0.00    +0.000 HD
ATOM     36  H   UNL     1      -6.493  -5.380  19.518  0.00  0.00    +0.000 HD
BRANCH  27  37
ATOM     37  O   UNL     1      -4.345  -4.760  20.652  0.00  0.00    +0.000 OA
BRANCH  37  38
ATOM     38  C   UNL     1      -4.420  -6.004  19.963  0.00  0.00    +0.000 C 
ATOM     39  H   UNL     1      -3.407  -6.274  19.649  0.00  0.00    +0.000 HD
ATOM     40  H   UNL     1      -5.037  -5.912  19.063  0.00  0.00    +0.000 HD
ATOM     41  H   UNL     1      -4.786  -6.805  20.615  0.00  0.00    +0.000 HD
ENDBRANCH  37  38
ENDBRANCH  27  37
ENDBRANCH  25  31
BRANCH  25  42
ATOM     42  C   UNL     1      -9.311  -3.575  18.480  0.00  0.00    +0.000 C 
ATOM     43  H   UNL     1     -10.331  -3.607  18.082  0.00  0.00    +0.000 HD
ATOM     44  H   UNL     1      -8.628  -3.849  17.668  0.00  0.00    +0.000 HD
ATOM     45  H   UNL     1      -9.106  -2.534  18.754  0.00  0.00    +0.000 HD
ENDBRANCH  25  42
ENDBRANCH   1  25
TORSDOF 7
ENDMDL
MODEL 5
REMARK VINA RESULT:    -9.864      2.197      2.944
REMARK INTER + INTRA:         -14.127
REMARK INTER:                 -13.527
REMARK INTRA:                  -0.600
REMARK UNBOUND:                -0.803
REMARK  Name = 
REMARK  7 active torsions:
REMARK  status: ('A' for Active; 'I' for Inactive)
REMARK    1  A    between atoms: C_1  and  O_2
REMARK    2  A    between atoms: O_2  and  C_3
REMARK    3  A    between atoms: C_7  and  C_8
REMARK    4  A    between atoms: C_8  and  C_9
REMARK    5  A    between atoms: C_8  and  N_10
REMARK    6  A    between atoms: C_11  and  C_13
REMARK    7  A    between atoms: C_16  and  C_17
REMARK                            x       y       z     vdW  Elec       q    Type
REMARK                         _______ _______ _______ _____ _____    ______ ____
ROOT
ATOM      1  N   UNL     1      -9.604  -4.618  19.105  0.00  0.00    +0.000 N 
ATOM      2  C   UNL     1     -10.498  -5.265  18.280  0.00  0.00    +0.000 C 
ATOM      3  O   UNL     1     -11.507  -4.733  17.827  0.00  0.00    +0.000 OA
ATOM      4  H   UNL     1      -8.716  -5.045  19.321  0.00  0.00    +0.000 HD
ENDROOT
BRANCH   2   5
ATOM      5  C   UNL     1     -10.190  -6.682  17.927  0.00  0.00    +0.000 A 
ATOM      6  C   UNL     1     -10.681  -7.278  16.762  0.00  0.00    +0.000 A 
ATOM      7  C   UNL     1     -10.333  -8.599  16.446  0.00  0.00    +0.000 A 
ATOM      8  C   UNL     1      -9.494  -9.363  17.278  0.00  0.00    +0.000 A 
ATOM      9  C   UNL     1      -9.015  -8.740  18.446  0.00  0.00    +0.000 A 
ATOM     10  C   UNL     1      -9.349  -7.419  18.764  0.00  0.00    +0.000 A 
ATOM     11  H   UNL     1     -11.303  -6.727  16.064  0.00  0.00    +0.000 HD
ATOM     12  H   UNL     1     -10.716  -9.013  15.515  0.00  0.00    +0.000 HD
ATOM     13  H   UNL     1      -8.369  -9.280  19.138  0.00  0.00    +0.000 HD
ATOM     14  H   UNL     1      -8.945  -6.969  19.670  0.00  0.00    +0.000 HD
BRANCH   8  15
ATOM     15  C   UNL     1      -9.131 -10.760  16.943  0.00  0.00    +0.000 A 
ATOM     16  C   UNL     1      -9.034 -11.196  15.613  0.00  0.00    +0.000 A 
ATOM     17  C   UNL     1      -8.657 -12.505  15.344  0.00  0.00    +0.000 A 
ATOM     18  N   UNL     1      -8.383 -13.417  16.295  0.00  0.00    +0.000 NA
ATOM     19  C   UNL     1      -8.494 -12.995  17.568  0.00  0.00    +0.000 A 
ATOM     20  F   UNL     1      -8.232 -13.882  18.539  0.00  0.00    +0.000 F 
ATOM     21  C   UNL     1      -8.856 -11.709  17.936  0.00  0.00    +0.000 A 
ATOM     22  H   UNL     1      -9.253 -10.536  14.779  0.00  0.00    +0.000 HD
ATOM     23  H   UNL     1      -8.562 -12.858  14.321  0.00  0.00    +0.000 HD
ATOM     24  H   UNL     1      -8.898 -11.472  18.992  0.00  0.00    +0.000 HD
ENDBRANCH   8  15
ENDBRANCH   2   5
BRANCH   1  25
ATOM     25  C   UNL     1      -9.788  -3.225  19.487  0.00  0.00    +0.000 C 
ATOM     26  H   UNL     1     -10.821  -3.126  19.846  0.00  0.00    +0.000 HD
BRANCH  25  31
ATOM     27  C   UNL     1      -6.768  -3.176  21.875  0.00  0.00    +0.000 A 
ATOM     28  C   UNL     1      -7.023  -2.014  22.602  0.00  0.00    +0.000 A 
ATOM     29  C   UNL     1      -8.184  -1.278  22.357  0.00  0.00    +0.000 A 
ATOM     30  C   UNL     1      -9.088  -1.690  21.376  0.00  0.00    +0.000 A 
ATOM     31  C   UNL     1      -8.840  -2.841  20.613  0.00  0.00    +0.000 A 
ATOM     32  C   UNL     1      -7.680  -3.587  20.894  0.00  0.00    +0.000 A 
ATOM     33  H   UNL     1      -6.339  -1.650  23.361  0.00  0.00    +0.000 HD
ATOM     34  H   UNL     1      -8.375  -0.370  22.923  0.00  0.00    +0.000 HD
ATOM     35  H   UNL     1      -9.980  -1.093  21.198  0.00  0.00    +0.000 HD
ATOM     36  H   UNL     1      -7.458  -4.488  20.328  0.00  0.00    +0.000 HD
BRANCH  27  37
ATOM     37  O   UNL     1      -5.671  -3.982  22.011  0.00  0.00    +0.000 OA
BRANCH  37  38
ATOM     38  C   UNL     1      -4.746  -3.995  20.929  0.00  0.00    +0.000 C 
ATOM     39  H   UNL     1      -4.754  -3.002  20.469  0.00  0.00    +0.000 HD
ATOM     40  H   UNL     1      -5.050  -4.720  20.168  0.00  0.00    +0.000 HD
ATOM     41  H   UNL     1      -3.724  -4.188  21.275  0.00  0.00    +0.000 HD
ENDBRANCH  37  38
ENDBRANCH  27  37
ENDBRANCH  25  31
BRANCH  25  42
ATOM     42  C   UNL     1      -9.636  -2.283  18.289  0.00  0.00    +0.000 C 
ATOM     43  H   UNL     1      -8.599  -2.222  17.942  0.00  0.00    +0.000 HD
ATOM     44  H   UNL     1      -9.960  -1.269  18.550  0.00  0.00    +0.000 HD
ATOM     45  H   UNL     1     -10.240  -2.620  17.439  0.00  0.00    +0.000 HD
ENDBRANCH  25  42
ENDBRANCH   1  25
TORSDOF 7
ENDMDL
MODEL 6
REMARK VINA RESULT:    -9.826      4.318      6.693
REMARK INTER + INTRA:         -14.075
REMARK INTER:                 -13.250
REMARK INTRA:                  -0.826
REMARK UNBOUND:                -0.803
REMARK  Name = 
REMARK  7 active torsions:
REMARK  status: ('A' for Active; 'I' for Inactive)
REMARK    1  A    between atoms: C_1  and  O_2
REMARK    2  A    between atoms: O_2  and  C_3
REMARK    3  A    between atoms: C_7  and  C_8
REMARK    4  A    between atoms: C_8  and  C_9
REMARK    5  A    between atoms: C_8  and  N_10
REMARK    6  A    between atoms: C_11  and  C_13
REMARK    7  A    between atoms: C_16  and  C_17
REMARK                            x       y       z     vdW  Elec       q    Type
REMARK                         _______ _______ _______ _____ _____    ______ ____
ROOT
ATOM      1  N   UNL     1     -10.375  -5.483  17.163  0.00  0.00    +0.000 N 
ATOM      2  C   UNL     1      -9.321  -6.148  17.750  0.00  0.00    +0.000 C 
ATOM      3  O   UNL     1      -8.476  -5.595  18.447  0.00  0.00    +0.000 OA
ATOM      4  H   UNL     1     -11.125  -6.003  16.734  0.00  0.00    +0.000 HD
ENDROOT
BRANCH   2   5
ATOM      5  C   UNL     1      -9.236  -7.620  17.518  0.00  0.00    +0.000 A 
ATOM      6  C   UNL     1      -9.362  -8.177  16.243  0.00  0.00    +0.000 A 
ATOM      7  C   UNL     1      -9.232  -9.563  16.062  0.00  0.00    +0.000 A 
ATOM      8  C   UNL     1      -8.980 -10.429  17.142  0.00  0.00    +0.000 A 
ATOM      9  C   UNL     1      -8.859  -9.843  18.416  0.00  0.00    +0.000 A 
ATOM     10  C   UNL     1      -8.977  -8.461  18.603  0.00  0.00    +0.000 A 
ATOM     11  H   UNL     1      -9.522  -7.556  15.367  0.00  0.00    +0.000 HD
ATOM     12  H   UNL     1      -9.311  -9.950  15.048  0.00  0.00    +0.000 HD
ATOM     13  H   UNL     1      -8.674 -10.459  19.296  0.00  0.00    +0.000 HD
ATOM     14  H   UNL     1      -8.862  -8.046  19.604  0.00  0.00    +0.000 HD
BRANCH   8  15
ATOM     15  C   UNL     1      -8.848 -11.892  16.949  0.00  0.00    +0.000 A 
ATOM     16  C   UNL     1      -8.860 -12.781  18.033  0.00  0.00    +0.000 A 
ATOM     17  C   UNL     1      -8.768 -14.148  17.803  0.00  0.00    +0.000 A 
ATOM     18  N   UNL     1      -8.651 -14.696  16.580  0.00  0.00    +0.000 NA
ATOM     19  C   UNL     1      -8.625 -13.835  15.546  0.00  0.00    +0.000 A 
ATOM     20  F   UNL     1      -8.505 -14.350  14.314  0.00  0.00    +0.000 F 
ATOM     21  C   UNL     1      -8.718 -12.458  15.674  0.00  0.00    +0.000 A 
ATOM     22  H   UNL     1      -8.932 -12.431  19.058  0.00  0.00    +0.000 HD
ATOM     23  H   UNL     1      -8.789 -14.854  18.629  0.00  0.00    +0.000 HD
ATOM     24  H   UNL     1      -8.703 -11.859  14.772  0.00  0.00    +0.000 HD
ENDBRANCH   8  15
ENDBRANCH   2   5
BRANCH   1  25
ATOM     25  C   UNL     1     -10.573  -4.052  17.350  0.00  0.00    +0.000 C 
ATOM     26  H   UNL     1      -9.596  -3.626  17.613  0.00  0.00    +0.000 HD
BRANCH  25  31
ATOM     27  C   UNL     1     -11.398  -3.434  13.640  0.00  0.00    +0.000 A 
ATOM     28  C   UNL     1     -12.119  -2.243  13.723  0.00  0.00    +0.000 A 
ATOM     29  C   UNL     1     -12.298  -1.620  14.960  0.00  0.00    +0.000 A 
ATOM     30  C   UNL     1     -11.770  -2.189  16.121  0.00  0.00    +0.000 A 
ATOM     31  C   UNL     1     -11.063  -3.400  16.066  0.00  0.00    +0.000 A 
ATOM     32  C   UNL     1     -10.868  -3.998  14.808  0.00  0.00    +0.000 A 
ATOM     33  H   UNL     1     -12.561  -1.777  12.850  0.00  0.00    +0.000 HD
ATOM     34  H   UNL     1     -12.865  -0.695  15.020  0.00  0.00    +0.000 HD
ATOM     35  H   UNL     1     -11.931  -1.688  17.073  0.00  0.00    +0.000 HD
ATOM     36  H   UNL     1     -10.320  -4.933  14.725  0.00  0.00    +0.000 HD
BRANCH  27  37
ATOM     37  O   UNL     1     -11.158  -4.146  12.498  0.00  0.00    +0.000 OA
BRANCH  37  38
ATOM     38  C   UNL     1     -11.778  -3.677  11.306  0.00  0.00    +0.000 C 
ATOM     39  H   UNL     1     -11.847  -4.518  10.609  0.00  0.00    +0.000 HD
ATOM     40  H   UNL     1     -11.170  -2.898  10.833  0.00  0.00    +0.000 HD
ATOM     41  H   UNL     1     -12.798  -3.323  11.494  0.00  0.00    +0.000 HD
ENDBRANCH  37  38
ENDBRANCH  27  37
ENDBRANCH  25  31
BRANCH  25  42
ATOM     42  C   UNL     1     -11.520  -3.758  18.517  0.00  0.00    +0.000 C 
ATOM     43  H   UNL     1     -12.091  -2.836  18.362  0.00  0.00    +0.000 HD
ATOM     44  H   UNL     1     -10.960  -3.649  19.453  0.00  0.00    +0.000 HD
ATOM     45  H   UNL     1     -12.247  -4.566  18.654  0.00  0.00    +0.000 HD
ENDBRANCH  25  42
ENDBRANCH   1  25
TORSDOF 7
ENDMDL
MODEL 7
REMARK VINA RESULT:    -9.798      4.401      6.426
REMARK INTER + INTRA:         -14.037
REMARK INTER:                 -13.259
REMARK INTRA:                  -0.778
REMARK UNBOUND:                -0.803
REMARK  Name = 
REMARK  7 active torsions:
REMARK  status: ('A' for Active; 'I' for Inactive)
REMARK    1  A    between atoms: C_1  and  O_2
REMARK    2  A    between atoms: O_2  and  C_3
REMARK    3  A    between atoms: C_7  and  C_8
REMARK    4  A    between atoms: C_8  and  C_9
REMARK    5  A    between atoms: C_8  and  N_10
REMARK    6  A    between atoms: C_11  and  C_13
REMARK    7  A    between atoms: C_16  and  C_17
REMARK                            x       y       z     vdW  Elec       q    Type
REMARK                         _______ _______ _______ _____ _____    ______ ____
ROOT
ATOM      1  N   UNL     1     -10.293  -5.709  17.082  0.00  0.00    +0.000 N 
ATOM      2  C   UNL     1      -9.240  -6.315  17.731  0.00  0.00    +0.000 C 
ATOM      3  O   UNL     1      -8.440  -5.709  18.438  0.00  0.00    +0.000 OA
ATOM      4  H   UNL     1     -11.008  -6.270  16.646  0.00  0.00    +0.000 HD
ENDROOT
BRANCH   2   5
ATOM      5  C   UNL     1      -9.096  -7.791  17.556  0.00  0.00    +0.000 A 
ATOM      6  C   UNL     1      -8.889  -8.648  18.639  0.00  0.00    +0.000 A 
ATOM      7  C   UNL     1      -8.802 -10.034  18.436  0.00  0.00    +0.000 A 
ATOM      8  C   UNL     1      -8.914 -10.602  17.153  0.00  0.00    +0.000 A 
ATOM      9  C   UNL     1      -9.120  -9.716  16.079  0.00  0.00    +0.000 A 
ATOM     10  C   UNL     1      -9.218  -8.334  16.275  0.00  0.00    +0.000 A 
ATOM     11  H   UNL     1      -8.830  -8.272  19.656  0.00  0.00    +0.000 HD
ATOM     12  H   UNL     1      -8.668 -10.665  19.312  0.00  0.00    +0.000 HD
ATOM     13  H   UNL     1      -9.205 -10.090  15.059  0.00  0.00    +0.000 HD
ATOM     14  H   UNL     1      -9.392  -7.684  15.417  0.00  0.00    +0.000 HD
BRANCH   8  15
ATOM     15  C   UNL     1      -8.818 -12.065  16.941  0.00  0.00    +0.000 A 
ATOM     16  C   UNL     1      -8.852 -12.967  18.014  0.00  0.00    +0.000 A 
ATOM     17  C   UNL     1      -8.794 -14.332  17.767  0.00  0.00    +0.000 A 
ATOM     18  N   UNL     1      -8.691 -14.868  16.537  0.00  0.00    +0.000 NA
ATOM     19  C   UNL     1      -8.644 -13.994  15.514  0.00  0.00    +0.000 A 
ATOM     20  F   UNL     1      -8.537 -14.497  14.276  0.00  0.00    +0.000 F 
ATOM     21  C   UNL     1      -8.702 -12.618  15.659  0.00  0.00    +0.000 A 
ATOM     22  H   UNL     1      -8.916 -12.628  19.043  0.00  0.00    +0.000 HD
ATOM     23  H   UNL     1      -8.833 -15.048  18.583  0.00  0.00    +0.000 HD
ATOM     24  H   UNL     1      -8.673 -12.007  14.765  0.00  0.00    +0.000 HD
ENDBRANCH   8  15
ENDBRANCH   2   5
BRANCH   1  25
ATOM     25  C   UNL     1     -10.546  -4.280  17.210  0.00  0.00    +0.000 C 
ATOM     26  H   UNL     1      -9.582  -3.802  17.426  0.00  0.00    +0.000 HD
BRANCH  25  31
ATOM     27  C   UNL     1     -12.076  -1.867  14.629  0.00  0.00    +0.000 A 
ATOM     28  C   UNL     1     -11.964  -2.621  13.461  0.00  0.00    +0.000 A 
ATOM     29  C   UNL     1     -11.443  -3.916  13.514  0.00  0.00    +0.000 A 
ATOM     30  C   UNL     1     -11.019  -4.458  14.729  0.00  0.00    +0.000 A 
ATOM     31  C   UNL     1     -11.097  -3.709  15.912  0.00  0.00    +0.000 A 
ATOM     32  C   UNL     1     -11.652  -2.418  15.845  0.00  0.00    +0.000 A 
ATOM     33  H   UNL     1     -12.266  -2.232  12.496  0.00  0.00    +0.000 HD
ATOM     34  H   UNL     1     -11.353  -4.497  12.600  0.00  0.00    +0.000 HD
ATOM     35  H   UNL     1     -10.608  -5.465  14.740  0.00  0.00    +0.000 HD
ATOM     36  H   UNL     1     -11.734  -1.810  16.743  0.00  0.00    +0.000 HD
BRANCH  27  37
ATOM     37  O   UNL     1     -12.560  -0.590  14.715  0.00  0.00    +0.000 OA
BRANCH  37  38
ATOM     38  C   UNL     1     -13.537  -0.340  15.719  0.00  0.00    +0.000 C 
ATOM     39  H   UNL     1     -13.657  -1.256  16.306  0.00  0.00    +0.000 HD
ATOM     40  H   UNL     1     -14.506  -0.103  15.267  0.00  0.00    +0.000 HD
ATOM     41  H   UNL     1     -13.217   0.451  16.406  0.00  0.00    +0.000 HD
ENDBRANCH  37  38
ENDBRANCH  27  37
ENDBRANCH  25  31
BRANCH  25  42
ATOM     42  C   UNL     1     -11.475  -3.971  18.389  0.00  0.00    +0.000 C 
ATOM     43  H   UNL     1     -12.487  -3.713  18.059  0.00  0.00    +0.000 HD
ATOM     44  H   UNL     1     -11.090  -3.128  18.974  0.00  0.00    +0.000 HD
ATOM     45  H   UNL     1     -11.566  -4.832  19.060  0.00  0.00    +0.000 HD
ENDBRANCH  25  42
ENDBRANCH   1  25
TORSDOF 7
ENDMDL
MODEL 8
REMARK VINA RESULT:    -9.755      3.785      9.793
REMARK INTER + INTRA:         -13.979
REMARK INTER:                 -13.236
REMARK INTRA:                  -0.743
REMARK UNBOUND:                -0.803
REMARK  Name = 
REMARK  7 active torsions:
REMARK  status: ('A' for Active; 'I' for Inactive)
REMARK    1  A    between atoms: C_1  and  O_2
REMARK    2  A    between atoms: O_2  and  C_3
REMARK    3  A    between atoms: C_7  and  C_8
REMARK    4  A    between atoms: C_8  and  C_9
REMARK    5  A    between atoms: C_8  and  N_10
REMARK    6  A    between atoms: C_11  and  C_13
REMARK    7  A    between atoms: C_16  and  C_17
REMARK                            x       y       z     vdW  Elec       q    Type
REMARK                         _______ _______ _______ _____ _____    ______ ____
ROOT
ATOM      1  N   UNL     1      -9.463  -8.079  17.373  0.00  0.00    +0.000 N 
ATOM      2  C   UNL     1      -8.708  -6.939  17.204  0.00  0.00    +0.000 C 
ATOM      3  O   UNL     1      -8.135  -6.656  16.156  0.00  0.00    +0.000 OA
ATOM      4  H   UNL     1     -10.038  -8.187  18.194  0.00  0.00    +0.000 HD
ENDROOT
BRANCH   2   5
ATOM      5  C   UNL     1      -8.611  -6.012  18.370  0.00  0.00    +0.000 A 
ATOM      6  C   UNL     1      -7.794  -6.289  19.470  0.00  0.00    +0.000 A 
ATOM      7  C   UNL     1      -7.698  -5.371  20.526  0.00  0.00    +0.000 A 
ATOM      8  C   UNL     1      -8.412  -4.158  20.520  0.00  0.00    +0.000 A 
ATOM      9  C   UNL     1      -9.228  -3.904  19.401  0.00  0.00    +0.000 A 
ATOM     10  C   UNL     1      -9.322  -4.811  18.339  0.00  0.00    +0.000 A 
ATOM     11  H   UNL     1      -7.193  -7.192  19.515  0.00  0.00    +0.000 HD
ATOM     12  H   UNL     1      -7.029  -5.616  21.349  0.00  0.00    +0.000 HD
ATOM     13  H   UNL     1      -9.815  -2.988  19.339  0.00  0.00    +0.000 HD
ATOM     14  H   UNL     1      -9.954  -4.569  17.485  0.00  0.00    +0.000 HD
BRANCH   8  15
ATOM     15  C   UNL     1      -8.311  -3.192  21.638  0.00  0.00    +0.000 A 
ATOM     16  C   UNL     1      -8.265  -1.809  21.414  0.00  0.00    +0.000 A 
ATOM     17  C   UNL     1      -8.206  -0.938  22.493  0.00  0.00    +0.000 A 
ATOM     18  N   UNL     1      -8.174  -1.338  23.778  0.00  0.00    +0.000 NA
ATOM     19  C   UNL     1      -8.203  -2.667  23.984  0.00  0.00    +0.000 A 
ATOM     20  F   UNL     1      -8.168  -3.097  25.254  0.00  0.00    +0.000 F 
ATOM     21  C   UNL     1      -8.269  -3.613  22.974  0.00  0.00    +0.000 A 
ATOM     22  H   UNL     1      -8.268  -1.393  20.411  0.00  0.00    +0.000 HD
ATOM     23  H   UNL     1      -8.183   0.138  22.341  0.00  0.00    +0.000 HD
ATOM     24  H   UNL     1      -8.305  -4.659  23.254  0.00  0.00    +0.000 HD
ENDBRANCH   8  15
ENDBRANCH   2   5
BRANCH   1  25
ATOM     25  C   UNL     1      -9.653  -9.036  16.291  0.00  0.00    +0.000 C 
ATOM     26  H   UNL     1      -9.029  -8.699  15.454  0.00  0.00    +0.000 HD
BRANCH  25  31
ATOM     27  C   UNL     1      -8.476 -12.699  16.160  0.00  0.00    +0.000 A 
ATOM     28  C   UNL     1      -8.212 -12.942  17.507  0.00  0.00    +0.000 A 
ATOM     29  C   UNL     1      -8.456 -11.948  18.456  0.00  0.00    +0.000 A 
ATOM     30  C   UNL     1      -8.951 -10.703  18.064  0.00  0.00    +0.000 A 
ATOM     31  C   UNL     1      -9.200 -10.426  16.712  0.00  0.00    +0.000 A 
ATOM     32  C   UNL     1      -8.976 -11.449  15.772  0.00  0.00    +0.000 A 
ATOM     33  H   UNL     1      -7.811 -13.889  17.852  0.00  0.00    +0.000 HD
ATOM     34  H   UNL     1      -8.243 -12.141  19.505  0.00  0.00    +0.000 HD
ATOM     35  H   UNL     1      -9.124  -9.943  18.823  0.00  0.00    +0.000 HD
ATOM     36  H   UNL     1      -9.163 -11.274  14.716  0.00  0.00    +0.000 HD
BRANCH  27  37
ATOM     37  O   UNL     1      -8.275 -13.581  15.132  0.00  0.00    +0.000 OA
BRANCH  37  38
ATOM     38  C   UNL     1      -8.844 -14.877  15.279  0.00  0.00    +0.000 C 
ATOM     39  H   UNL     1      -8.076 -15.612  15.021  0.00  0.00    +0.000 HD
ATOM     40  H   UNL     1      -9.683 -15.012  14.588  0.00  0.00    +0.000 HD
ATOM     41  H   UNL     1      -9.149 -15.070  16.314  0.00  0.00    +0.000 HD
ENDBRANCH  37  38
ENDBRANCH  27  37
ENDBRANCH  25  31
BRANCH  25  42
ATOM     42  C   UNL     1     -11.101  -9.051  15.795  0.00  0.00    +0.000 C 
ATOM     43  H   UNL     1     -11.188  -9.475  14.788  0.00  0.00    +0.000 HD
ATOM     44  H   UNL     1     -11.511  -8.035  15.765  0.00  0.00    +0.000 HD
ATOM     45  H   UNL     1     -11.740  -9.652  16.451  0.00  0.00    +0.000 HD
ENDBRANCH  25  42
ENDBRANCH   1  25
TORSDOF 7
ENDMDL
MODEL 9
REMARK VINA RESULT:    -9.516      1.854      2.639
REMARK INTER + INTRA:         -13.657
REMARK INTER:                 -13.041
REMARK INTRA:                  -0.616
REMARK UNBOUND:                -0.803
REMARK  Name = 
REMARK  7 active torsions:
REMARK  status: ('A' for Active; 'I' for Inactive)
REMARK    1  A    between atoms: C_1  and  O_2
REMARK    2  A    between atoms: O_2  and  C_3
REMARK    3  A    between atoms: C_7  and  C_8
REMARK    4  A    between atoms: C_8  and  C_9
REMARK    5  A    between atoms: C_8  and  N_10
REMARK    6  A    between atoms: C_11  and  C_13
REMARK    7  A    between atoms: C_16  and  C_17
REMARK                            x       y       z     vdW  Elec       q    Type
REMARK                         _______ _______ _______ _____ _____    ______ ____
ROOT
ATOM      1  N   UNL     1      -9.491  -4.474  19.143  0.00  0.00    +0.000 N 
ATOM      2  C   UNL     1     -10.383  -5.212  18.395  0.00  0.00    +0.000 C 
ATOM      3  O   UNL     1     -11.452  -4.768  17.986  0.00  0.00    +0.000 OA
ATOM      4  H   UNL     1      -8.564  -4.830  19.320  0.00  0.00    +0.000 HD
ENDROOT
BRANCH   2   5
ATOM      5  C   UNL     1      -9.996  -6.617  18.072  0.00  0.00    +0.000 A 
ATOM      6  C   UNL     1      -9.171  -7.370  18.912  0.00  0.00    +0.000 A 
ATOM      7  C   UNL     1      -8.867  -8.701  18.592  0.00  0.00    +0.000 A 
ATOM      8  C   UNL     1      -9.368  -9.317  17.430  0.00  0.00    +0.000 A 
ATOM      9  C   UNL     1     -10.195  -8.536  16.600  0.00  0.00    +0.000 A 
ATOM     10  C   UNL     1     -10.512  -7.210  16.918  0.00  0.00    +0.000 A 
ATOM     11  H   UNL     1      -8.783  -6.961  19.839  0.00  0.00    +0.000 HD
ATOM     12  H   UNL     1      -8.243  -9.258  19.288  0.00  0.00    +0.000 HD
ATOM     13  H   UNL     1     -10.608  -8.949  15.680  0.00  0.00    +0.000 HD
ATOM     14  H   UNL     1     -11.167  -6.645  16.255  0.00  0.00    +0.000 HD
BRANCH   8  15
ATOM     15  C   UNL     1      -9.042 -10.722  17.093  0.00  0.00    +0.000 A 
ATOM     16  C   UNL     1      -8.914 -11.149  15.763  0.00  0.00    +0.000 A 
ATOM     17  C   UNL     1      -8.572 -12.468  15.494  0.00  0.00    +0.000 A 
ATOM     18  N   UNL     1      -8.362 -13.397  16.445  0.00  0.00    +0.000 NA
ATOM     19  C   UNL     1      -8.502 -12.983  17.718  0.00  0.00    +0.000 A 
ATOM     20  F   UNL     1      -8.303 -13.886  18.688  0.00  0.00    +0.000 F 
ATOM     21  C   UNL     1      -8.832 -11.688  18.086  0.00  0.00    +0.000 A 
ATOM     22  H   UNL     1      -9.081 -10.475  14.929  0.00  0.00    +0.000 HD
ATOM     23  H   UNL     1      -8.455 -12.815  14.472  0.00  0.00    +0.000 HD
ATOM     24  H   UNL     1      -8.902 -11.459  19.142  0.00  0.00    +0.000 HD
ENDBRANCH   8  15
ENDBRANCH   2   5
BRANCH   1  25
ATOM     25  C   UNL     1      -9.752  -3.084  19.489  0.00  0.00    +0.000 C 
ATOM     26  H   UNL     1     -10.804  -3.023  19.798  0.00  0.00    +0.000 HD
BRANCH  25  31
ATOM     27  C   UNL     1      -8.411  -1.146  22.533  0.00  0.00    +0.000 A 
ATOM     28  C   UNL     1      -7.313  -1.930  22.885  0.00  0.00    +0.000 A 
ATOM     29  C   UNL     1      -6.981  -3.049  22.118  0.00  0.00    +0.000 A 
ATOM     30  C   UNL     1      -7.749  -3.397  21.006  0.00  0.00    +0.000 A 
ATOM     31  C   UNL     1      -8.874  -2.639  20.648  0.00  0.00    +0.000 A 
ATOM     32  C   UNL     1      -9.177  -1.499  21.415  0.00  0.00    +0.000 A 
ATOM     33  H   UNL     1      -6.701  -1.705  23.751  0.00  0.00    +0.000 HD
ATOM     34  H   UNL     1      -6.127  -3.660  22.400  0.00  0.00    +0.000 HD
ATOM     35  H   UNL     1      -7.474  -4.279  20.431  0.00  0.00    +0.000 HD
ATOM     36  H   UNL     1     -10.037  -0.883  21.164  0.00  0.00    +0.000 HD
BRANCH  27  37
ATOM     37  O   UNL     1      -8.848  -0.034  23.200  0.00  0.00    +0.000 OA
BRANCH  37  38
ATOM     38  C   UNL     1      -8.838  -0.093  24.623  0.00  0.00    +0.000 C 
ATOM     39  H   UNL     1      -9.539   0.660  24.995  0.00  0.00    +0.000 HD
ATOM     40  H   UNL     1      -7.844   0.150  25.014  0.00  0.00    +0.000 HD
ATOM     41  H   UNL     1      -9.180  -1.068  24.988  0.00  0.00    +0.000 HD
ENDBRANCH  37  38
ENDBRANCH  27  37
ENDBRANCH  25  31
BRANCH  25  42
ATOM     42  C   UNL     1      -9.586  -2.158  18.280  0.00  0.00    +0.000 C 
ATOM     43  H   UNL     1     -10.550  -1.812  17.890  0.00  0.00    +0.000 HD
ATOM     44  H   UNL     1      -9.064  -2.674  17.467  0.00  0.00    +0.000 HD
ATOM     45  H   UNL     1      -9.006  -1.266  18.539  0.00  0.00    +0.000 HD
ENDBRANCH  25  42
ENDBRANCH   1  25
TORSDOF 7
ENDMDL
