REMARK  Name = 
REMARK  8 active torsions:
REMARK  status: ('A' for Active; 'I' for Inactive)
REMARK    1  A    between atoms: C_1  and  C_2
REMARK    2  A    between atoms: C_8  and  C_9
REMARK    3  A    between atoms: C_13  and  O_14
REMARK    4  A    between atoms: O_14  and  C_15
REMARK    5  A    between atoms: C_15  and  C_16
REMARK    6  A    between atoms: C_16  and  N_17
REMARK    7  A    between atoms: C_16  and  C_18
REMARK    8  A    between atoms: C_18  and  C_19
REMARK                            x       y       z     vdW  Elec       q    Type
REMARK                         _______ _______ _______ _____ _____    ______ ____
ROOT
ATOM      1  C   UNL     1       1.899   1.452   2.278  0.00  0.00    +0.000 A 
ATOM      2  C   UNL     1       2.411   0.624   3.275  0.00  0.00    +0.000 A 
ATOM      3  N   UNL     1       2.225  -0.722   3.339  0.00  0.00    +0.000 NA
ATOM      4  C   UNL     1       1.494  -1.285   2.349  0.00  0.00    +0.000 A 
ATOM      5  C   UNL     1       0.953  -0.571   1.294  0.00  0.00    +0.000 A 
ATOM      6  C   UNL     1       1.176   0.805   1.265  0.00  0.00    +0.000 A 
ATOM      7  H   UNL     1       2.998   1.036   4.094  0.00  0.00    +0.000 HD
ATOM      8  H   UNL     1       1.367  -2.356   2.453  0.00  0.00    +0.000 HD
ATOM      9  H   UNL     1       0.773   1.368   0.426  0.00  0.00    +0.000 HD
ENDROOT
BRANCH   1  16
ATOM     10  C   UNL     1       0.754   6.330   1.366  0.00  0.00    +0.000 A 
ATOM     11  N   UNL     1       1.467   7.423   1.669  0.00  0.00    +0.000 NA
ATOM     12  N   UNL     1       2.558   6.937   2.286  0.00  0.00    +0.000 N 
ATOM     13  C   UNL     1       2.579   5.575   2.392  0.00  0.00    +0.000 A 
ATOM     14  C   UNL     1       3.490   4.692   2.946  0.00  0.00    +0.000 A 
ATOM     15  N   UNL     1       3.222   3.362   2.894  0.00  0.00    +0.000 NA
ATOM     16  C   UNL     1       2.085   2.912   2.297  0.00  0.00    +0.000 A 
ATOM     17  C   UNL     1       1.138   3.775   1.742  0.00  0.00    +0.000 A 
ATOM     18  C   UNL     1       1.407   5.145   1.793  0.00  0.00    +0.000 A 
ATOM     19  H   UNL     1       3.256   7.597   2.611  0.00  0.00    +0.000 HD
ATOM     20  H   UNL     1       4.412   4.993   3.426  0.00  0.00    +0.000 HD
ATOM     21  H   UNL     1       0.219   3.414   1.297  0.00  0.00    +0.000 HD
BRANCH  10  22
ATOM     22  C   UNL     1      -0.548   6.433   0.664  0.00  0.00    +0.000 C 
ATOM     23  H   UNL     1      -0.813   7.473   0.449  0.00  0.00    +0.000 HD
ATOM     24  H   UNL     1      -1.344   5.999   1.277  0.00  0.00    +0.000 HD
ATOM     25  H   UNL     1      -0.513   5.888  -0.285  0.00  0.00    +0.000 HD
ENDBRANCH  10  22
ENDBRANCH   1  16
BRANCH   5  26
ATOM     26  O   UNL     1       0.209  -1.043   0.257  0.00  0.00    +0.000 OA
BRANCH  26  27
ATOM     27  C   UNL     1      -0.088  -2.443   0.235  0.00  0.00    +0.000 C 
ATOM     28  H   UNL     1      -0.674  -2.711   1.122  0.00  0.00    +0.000 HD
ATOM     29  H   UNL     1       0.841  -3.025   0.211  0.00  0.00    +0.000 HD
BRANCH  27  30
ATOM     30  C   UNL     1      -0.917  -2.716  -1.041  0.00  0.00    +0.000 C 
ATOM     31  H   UNL     1      -1.799  -2.064  -1.017  0.00  0.00    +0.000 HD
BRANCH  30  32
ATOM     32  N   UNL     1      -0.147  -2.328  -2.240  0.00  0.00    +0.000 NA
ATOM     33  H   UNL     1       0.680  -2.914  -2.332  0.00  0.00    +0.000 HD
ATOM     34  H   UNL     1       0.196  -1.375  -2.104  0.00  0.00    +0.000 HD
ENDBRANCH  30  32
BRANCH  30  35
ATOM     35  C   UNL     1      -1.366  -4.193  -1.087  0.00  0.00    +0.000 C 
ATOM     36  H   UNL     1      -1.972  -4.421  -0.200  0.00  0.00    +0.000 HD
ATOM     37  H   UNL     1      -0.481  -4.840  -1.023  0.00  0.00    +0.000 HD
BRANCH  35  38
ATOM     38  C   UNL     1      -2.176  -4.561  -2.311  0.00  0.00    +0.000 A 
ATOM     39  C   UNL     1      -1.713  -5.553  -3.188  0.00  0.00    +0.000 A 
ATOM     40  C   UNL     1      -2.423  -5.859  -4.350  0.00  0.00    +0.000 A 
ATOM     41  C   UNL     1      -3.605  -5.185  -4.645  0.00  0.00    +0.000 A 
ATOM     42  C   UNL     1      -4.090  -4.217  -3.768  0.00  0.00    +0.000 A 
ATOM     43  C   UNL     1      -3.384  -3.912  -2.603  0.00  0.00    +0.000 A 
ATOM     44  H   UNL     1      -0.785  -6.080  -2.983  0.00  0.00    +0.000 HD
ATOM     45  H   UNL     1      -2.043  -6.615  -5.033  0.00  0.00    +0.000 HD
ATOM     46  H   UNL     1      -4.145  -5.409  -5.561  0.00  0.00    +0.000 HD
ATOM     47  H   UNL     1      -5.011  -3.689  -3.998  0.00  0.00    +0.000 HD
ATOM     48  H   UNL     1      -3.773  -3.145  -1.938  0.00  0.00    +0.000 HD
ENDBRANCH  35  38
ENDBRANCH  30  35
ENDBRANCH  27  30
ENDBRANCH  26  27
ENDBRANCH   5  26
TORSDOF 8
