REMARK  Name = 
REMARK  6 active torsions:
REMARK  status: ('A' for Active; 'I' for Inactive)
REMARK    1  A    between atoms: C_1  and  N_2
REMARK    2  A    between atoms: C_12  and  C_13
REMARK    3  A    between atoms: C_13  and  C_14
REMARK    4  A    between atoms: C_14  and  N_15
REMARK    5  A    between atoms: N_15  and  C_16
REMARK    6  A    between atoms: C_19  and  O_20
REMARK                            x       y       z     vdW  Elec       q    Type
REMARK                         _______ _______ _______ _____ _____    ______ ____
ROOT
ATOM      1  N   UNL     1       1.224   3.465  -5.866  0.00  0.00    +0.000 N 
ATOM      2  C   UNL     1       0.195   4.385  -6.146  0.00  0.00    +0.000 A 
ATOM      3  C   UNL     1      -0.910   3.657  -5.757  0.00  0.00    +0.000 A 
ATOM      4  C   UNL     1      -0.432   3.276  -4.471  0.00  0.00    +0.000 A 
ATOM      5  C   UNL     1      -1.096   3.151  -3.247  0.00  0.00    +0.000 A 
ATOM      6  C   UNL     1      -0.482   2.465  -2.229  0.00  0.00    +0.000 A 
ATOM      7  C   UNL     1       0.664   1.741  -2.545  0.00  0.00    +0.000 A 
ATOM      8  C   UNL     1       0.987   0.715  -1.678  0.00  0.00    +0.000 A 
ATOM      9  N   UNL     1       0.625   0.426  -0.388  0.00  0.00    +0.000 N 
ATOM     10  C   UNL     1       1.510  -0.492   0.155  0.00  0.00    +0.000 A 
ATOM     11  C   UNL     1       1.704  -0.793   1.508  0.00  0.00    +0.000 A 
ATOM     12  C   UNL     1       2.648  -1.791   1.784  0.00  0.00    +0.000 A 
ATOM     13  C   UNL     1       3.331  -2.447   0.762  0.00  0.00    +0.000 A 
ATOM     14  C   UNL     1       3.121  -2.111  -0.569  0.00  0.00    +0.000 A 
ATOM     15  C   UNL     1       2.235  -1.084  -0.889  0.00  0.00    +0.000 A 
ATOM     16  C   UNL     1       1.827  -0.322  -1.999  0.00  0.00    +0.000 A 
ATOM     17  C   UNL     1       2.612  -0.225  -3.175  0.00  0.00    +0.000 A 
ATOM     18  C   UNL     1       2.608   1.095  -3.738  0.00  0.00    +0.000 A 
ATOM     19  C   UNL     1       1.476   1.941  -3.705  0.00  0.00    +0.000 A 
ATOM     20  C   UNL     1       0.920   2.844  -4.657  0.00  0.00    +0.000 A 
ATOM     21  C   UNL     1       4.028   1.406  -3.691  0.00  0.00    +0.000 C 
ATOM     22  O   UNL     1       4.635   2.421  -3.371  0.00  0.00    +0.000 OA
ATOM     23  N   UNL     1       4.644   0.167  -3.750  0.00  0.00    +0.000 N 
ATOM     24  C   UNL     1       3.805  -0.885  -3.503  0.00  0.00    +0.000 C 
ATOM     25  O   UNL     1       4.163  -2.064  -3.546  0.00  0.00    +0.000 OA
ATOM     26  H   UNL     1       0.423   5.418  -5.896  0.00  0.00    +0.000 HD
ATOM     27  H   UNL     1      -1.290   2.869  -6.414  0.00  0.00    +0.000 HD
ATOM     28  H   UNL     1      -2.095   3.553  -3.120  0.00  0.00    +0.000 HD
ATOM     29  H   UNL     1      -0.995   2.375  -1.281  0.00  0.00    +0.000 HD
ATOM     30  H   UNL     1       0.006   0.997   0.163  0.00  0.00    +0.000 HD
ATOM     31  H   UNL     1       2.841  -2.080   2.816  0.00  0.00    +0.000 HD
ATOM     32  H   UNL     1       4.047  -3.229   1.007  0.00  0.00    +0.000 HD
ATOM     33  H   UNL     1       3.689  -2.636  -1.342  0.00  0.00    +0.000 HD
ATOM     34  H   UNL     1       5.615   0.051  -3.498  0.00  0.00    +0.000 HD
ENDROOT
BRANCH   1  35
ATOM     35  C   UNL     1       2.392   3.484  -6.709  0.00  0.00    +0.000 C 
ATOM     36  H   UNL     1       2.591   2.474  -7.066  0.00  0.00    +0.000 HD
ATOM     37  H   UNL     1       3.227   3.932  -6.174  0.00  0.00    +0.000 HD
ATOM     38  H   UNL     1       2.160   4.111  -7.584  0.00  0.00    +0.000 HD
ENDBRANCH   1  35
BRANCH  11  39
ATOM     39  C   UNL     1       0.887  -0.142   2.598  0.00  0.00    +0.000 C 
ATOM     40  H   UNL     1       0.684   0.905   2.333  0.00  0.00    +0.000 HD
ATOM     41  H   UNL     1       1.454  -0.115   3.535  0.00  0.00    +0.000 HD
BRANCH  39  42
ATOM     42  C   UNL     1      -0.414  -0.935   2.741  0.00  0.00    +0.000 C 
ATOM     43  H   UNL     1      -0.122  -1.959   3.004  0.00  0.00    +0.000 HD
ATOM     44  H   UNL     1      -0.934  -0.967   1.772  0.00  0.00    +0.000 HD
BRANCH  42  45
ATOM     45  N   UNL     1      -1.326  -0.383   3.757  0.00  0.00    +0.000 NA
ATOM     46  H   UNL     1      -1.585   0.573   3.500  0.00  0.00    +0.000 HD
BRANCH  45  47
ATOM     47  C   UNL     1      -2.536  -1.210   3.886  0.00  0.00    +0.000 C 
ATOM     48  C   UNL     1      -2.208  -2.634   4.372  0.00  0.00    +0.000 C 
ATOM     49  C   UNL     1      -3.458  -3.465   4.630  0.00  0.00    +0.000 C 
ATOM     50  C   UNL     1      -4.381  -2.764   5.617  0.00  0.00    +0.000 C 
ATOM     51  C   UNL     1      -4.761  -1.376   5.106  0.00  0.00    +0.000 C 
ATOM     52  C   UNL     1      -3.519  -0.520   4.845  0.00  0.00    +0.000 C 
ATOM     53  H   UNL     1      -3.021  -1.279   2.901  0.00  0.00    +0.000 HD
ATOM     54  H   UNL     1      -1.608  -2.584   5.290  0.00  0.00    +0.000 HD
ATOM     55  H   UNL     1      -1.612  -3.175   3.629  0.00  0.00    +0.000 HD
ATOM     56  H   UNL     1      -3.171  -4.449   5.014  0.00  0.00    +0.000 HD
ATOM     57  H   UNL     1      -3.996  -3.656   3.689  0.00  0.00    +0.000 HD
ATOM     58  H   UNL     1      -3.880  -2.676   6.590  0.00  0.00    +0.000 HD
ATOM     59  H   UNL     1      -5.420  -0.882   5.827  0.00  0.00    +0.000 HD
ATOM     60  H   UNL     1      -5.350  -1.471   4.184  0.00  0.00    +0.000 HD
ATOM     61  H   UNL     1      -3.023  -0.305   5.801  0.00  0.00    +0.000 HD
ATOM     62  H   UNL     1      -3.830   0.446   4.425  0.00  0.00    +0.000 HD
BRANCH  50  63
ATOM     63  O   UNL     1      -5.550  -3.547   5.813  0.00  0.00    +0.000 OA
ATOM     64  H   UNL     1      -5.972  -3.687   4.949  0.00  0.00    +0.000 HD
ENDBRANCH  50  63
ENDBRANCH  45  47
ENDBRANCH  42  45
ENDBRANCH  39  42
ENDBRANCH  11  39
TORSDOF 6
