REMARK  Name = 
REMARK  3 active torsions:
REMARK  status: ('A' for Active; 'I' for Inactive)
REMARK    1  A    between atoms: C_5  and  C_6
REMARK    2  A    between atoms: C_6  and  C_7
REMARK    3  A    between atoms: C_10  and  C_11
REMARK                            x       y       z     vdW  Elec       q    Type
REMARK                         _______ _______ _______ _____ _____    ______ ____
ROOT
ATOM      1  C   UNL     1      -0.366   1.894  -0.232  0.00  0.00    +0.000 C 
ATOM      2  C   UNL     1       0.177   2.649   1.034  0.00  0.00    +0.000 C 
ATOM      3  C   UNL     1       0.014   4.163   1.002  0.00  0.00    +0.000 C 
ATOM      4  N   UNL     1       0.606   4.765  -0.186  0.00  0.00    +0.000 NA
ATOM      5  C   UNL     1       0.063   4.175  -1.404  0.00  0.00    +0.000 C 
ATOM      6  C   UNL     1       0.259   2.664  -1.448  0.00  0.00    +0.000 C 
ATOM      7  H   UNL     1       1.252   2.439   1.141  0.00  0.00    +0.000 HD
ATOM      8  H   UNL     1      -0.276   2.285   1.963  0.00  0.00    +0.000 HD
ATOM      9  H   UNL     1       0.528   4.577   1.879  0.00  0.00    +0.000 HD
ATOM     10  H   UNL     1      -1.038   4.449   1.099  0.00  0.00    +0.000 HD
ATOM     11  H   UNL     1       1.617   4.624  -0.167  0.00  0.00    +0.000 HD
ATOM     12  H   UNL     1       0.595   4.616  -2.256  0.00  0.00    +0.000 HD
ATOM     13  H   UNL     1      -0.992   4.446  -1.527  0.00  0.00    +0.000 HD
ATOM     14  H   UNL     1       1.340   2.469  -1.482  0.00  0.00    +0.000 HD
ATOM     15  H   UNL     1      -0.120   2.307  -2.412  0.00  0.00    +0.000 HD
ENDROOT
BRANCH   1  20
ATOM     16 CL   UNL     1      -6.475   1.524  -0.499  0.00  0.00    +0.000 Cl
ATOM     17  C   UNL     1      -4.761   1.656  -0.425  0.00  0.00    +0.000 A 
ATOM     18  C   UNL     1      -4.122   1.742   0.802  0.00  0.00    +0.000 A 
ATOM     19  C   UNL     1      -2.721   1.822   0.865  0.00  0.00    +0.000 A 
ATOM     20  C   UNL     1      -1.924   1.838  -0.298  0.00  0.00    +0.000 A 
ATOM     21  C   UNL     1      -2.613   1.750  -1.529  0.00  0.00    +0.000 A 
ATOM     22  C   UNL     1      -4.012   1.663  -1.592  0.00  0.00    +0.000 A 
ATOM     23  H   UNL     1      -4.701   1.739   1.723  0.00  0.00    +0.000 HD
ATOM     24  H   UNL     1      -2.282   1.862   1.857  0.00  0.00    +0.000 HD
ATOM     25  H   UNL     1      -2.084   1.737  -2.476  0.00  0.00    +0.000 HD
ATOM     26  H   UNL     1      -4.504   1.593  -2.562  0.00  0.00    +0.000 HD
ENDBRANCH   1  20
BRANCH   1  27
ATOM     27  C   UNL     1       0.219   0.443  -0.213  0.00  0.00    +0.000 A 
ATOM     28  C   UNL     1       0.555  -0.238  -1.396  0.00  0.00    +0.000 A 
ATOM     29  C   UNL     1       1.208  -1.480  -1.372  0.00  0.00    +0.000 A 
ATOM     30  C   UNL     1       1.513  -2.121  -0.165  0.00  0.00    +0.000 A 
ATOM     31  C   UNL     1       1.155  -1.454   1.015  0.00  0.00    +0.000 A 
ATOM     32  C   UNL     1       0.507  -0.214   0.995  0.00  0.00    +0.000 A 
ATOM     33  H   UNL     1       0.339   0.187  -2.372  0.00  0.00    +0.000 HD
ATOM     34  H   UNL     1       1.472  -1.954  -2.316  0.00  0.00    +0.000 HD
ATOM     35  H   UNL     1       1.381  -1.891   1.986  0.00  0.00    +0.000 HD
ATOM     36  H   UNL     1       0.266   0.222   1.959  0.00  0.00    +0.000 HD
BRANCH  30  37
ATOM     37  C   UNL     1       2.140  -3.448  -0.140  0.00  0.00    +0.000 A 
ATOM     38  N   UNL     1       2.973  -3.819  -1.160  0.00  0.00    +0.000 NA
ATOM     39  C   UNL     1       3.512  -5.057  -1.124  0.00  0.00    +0.000 A 
ATOM     40  N   UNL     1       3.329  -6.021  -0.197  0.00  0.00    +0.000 NA
ATOM     41  C   UNL     1       2.497  -5.606   0.762  0.00  0.00    +0.000 A 
ATOM     42  N   UNL     1       2.068  -6.322   1.846  0.00  0.00    +0.000 N 
ATOM     43  C   UNL     1       1.218  -5.522   2.562  0.00  0.00    +0.000 A 
ATOM     44  N   UNL     1       1.081  -4.343   2.007  0.00  0.00    +0.000 NA
ATOM     45  C   UNL     1       1.872  -4.373   0.878  0.00  0.00    +0.000 A 
ATOM     46  H   UNL     1       4.176  -5.310  -1.947  0.00  0.00    +0.000 HD
ATOM     47  H   UNL     1       2.330  -7.271   2.056  0.00  0.00    +0.000 HD
ATOM     48  H   UNL     1       0.729  -5.853   3.468  0.00  0.00    +0.000 HD
ENDBRANCH  30  37
ENDBRANCH   1  27
TORSDOF 3
