MODEL 1
REMARK VINA RESULT:   -10.966      0.000      0.000
REMARK INTER + INTRA:         -12.249
REMARK INTER:                 -12.249
REMARK INTRA:                   0.000
REMARK UNBOUND:                 0.000
REMARK  Name = 
REMARK  4 active torsions:
REMARK  status: ('A' for Active; 'I' for Inactive)
REMARK    1  A    between atoms: C_5  and  O_6
REMARK    2  A    between atoms: C_7  and  O_8
REMARK    3  A    between atoms: C_15  and  O_16
REMARK    4  A    between atoms: C_17  and  O_18
REMARK                            x       y       z     vdW  Elec       q    Type
REMARK                         _______ _______ _______ _____ _____    ______ ____
ROOT
ATOM      1  O   UNL     1      -9.237  -9.627  13.732  0.00  0.00    +0.000 OA
ATOM      2  C   UNL     1      -9.148  -9.448  14.940  0.00  0.00    +0.000 A 
ATOM      3  O   UNL     1      -9.244  -8.167  15.499  0.00  0.00    +0.000 OA
ATOM      4  C   UNL     1      -9.145  -7.923  16.886  0.00  0.00    +0.000 A 
ATOM      5  C   UNL     1      -9.251  -6.619  17.354  0.00  0.00    +0.000 A 
ATOM      6  C   UNL     1      -9.152  -6.378  18.721  0.00  0.00    +0.000 A 
ATOM      7  C   UNL     1      -8.949  -7.420  19.620  0.00  0.00    +0.000 A 
ATOM      8  C   UNL     1      -8.844  -8.730  19.137  0.00  0.00    +0.000 A 
ATOM      9  C   UNL     1      -8.627  -9.858  20.079  0.00  0.00    +0.000 A 
ATOM     10  O   UNL     1      -8.536  -9.680  21.288  0.00  0.00    +0.000 OA
ATOM     11  O   UNL     1      -8.533 -11.135  19.523  0.00  0.00    +0.000 OA
ATOM     12  C   UNL     1      -8.634 -11.374  18.137  0.00  0.00    +0.000 A 
ATOM     13  C   UNL     1      -8.530 -12.681  17.678  0.00  0.00    +0.000 A 
ATOM     14  C   UNL     1      -8.628 -12.930  16.313  0.00  0.00    +0.000 A 
ATOM     15  C   UNL     1      -8.827 -11.890  15.408  0.00  0.00    +0.000 A 
ATOM     16  C   UNL     1      -8.933 -10.576  15.884  0.00  0.00    +0.000 A 
ATOM     17  C   UNL     1      -8.836 -10.319  17.254  0.00  0.00    +0.000 A 
ATOM     18  C   UNL     1      -8.940  -8.982  17.765  0.00  0.00    +0.000 A 
ATOM     19  H   UNL     1      -8.874  -7.209  20.686  0.00  0.00    +0.000 HD
ATOM     20  H   UNL     1      -8.900 -12.108  14.344  0.00  0.00    +0.000 HD
ENDROOT
BRANCH   5  21
ATOM     21  O   UNL     1      -9.450  -5.551  16.524  0.00  0.00    +0.000 OA
ATOM     22  H   UNL     1      -9.992  -4.899  17.009  0.00  0.00    +0.000 HD
ENDBRANCH   5  21
BRANCH   6  23
ATOM     23  O   UNL     1      -9.253  -5.106  19.205  0.00  0.00    +0.000 OA
ATOM     24  H   UNL     1      -8.498  -4.996  19.815  0.00  0.00    +0.000 HD
ENDBRANCH   6  23
BRANCH  13  25
ATOM     25  O   UNL     1      -8.332 -13.735  18.523  0.00  0.00    +0.000 OA
ATOM     26  H   UNL     1      -9.060 -13.725  19.175  0.00  0.00    +0.000 HD
ENDBRANCH  13  25
BRANCH  14  27
ATOM     27  O   UNL     1      -8.529 -14.206  15.841  0.00  0.00    +0.000 OA
ATOM     28  H   UNL     1      -9.185 -14.273  15.119  0.00  0.00    +0.000 HD
ENDBRANCH  14  27
TORSDOF 4
ENDMDL
MODEL 2
REMARK VINA RESULT:   -10.961      0.040      6.257
REMARK INTER + INTRA:         -12.242
REMARK INTER:                 -12.242
REMARK INTRA:                   0.000
REMARK UNBOUND:                 0.000
REMARK  Name = 
REMARK  4 active torsions:
REMARK  status: ('A' for Active; 'I' for Inactive)
REMARK    1  A    between atoms: C_5  and  O_6
REMARK    2  A    between atoms: C_7  and  O_8
REMARK    3  A    between atoms: C_15  and  O_16
REMARK    4  A    between atoms: C_17  and  O_18
REMARK                            x       y       z     vdW  Elec       q    Type
REMARK                         _______ _______ _______ _____ _____    ______ ____
ROOT
ATOM      1  O   UNL     1      -8.502  -9.636  21.293  0.00  0.00    +0.000 OA
ATOM      2  C   UNL     1      -8.604  -9.823  20.088  0.00  0.00    +0.000 A 
ATOM      3  O   UNL     1      -8.527 -11.109  19.538  0.00  0.00    +0.000 OA
ATOM      4  C   UNL     1      -8.640 -11.362  18.153  0.00  0.00    +0.000 A 
ATOM      5  C   UNL     1      -8.549 -12.671  17.694  0.00  0.00    +0.000 A 
ATOM      6  C   UNL     1      -8.660 -12.920  16.329  0.00  0.00    +0.000 A 
ATOM      7  C   UNL     1      -8.858 -11.883  15.424  0.00  0.00    +0.000 A 
ATOM      8  C   UNL     1      -8.948 -10.569  15.899  0.00  0.00    +0.000 A 
ATOM      9  C   UNL     1      -9.159  -9.445  14.949  0.00  0.00    +0.000 A 
ATOM     10  O   UNL     1      -9.260  -9.631  13.743  0.00  0.00    +0.000 OA
ATOM     11  O   UNL     1      -9.238  -8.164  15.498  0.00  0.00    +0.000 OA
ATOM     12  C   UNL     1      -9.126  -7.915  16.881  0.00  0.00    +0.000 A 
ATOM     13  C   UNL     1      -9.220  -6.605  17.332  0.00  0.00    +0.000 A 
ATOM     14  C   UNL     1      -9.111  -6.347  18.694  0.00  0.00    +0.000 A 
ATOM     15  C   UNL     1      -8.909  -7.382  19.605  0.00  0.00    +0.000 A 
ATOM     16  C   UNL     1      -8.818  -8.700  19.137  0.00  0.00    +0.000 A 
ATOM     17  C   UNL     1      -8.927  -8.966  17.770  0.00  0.00    +0.000 A 
ATOM     18  C   UNL     1      -8.836 -10.307  17.267  0.00  0.00    +0.000 A 
ATOM     19  H   UNL     1      -8.941 -12.101  14.360  0.00  0.00    +0.000 HD
ATOM     20  H   UNL     1      -8.826  -7.156  20.666  0.00  0.00    +0.000 HD
ENDROOT
BRANCH   5  21
ATOM     21  O   UNL     1      -8.355 -13.734  18.530  0.00  0.00    +0.000 OA
ATOM     22  H   UNL     1      -9.235 -14.062  18.800  0.00  0.00    +0.000 HD
ENDBRANCH   5  21
BRANCH   6  23
ATOM     23  O   UNL     1      -8.575 -14.197  15.854  0.00  0.00    +0.000 OA
ATOM     24  H   UNL     1      -8.970 -14.762  16.547  0.00  0.00    +0.000 HD
ENDBRANCH   6  23
BRANCH  13  25
ATOM     25  O   UNL     1      -9.416  -5.555  16.480  0.00  0.00    +0.000 OA
ATOM     26  H   UNL     1      -8.590  -5.034  16.467  0.00  0.00    +0.000 HD
ENDBRANCH  13  25
BRANCH  14  27
ATOM     27  O   UNL     1      -9.202  -5.067  19.158  0.00  0.00    +0.000 OA
ATOM     28  H   UNL     1      -8.375  -4.626  18.879  0.00  0.00    +0.000 HD
ENDBRANCH  14  27
TORSDOF 4
ENDMDL
MODEL 3
REMARK VINA RESULT:    -9.752      1.056      5.065
REMARK INTER + INTRA:         -10.892
REMARK INTER:                 -10.892
REMARK INTRA:                   0.000
REMARK UNBOUND:                 0.000
REMARK  Name = 
REMARK  4 active torsions:
REMARK  status: ('A' for Active; 'I' for Inactive)
REMARK    1  A    between atoms: C_5  and  O_6
REMARK    2  A    between atoms: C_7  and  O_8
REMARK    3  A    between atoms: C_15  and  O_16
REMARK    4  A    between atoms: C_17  and  O_18
REMARK                            x       y       z     vdW  Elec       q    Type
REMARK                         _______ _______ _______ _____ _____    ______ ____
ROOT
ATOM      1  O   UNL     1      -9.399  -9.616  13.477  0.00  0.00    +0.000 OA
ATOM      2  C   UNL     1      -9.211  -9.864  14.660  0.00  0.00    +0.000 A 
ATOM      3  O   UNL     1      -9.021 -11.176  15.111  0.00  0.00    +0.000 OA
ATOM      4  C   UNL     1      -8.803 -11.500  16.468  0.00  0.00    +0.000 A 
ATOM      5  C   UNL     1      -8.624 -12.831  16.827  0.00  0.00    +0.000 A 
ATOM      6  C   UNL     1      -8.410 -13.150  18.165  0.00  0.00    +0.000 A 
ATOM      7  C   UNL     1      -8.373 -12.160  19.141  0.00  0.00    +0.000 A 
ATOM      8  C   UNL     1      -8.554 -10.823  18.768  0.00  0.00    +0.000 A 
ATOM      9  C   UNL     1      -8.518  -9.750  19.795  0.00  0.00    +0.000 A 
ATOM     10  O   UNL     1      -8.332  -9.998  20.979  0.00  0.00    +0.000 OA
ATOM     11  O   UNL     1      -8.707  -8.442  19.345  0.00  0.00    +0.000 OA
ATOM     12  C   UNL     1      -8.923  -8.122  17.989  0.00  0.00    +0.000 A 
ATOM     13  C   UNL     1      -9.098  -6.790  17.639  0.00  0.00    +0.000 A 
ATOM     14  C   UNL     1      -9.312  -6.462  16.304  0.00  0.00    +0.000 A 
ATOM     15  C   UNL     1      -9.354  -7.449  15.322  0.00  0.00    +0.000 A 
ATOM     16  C   UNL     1      -9.174  -8.791  15.688  0.00  0.00    +0.000 A 
ATOM     17  C   UNL     1      -8.957  -9.126  17.027  0.00  0.00    +0.000 A 
ATOM     18  C   UNL     1      -8.771 -10.492  17.427  0.00  0.00    +0.000 A 
ATOM     19  H   UNL     1      -8.204 -12.433  20.182  0.00  0.00    +0.000 HD
ATOM     20  H   UNL     1      -9.524  -7.170  14.284  0.00  0.00    +0.000 HD
ENDROOT
BRANCH   5  21
ATOM     21  O   UNL     1      -8.649 -13.850  15.917  0.00  0.00    +0.000 OA
ATOM     22  H   UNL     1      -8.937 -14.657  16.387  0.00  0.00    +0.000 HD
ENDBRANCH   5  21
BRANCH   6  23
ATOM     23  O   UNL     1      -8.231 -14.450  18.541  0.00  0.00    +0.000 OA
ATOM     24  H   UNL     1      -7.483 -14.440  19.170  0.00  0.00    +0.000 HD
ENDBRANCH   6  23
BRANCH  13  25
ATOM     25  O   UNL     1      -9.068  -5.785  18.563  0.00  0.00    +0.000 OA
ATOM     26  H   UNL     1      -8.492  -6.081  19.295  0.00  0.00    +0.000 HD
ENDBRANCH  13  25
BRANCH  14  27
ATOM     27  O   UNL     1      -9.485  -5.159  15.938  0.00  0.00    +0.000 OA
ATOM     28  H   UNL     1     -10.341  -4.888  16.327  0.00  0.00    +0.000 HD
ENDBRANCH  14  27
TORSDOF 4
ENDMDL
MODEL 4
REMARK VINA RESULT:    -9.747      1.034      3.698
REMARK INTER + INTRA:         -10.887
REMARK INTER:                 -10.887
REMARK INTRA:                   0.000
REMARK UNBOUND:                 0.000
REMARK  Name = 
REMARK  4 active torsions:
REMARK  status: ('A' for Active; 'I' for Inactive)
REMARK    1  A    between atoms: C_5  and  O_6
REMARK    2  A    between atoms: C_7  and  O_8
REMARK    3  A    between atoms: C_15  and  O_16
REMARK    4  A    between atoms: C_17  and  O_18
REMARK                            x       y       z     vdW  Elec       q    Type
REMARK                         _______ _______ _______ _____ _____    ______ ____
ROOT
ATOM      1  O   UNL     1      -8.475 -10.000  21.012  0.00  0.00    +0.000 OA
ATOM      2  C   UNL     1      -8.635  -9.737  19.828  0.00  0.00    +0.000 A 
ATOM      3  O   UNL     1      -8.821  -8.420  19.389  0.00  0.00    +0.000 OA
ATOM      4  C   UNL     1      -9.009  -8.080  18.031  0.00  0.00    +0.000 A 
ATOM      5  C   UNL     1      -9.188  -6.746  17.686  0.00  0.00    +0.000 A 
ATOM      6  C   UNL     1      -9.375  -6.411  16.347  0.00  0.00    +0.000 A 
ATOM      7  C   UNL     1      -9.385  -7.389  15.358  0.00  0.00    +0.000 A 
ATOM      8  C   UNL     1      -9.203  -8.729  15.718  0.00  0.00    +0.000 A 
ATOM      9  C   UNL     1      -9.211  -9.790  14.678  0.00  0.00    +0.000 A 
ATOM     10  O   UNL     1      -9.373  -9.528  13.492  0.00  0.00    +0.000 OA
ATOM     11  O   UNL     1      -9.024 -11.102  15.115  0.00  0.00    +0.000 OA
ATOM     12  C   UNL     1      -8.835 -11.438  16.471  0.00  0.00    +0.000 A 
ATOM     13  C   UNL     1      -8.654 -12.773  16.808  0.00  0.00    +0.000 A 
ATOM     14  C   UNL     1      -8.467 -13.116  18.143  0.00  0.00    +0.000 A 
ATOM     15  C   UNL     1      -8.459 -12.142  19.138  0.00  0.00    +0.000 A 
ATOM     16  C   UNL     1      -8.641 -10.797  18.785  0.00  0.00    +0.000 A 
ATOM     17  C   UNL     1      -8.828 -10.446  17.446  0.00  0.00    +0.000 A 
ATOM     18  C   UNL     1      -9.017  -9.076  17.060  0.00  0.00    +0.000 A 
ATOM     19  H   UNL     1      -9.533  -7.104  14.317  0.00  0.00    +0.000 HD
ATOM     20  H   UNL     1      -8.312 -12.433  20.176  0.00  0.00    +0.000 HD
ENDROOT
BRANCH   5  21
ATOM     21  O   UNL     1      -9.189  -5.739  18.608  0.00  0.00    +0.000 OA
ATOM     22  H   UNL     1     -10.079  -5.709  19.011  0.00  0.00    +0.000 HD
ENDBRANCH   5  21
BRANCH   6  23
ATOM     23  O   UNL     1      -9.552  -5.108  15.983  0.00  0.00    +0.000 OA
ATOM     24  H   UNL     1      -9.429  -4.587  16.801  0.00  0.00    +0.000 HD
ENDBRANCH   6  23
BRANCH  13  25
ATOM     25  O   UNL     1      -8.655 -13.766  15.871  0.00  0.00    +0.000 OA
ATOM     26  H   UNL     1      -8.175 -14.526  16.253  0.00  0.00    +0.000 HD
ENDBRANCH  13  25
BRANCH  14  27
ATOM     27  O   UNL     1      -8.286 -14.422  18.495  0.00  0.00    +0.000 OA
ATOM     28  H   UNL     1      -8.194 -14.422  19.469  0.00  0.00    +0.000 HD
ENDBRANCH  14  27
TORSDOF 4
ENDMDL
MODEL 5
REMARK VINA RESULT:    -8.965      1.282      3.793
REMARK INTER + INTRA:         -10.013
REMARK INTER:                 -10.013
REMARK INTRA:                   0.000
REMARK UNBOUND:                 0.000
REMARK  Name = 
REMARK  4 active torsions:
REMARK  status: ('A' for Active; 'I' for Inactive)
REMARK    1  A    between atoms: C_5  and  O_6
REMARK    2  A    between atoms: C_7  and  O_8
REMARK    3  A    between atoms: C_15  and  O_16
REMARK    4  A    between atoms: C_17  and  O_18
REMARK                            x       y       z     vdW  Elec       q    Type
REMARK                         _______ _______ _______ _____ _____    ______ ____
ROOT
ATOM      1  O   UNL     1      -8.275 -10.255  21.400  0.00  0.00    +0.000 OA
ATOM      2  C   UNL     1      -8.449  -9.573  20.399  0.00  0.00    +0.000 A 
ATOM      3  O   UNL     1      -8.487  -8.174  20.464  0.00  0.00    +0.000 OA
ATOM      4  C   UNL     1      -8.686  -7.355  19.331  0.00  0.00    +0.000 A 
ATOM      5  C   UNL     1      -8.711  -5.974  19.488  0.00  0.00    +0.000 A 
ATOM      6  C   UNL     1      -8.909  -5.168  18.371  0.00  0.00    +0.000 A 
ATOM      7  C   UNL     1      -9.082  -5.722  17.107  0.00  0.00    +0.000 A 
ATOM      8  C   UNL     1      -9.055  -7.114  16.961  0.00  0.00    +0.000 A 
ATOM      9  C   UNL     1      -9.237  -7.728  15.621  0.00  0.00    +0.000 A 
ATOM     10  O   UNL     1      -9.414  -7.046  14.618  0.00  0.00    +0.000 OA
ATOM     11  O   UNL     1      -9.198  -9.121  15.555  0.00  0.00    +0.000 OA
ATOM     12  C   UNL     1      -8.997  -9.935  16.688  0.00  0.00    +0.000 A 
ATOM     13  C   UNL     1      -8.971 -11.314  16.522  0.00  0.00    +0.000 A 
ATOM     14  C   UNL     1      -8.774 -12.127  17.633  0.00  0.00    +0.000 A 
ATOM     15  C   UNL     1      -8.604 -11.578  18.902  0.00  0.00    +0.000 A 
ATOM     16  C   UNL     1      -8.630 -10.185  19.056  0.00  0.00    +0.000 A 
ATOM     17  C   UNL     1      -8.827  -9.362  17.944  0.00  0.00    +0.000 A 
ATOM     18  C   UNL     1      -8.858  -7.933  18.077  0.00  0.00    +0.000 A 
ATOM     19  H   UNL     1      -9.235  -5.072  16.247  0.00  0.00    +0.000 HD
ATOM     20  H   UNL     1      -8.452 -12.234  19.757  0.00  0.00    +0.000 HD
ENDROOT
BRANCH   5  21
ATOM     21  O   UNL     1      -8.548  -5.367  20.701  0.00  0.00    +0.000 OA
ATOM     22  H   UNL     1      -7.612  -5.475  20.962  0.00  0.00    +0.000 HD
ENDBRANCH   5  21
BRANCH   6  23
ATOM     23  O   UNL     1      -8.936  -3.809  18.501  0.00  0.00    +0.000 OA
ATOM     24  H   UNL     1      -9.733  -3.612  19.031  0.00  0.00    +0.000 HD
ENDBRANCH   6  23
BRANCH  13  25
ATOM     25  O   UNL     1      -9.135 -11.902  15.301  0.00  0.00    +0.000 OA
ATOM     26  H   UNL     1      -8.849 -12.833  15.386  0.00  0.00    +0.000 HD
ENDBRANCH  13  25
BRANCH  14  27
ATOM     27  O   UNL     1      -8.744 -13.484  17.491  0.00  0.00    +0.000 OA
ATOM     28  H   UNL     1      -8.201 -13.815  18.234  0.00  0.00    +0.000 HD
ENDBRANCH  14  27
TORSDOF 4
ENDMDL
MODEL 6
REMARK VINA RESULT:    -8.950      1.298      5.222
REMARK INTER + INTRA:          -9.997
REMARK INTER:                  -9.997
REMARK INTRA:                   0.000
REMARK UNBOUND:                 0.000
REMARK  Name = 
REMARK  4 active torsions:
REMARK  status: ('A' for Active; 'I' for Inactive)
REMARK    1  A    between atoms: C_5  and  O_6
REMARK    2  A    between atoms: C_7  and  O_8
REMARK    3  A    between atoms: C_15  and  O_16
REMARK    4  A    between atoms: C_17  and  O_18
REMARK                            x       y       z     vdW  Elec       q    Type
REMARK                         _______ _______ _______ _____ _____    ______ ____
ROOT
ATOM      1  O   UNL     1      -9.279  -7.097  14.651  0.00  0.00    +0.000 OA
ATOM      2  C   UNL     1      -9.123  -7.773  15.659  0.00  0.00    +0.000 A 
ATOM      3  O   UNL     1      -9.083  -9.173  15.602  0.00  0.00    +0.000 OA
ATOM      4  C   UNL     1      -8.907  -9.985  16.744  0.00  0.00    +0.000 A 
ATOM      5  C   UNL     1      -8.881 -11.366  16.594  0.00  0.00    +0.000 A 
ATOM      6  C   UNL     1      -8.707 -12.167  17.720  0.00  0.00    +0.000 A 
ATOM      7  C   UNL     1      -8.561 -11.605  18.984  0.00  0.00    +0.000 A 
ATOM      8  C   UNL     1      -8.588 -10.212  19.122  0.00  0.00    +0.000 A 
ATOM      9  C   UNL     1      -8.433  -9.591  20.462  0.00  0.00    +0.000 A 
ATOM     10  O   UNL     1      -8.279 -10.267  21.472  0.00  0.00    +0.000 OA
ATOM     11  O   UNL     1      -8.470  -8.197  20.519  0.00  0.00    +0.000 OA
ATOM     12  C   UNL     1      -8.646  -7.389  19.377  0.00  0.00    +0.000 A 
ATOM     13  C   UNL     1      -8.668  -6.010  19.534  0.00  0.00    +0.000 A 
ATOM     14  C   UNL     1      -8.841  -5.203  18.414  0.00  0.00    +0.000 A 
ATOM     15  C   UNL     1      -8.992  -5.759  17.146  0.00  0.00    +0.000 A 
ATOM     16  C   UNL     1      -8.966  -7.153  17.001  0.00  0.00    +0.000 A 
ATOM     17  C   UNL     1      -8.792  -7.970  18.121  0.00  0.00    +0.000 A 
ATOM     18  C   UNL     1      -8.763  -9.400  17.998  0.00  0.00    +0.000 A 
ATOM     19  H   UNL     1      -8.426 -12.251  19.851  0.00  0.00    +0.000 HD
ATOM     20  H   UNL     1      -9.127  -5.109  16.285  0.00  0.00    +0.000 HD
ENDROOT
BRANCH   5  21
ATOM     21  O   UNL     1      -9.020 -11.980  15.382  0.00  0.00    +0.000 OA
ATOM     22  H   UNL     1      -8.754 -12.914  15.492  0.00  0.00    +0.000 HD
ENDBRANCH   5  21
BRANCH   6  23
ATOM     23  O   UNL     1      -8.678 -13.526  17.599  0.00  0.00    +0.000 OA
ATOM     24  H   UNL     1      -8.640 -13.870  18.513  0.00  0.00    +0.000 HD
ENDBRANCH   6  23
BRANCH  13  25
ATOM     25  O   UNL     1      -8.526  -5.414  20.754  0.00  0.00    +0.000 OA
ATOM     26  H   UNL     1      -8.662  -4.455  20.627  0.00  0.00    +0.000 HD
ENDBRANCH  13  25
BRANCH  14  27
ATOM     27  O   UNL     1      -8.864  -3.845  18.547  0.00  0.00    +0.000 OA
ATOM     28  H   UNL     1      -9.029  -3.675  19.496  0.00  0.00    +0.000 HD
ENDBRANCH  14  27
TORSDOF 4
ENDMDL
MODEL 7
REMARK VINA RESULT:    -8.149      1.516      6.234
REMARK INTER + INTRA:          -9.102
REMARK INTER:                  -9.102
REMARK INTRA:                   0.000
REMARK UNBOUND:                 0.000
REMARK  Name = 
REMARK  4 active torsions:
REMARK  status: ('A' for Active; 'I' for Inactive)
REMARK    1  A    between atoms: C_5  and  O_6
REMARK    2  A    between atoms: C_7  and  O_8
REMARK    3  A    between atoms: C_15  and  O_16
REMARK    4  A    between atoms: C_17  and  O_18
REMARK                            x       y       z     vdW  Elec       q    Type
REMARK                         _______ _______ _______ _____ _____    ______ ____
ROOT
ATOM      1  O   UNL     1      -8.367  -5.680  20.653  0.00  0.00    +0.000 OA
ATOM      2  C   UNL     1      -8.638  -6.537  19.823  0.00  0.00    +0.000 A 
ATOM      3  O   UNL     1      -8.413  -7.897  20.076  0.00  0.00    +0.000 OA
ATOM      4  C   UNL     1      -8.712  -8.913  19.143  0.00  0.00    +0.000 A 
ATOM      5  C   UNL     1      -8.455 -10.238  19.478  0.00  0.00    +0.000 A 
ATOM      6  C   UNL     1      -8.749 -11.240  18.557  0.00  0.00    +0.000 A 
ATOM      7  C   UNL     1      -9.292 -10.934  17.313  0.00  0.00    +0.000 A 
ATOM      8  C   UNL     1      -9.547  -9.597  16.988  0.00  0.00    +0.000 A 
ATOM      9  C   UNL     1     -10.127  -9.249  15.665  0.00  0.00    +0.000 A 
ATOM     10  O   UNL     1     -10.397 -10.106  14.833  0.00  0.00    +0.000 OA
ATOM     11  O   UNL     1     -10.353  -7.894  15.413  0.00  0.00    +0.000 OA
ATOM     12  C   UNL     1     -10.054  -6.882  16.348  0.00  0.00    +0.000 A 
ATOM     13  C   UNL     1     -10.316  -5.562  16.007  0.00  0.00    +0.000 A 
ATOM     14  C   UNL     1     -10.026  -4.554  16.921  0.00  0.00    +0.000 A 
ATOM     15  C   UNL     1      -9.478  -4.853  18.166  0.00  0.00    +0.000 A 
ATOM     16  C   UNL     1      -9.220  -6.191  18.500  0.00  0.00    +0.000 A 
ATOM     17  C   UNL     1      -9.510  -7.207  17.587  0.00  0.00    +0.000 A 
ATOM     18  C   UNL     1      -9.254  -8.583  17.904  0.00  0.00    +0.000 A 
ATOM     19  H   UNL     1      -9.514 -11.735  16.609  0.00  0.00    +0.000 HD
ATOM     20  H   UNL     1      -9.258  -4.049  18.865  0.00  0.00    +0.000 HD
ENDROOT
BRANCH   5  21
ATOM     21  O   UNL     1      -7.922 -10.604  20.681  0.00  0.00    +0.000 OA
ATOM     22  H   UNL     1      -7.489 -11.472  20.560  0.00  0.00    +0.000 HD
ENDBRANCH   5  21
BRANCH   6  23
ATOM     23  O   UNL     1      -8.506 -12.547  18.863  0.00  0.00    +0.000 OA
ATOM     24  H   UNL     1      -8.130 -12.540  19.766  0.00  0.00    +0.000 HD
ENDBRANCH   6  23
BRANCH  13  25
ATOM     25  O   UNL     1     -10.851  -5.215  14.799  0.00  0.00    +0.000 OA
ATOM     26  H   UNL     1     -11.292  -6.009  14.439  0.00  0.00    +0.000 HD
ENDBRANCH  13  25
BRANCH  14  27
ATOM     27  O   UNL     1     -10.277  -3.251  16.606  0.00  0.00    +0.000 OA
ATOM     28  H   UNL     1      -9.558  -2.983  16.000  0.00  0.00    +0.000 HD
ENDBRANCH  14  27
TORSDOF 4
ENDMDL
