REMARK  Name = 
REMARK  7 active torsions:
REMARK  status: ('A' for Active; 'I' for Inactive)
REMARK    1  A    between atoms: C_1  and  O_2
REMARK    2  A    between atoms: O_2  and  C_3
REMARK    3  A    between atoms: C_3  and  C_5
REMARK    4  A    between atoms: C_9  and  N_10
REMARK    5  A    between atoms: C_11  and  C_13
REMARK    6  A    between atoms: C_13  and  N_14
REMARK    7  A    between atoms: N_17  and  C_18
REMARK                            x       y       z     vdW  Elec       q    Type
REMARK                         _______ _______ _______ _____ _____    ______ ____
ROOT
ATOM      1  C   UNL     1       0.360   0.307  -2.098  0.00  0.00    +0.000 C 
ATOM      2  C   UNL     1      -0.579  -0.420  -3.085  0.00  0.00    +0.000 C 
ATOM      3  C   UNL     1      -1.325  -1.585  -2.425  0.00  0.00    +0.000 C 
ATOM      4  N   UNL     1      -0.379  -2.431  -1.705  0.00  0.00    +0.000 N 
ATOM      5  C   UNL     1       0.493  -1.806  -0.730  0.00  0.00    +0.000 C 
ATOM      6  C   UNL     1       1.295  -0.711  -1.431  0.00  0.00    +0.000 C 
ATOM      7  H   UNL     1       0.008  -0.823  -3.922  0.00  0.00    +0.000 HD
ATOM      8  H   UNL     1      -1.309   0.275  -3.521  0.00  0.00    +0.000 HD
ATOM      9  H   UNL     1      -1.878  -2.125  -3.204  0.00  0.00    +0.000 HD
ATOM     10  H   UNL     1      -2.085  -1.223  -1.723  0.00  0.00    +0.000 HD
ATOM     11  H   UNL     1       1.224  -2.504  -0.312  0.00  0.00    +0.000 HD
ATOM     12  H   UNL     1      -0.094  -1.401   0.103  0.00  0.00    +0.000 HD
ATOM     13  H   UNL     1       1.933  -1.181  -2.194  0.00  0.00    +0.000 HD
ATOM     14  H   UNL     1       1.971  -0.239  -0.709  0.00  0.00    +0.000 HD
ENDROOT
BRANCH   4  15
ATOM     15  C   UNL     1      -0.473  -3.803  -1.838  0.00  0.00    +0.000 A 
ATOM     16  N   UNL     1      -0.788  -4.299  -3.066  0.00  0.00    +0.000 NA
ATOM     17  C   UNL     1      -0.803  -5.630  -3.264  0.00  0.00    +0.000 A 
ATOM     18  N   UNL     1      -0.562  -6.602  -2.372  0.00  0.00    +0.000 NA
ATOM     19  C   UNL     1      -0.296  -6.090  -1.163  0.00  0.00    +0.000 A 
ATOM     20  N   UNL     1      -0.029  -6.846  -0.054  0.00  0.00    +0.000 N 
ATOM     21  C   UNL     1       0.186  -6.027   1.024  0.00  0.00    +0.000 A 
ATOM     22  C   UNL     1       0.054  -4.725   0.589  0.00  0.00    +0.000 A 
ATOM     23  C   UNL     1      -0.233  -4.748  -0.812  0.00  0.00    +0.000 A 
ATOM     24  H   UNL     1      -1.032  -5.954  -4.274  0.00  0.00    +0.000 HD
ATOM     25  H   UNL     1      -0.008  -7.855  -0.059  0.00  0.00    +0.000 HD
ATOM     26  H   UNL     1       0.406  -6.437   2.000  0.00  0.00    +0.000 HD
ATOM     27  H   UNL     1       0.147  -3.850   1.218  0.00  0.00    +0.000 HD
ENDBRANCH   4  15
BRANCH   1  29
ATOM     28  N   UNL     1       0.333   1.792  -0.121  0.00  0.00    +0.000 N 
ATOM     29  C   UNL     1      -0.457   1.092  -1.027  0.00  0.00    +0.000 C 
ATOM     30  O   UNL     1      -1.688   1.094  -1.036  0.00  0.00    +0.000 OA
ATOM     31  H   UNL     1       1.288   1.956  -0.431  0.00  0.00    +0.000 HD
BRANCH  28  36
ATOM     32  C   UNL     1       0.231   4.267   2.651  0.00  0.00    +0.000 A 
ATOM     33  C   UNL     1      -1.069   4.078   3.140  0.00  0.00    +0.000 A 
ATOM     34  C   UNL     1      -1.882   3.094   2.590  0.00  0.00    +0.000 A 
ATOM     35  C   UNL     1      -1.415   2.314   1.533  0.00  0.00    +0.000 A 
ATOM     36  C   UNL     1      -0.137   2.513   1.000  0.00  0.00    +0.000 A 
ATOM     37  C   UNL     1       0.702   3.466   1.593  0.00  0.00    +0.000 A 
ATOM     38  H   UNL     1      -1.464   4.692   3.945  0.00  0.00    +0.000 HD
ATOM     39  H   UNL     1      -2.889   2.940   2.971  0.00  0.00    +0.000 HD
ATOM     40  H   UNL     1      -2.082   1.552   1.141  0.00  0.00    +0.000 HD
ATOM     41  H   UNL     1       1.711   3.622   1.218  0.00  0.00    +0.000 HD
BRANCH  32  42
ATOM     42  C   UNL     1       1.121   5.325   3.210  0.00  0.00    +0.000 C 
ATOM     43  O   UNL     1       2.269   5.510   2.840  0.00  0.00    +0.000 OA
BRANCH  42  44
ATOM     44  O   UNL     1       0.459   6.042   4.152  0.00  0.00    +0.000 OA
BRANCH  44  45
ATOM     45  C   UNL     1       1.199   7.120   4.727  0.00  0.00    +0.000 C 
ATOM     46  H   UNL     1       0.619   7.514   5.567  0.00  0.00    +0.000 HD
ATOM     47  H   UNL     1       1.329   7.919   3.992  0.00  0.00    +0.000 HD
ATOM     48  H   UNL     1       2.165   6.777   5.108  0.00  0.00    +0.000 HD
ENDBRANCH  44  45
ENDBRANCH  42  44
ENDBRANCH  32  42
ENDBRANCH  28  36
ENDBRANCH   1  29
BRANCH   1  49
ATOM     49  N   UNL     1       1.193   1.301  -2.832  0.00  0.00    +0.000 NA
ATOM     50  H   UNL     1       0.563   1.940  -3.326  0.00  0.00    +0.000 HD
ATOM     51  H   UNL     1       1.697   0.812  -3.576  0.00  0.00    +0.000 HD
ENDBRANCH   1  49
TORSDOF 7
