MODEL 1
REMARK VINA RESULT:    -9.583      0.000      0.000
REMARK INTER + INTRA:         -11.098
REMARK INTER:                 -10.984
REMARK INTRA:                  -0.114
REMARK UNBOUND:                -0.114
REMARK  Name = 
REMARK  3 active torsions:
REMARK  status: ('A' for Active; 'I' for Inactive)
REMARK    1  A    between atoms: C_1  and  C_2
REMARK    2  A    between atoms: N_7  and  S_8
REMARK    3  A    between atoms: S_8  and  C_11
REMARK                            x       y       z     vdW  Elec       q    Type
REMARK                         _______ _______ _______ _____ _____    ______ ____
ROOT
ATOM      1  S   UNL     1      -9.709  -8.420  16.275  0.00  0.00    +0.000 S 
ATOM      2  O   UNL     1     -11.130  -8.622  16.089  0.00  0.00    +0.000 OA
ATOM      3  O   UNL     1      -8.849  -8.122  15.149  0.00  0.00    +0.000 OA
ENDROOT
BRANCH   1   4
ATOM      4  C   UNL     1      -9.109  -9.863  17.157  0.00  0.00    +0.000 A 
ATOM      5  C   UNL     1      -8.903  -9.663  18.537  0.00  0.00    +0.000 A 
ATOM      6  C   UNL     1      -8.472 -10.706  19.345  0.00  0.00    +0.000 A 
ATOM      7  C   UNL     1      -8.243 -11.958  18.787  0.00  0.00    +0.000 A 
ATOM      8  C   UNL     1      -8.462 -12.188  17.418  0.00  0.00    +0.000 A 
ATOM      9  C   UNL     1      -8.255 -13.462  16.882  0.00  0.00    +0.000 A 
ATOM     10  N   UNL     1      -8.461 -13.805  15.596  0.00  0.00    +0.000 NA
ATOM     11  C   UNL     1      -8.907 -12.826  14.793  0.00  0.00    +0.000 A 
ATOM     12  C   UNL     1      -9.140 -11.523  15.214  0.00  0.00    +0.000 A 
ATOM     13  C   UNL     1      -8.913 -11.149  16.562  0.00  0.00    +0.000 A 
ATOM     14  H   UNL     1      -9.101  -8.690  18.986  0.00  0.00    +0.000 HD
ATOM     15  H   UNL     1      -8.329 -10.552  20.412  0.00  0.00    +0.000 HD
ATOM     16  H   UNL     1      -7.908 -12.768  19.435  0.00  0.00    +0.000 HD
ATOM     17  H   UNL     1      -7.910 -14.287  17.508  0.00  0.00    +0.000 HD
ATOM     18  H   UNL     1      -9.089 -13.118  13.761  0.00  0.00    +0.000 HD
ATOM     19  H   UNL     1      -9.511 -10.835  14.467  0.00  0.00    +0.000 HD
ENDBRANCH   1   4
BRANCH   1  25
ATOM     20  C   UNL     1     -10.518  -6.014  17.275  0.00  0.00    +0.000 C 
ATOM     21  C   UNL     1     -10.298  -4.980  18.411  0.00  0.00    +0.000 C 
ATOM     22  N   UNL     1      -8.931  -4.434  18.446  0.00  0.00    +0.000 NA
ATOM     23  C   UNL     1      -7.979  -5.544  18.605  0.00  0.00    +0.000 C 
ATOM     24  C   UNL     1      -8.102  -6.621  17.507  0.00  0.00    +0.000 C 
ATOM     25  N   UNL     1      -9.506  -7.140  17.400  0.00  0.00    +0.000 NA
ATOM     26  H   UNL     1     -11.516  -6.444  17.432  0.00  0.00    +0.000 HD
ATOM     27  H   UNL     1     -10.525  -5.445  19.379  0.00  0.00    +0.000 HD
ATOM     28  H   UNL     1     -11.002  -4.147  18.292  0.00  0.00    +0.000 HD
ATOM     29  H   UNL     1      -8.843  -3.795  19.236  0.00  0.00    +0.000 HD
ATOM     30  H   UNL     1      -8.124  -6.004  19.590  0.00  0.00    +0.000 HD
ATOM     31  H   UNL     1      -6.963  -5.136  18.588  0.00  0.00    +0.000 HD
ATOM     32  H   UNL     1      -7.430  -7.445  17.764  0.00  0.00    +0.000 HD
ATOM     33  H   UNL     1      -7.780  -6.202  16.547  0.00  0.00    +0.000 HD
BRANCH  20  34
ATOM     34  C   UNL     1     -10.492  -5.326  15.908  0.00  0.00    +0.000 C 
ATOM     35  H   UNL     1     -10.042  -4.330  15.991  0.00  0.00    +0.000 HD
ATOM     36  H   UNL     1     -11.500  -5.185  15.509  0.00  0.00    +0.000 HD
ATOM     37  H   UNL     1      -9.915  -5.889  15.168  0.00  0.00    +0.000 HD
ENDBRANCH  20  34
ENDBRANCH   1  25
TORSDOF 3
ENDMDL
MODEL 2
REMARK VINA RESULT:    -9.003      1.506      2.712
REMARK INTER + INTRA:         -10.434
REMARK INTER:                 -10.284
REMARK INTRA:                  -0.150
REMARK UNBOUND:                -0.114
REMARK  Name = 
REMARK  3 active torsions:
REMARK  status: ('A' for Active; 'I' for Inactive)
REMARK    1  A    between atoms: C_1  and  C_2
REMARK    2  A    between atoms: N_7  and  S_8
REMARK    3  A    between atoms: S_8  and  C_11
REMARK                            x       y       z     vdW  Elec       q    Type
REMARK                         _______ _______ _______ _____ _____    ______ ____
ROOT
ATOM      1  S   UNL     1     -10.268  -7.483  16.921  0.00  0.00    +0.000 S 
ATOM      2  O   UNL     1     -11.401  -7.712  17.791  0.00  0.00    +0.000 OA
ATOM      3  O   UNL     1     -10.347  -6.529  15.835  0.00  0.00    +0.000 OA
ENDROOT
BRANCH   1   4
ATOM      4  C   UNL     1      -9.777  -9.095  16.302  0.00  0.00    +0.000 A 
ATOM      5  C   UNL     1      -9.913  -9.255  14.908  0.00  0.00    +0.000 A 
ATOM      6  C   UNL     1      -9.538 -10.442  14.293  0.00  0.00    +0.000 A 
ATOM      7  C   UNL     1      -9.022 -11.479  15.061  0.00  0.00    +0.000 A 
ATOM      8  C   UNL     1      -8.856 -11.336  16.448  0.00  0.00    +0.000 A 
ATOM      9  C   UNL     1      -8.308 -12.382  17.197  0.00  0.00    +0.000 A 
ATOM     10  N   UNL     1      -8.075 -12.346  18.524  0.00  0.00    +0.000 NA
ATOM     11  C   UNL     1      -8.399 -11.201  19.145  0.00  0.00    +0.000 A 
ATOM     12  C   UNL     1      -8.957 -10.101  18.504  0.00  0.00    +0.000 A 
ATOM     13  C   UNL     1      -9.218 -10.134  17.111  0.00  0.00    +0.000 A 
ATOM     14  H   UNL     1     -10.296  -8.437  14.298  0.00  0.00    +0.000 HD
ATOM     15  H   UNL     1      -9.630 -10.555  13.216  0.00  0.00    +0.000 HD
ATOM     16  H   UNL     1      -8.729 -12.404  14.563  0.00  0.00    +0.000 HD
ATOM     17  H   UNL     1      -8.015 -13.320  16.724  0.00  0.00    +0.000 HD
ATOM     18  H   UNL     1      -8.189 -11.175  20.211  0.00  0.00    +0.000 HD
ATOM     19  H   UNL     1      -9.159  -9.236  19.120  0.00  0.00    +0.000 HD
ENDBRANCH   1   4
BRANCH   1  25
ATOM     20  C   UNL     1      -9.296  -6.026  19.012  0.00  0.00    +0.000 C 
ATOM     21  C   UNL     1      -8.045  -5.758  19.891  0.00  0.00    +0.000 C 
ATOM     22  N   UNL     1      -6.889  -5.264  19.125  0.00  0.00    +0.000 NA
ATOM     23  C   UNL     1      -6.552  -6.247  18.084  0.00  0.00    +0.000 C 
ATOM     24  C   UNL     1      -7.728  -6.568  17.139  0.00  0.00    +0.000 C 
ATOM     25  N   UNL     1      -8.945  -7.002  17.902  0.00  0.00    +0.000 NA
ATOM     26  H   UNL     1     -10.036  -6.512  19.660  0.00  0.00    +0.000 HD
ATOM     27  H   UNL     1      -7.761  -6.679  20.416  0.00  0.00    +0.000 HD
ATOM     28  H   UNL     1      -8.291  -5.020  20.665  0.00  0.00    +0.000 HD
ATOM     29  H   UNL     1      -6.093  -5.147  19.752  0.00  0.00    +0.000 HD
ATOM     30  H   UNL     1      -6.199  -7.170  18.561  0.00  0.00    +0.000 HD
ATOM     31  H   UNL     1      -5.719  -5.854  17.492  0.00  0.00    +0.000 HD
ATOM     32  H   UNL     1      -7.414  -7.374  16.468  0.00  0.00    +0.000 HD
ATOM     33  H   UNL     1      -7.959  -5.687  16.530  0.00  0.00    +0.000 HD
BRANCH  20  34
ATOM     34  C   UNL     1      -9.885  -4.711  18.497  0.00  0.00    +0.000 C 
ATOM     35  H   UNL     1      -9.197  -4.238  17.786  0.00  0.00    +0.000 HD
ATOM     36  H   UNL     1     -10.041  -3.995  19.309  0.00  0.00    +0.000 HD
ATOM     37  H   UNL     1     -10.842  -4.853  17.987  0.00  0.00    +0.000 HD
ENDBRANCH  20  34
ENDBRANCH   1  25
TORSDOF 3
ENDMDL
MODEL 3
REMARK VINA RESULT:    -8.865      1.026      1.229
REMARK INTER + INTRA:         -10.275
REMARK INTER:                 -10.273
REMARK INTRA:                  -0.002
REMARK UNBOUND:                -0.114
REMARK  Name = 
REMARK  3 active torsions:
REMARK  status: ('A' for Active; 'I' for Inactive)
REMARK    1  A    between atoms: C_1  and  C_2
REMARK    2  A    between atoms: N_7  and  S_8
REMARK    3  A    between atoms: S_8  and  C_11
REMARK                            x       y       z     vdW  Elec       q    Type
REMARK                         _______ _______ _______ _____ _____    ______ ____
ROOT
ATOM      1  S   UNL     1      -9.628  -7.573  16.708  0.00  0.00    +0.000 S 
ATOM      2  O   UNL     1     -10.939  -7.956  16.230  0.00  0.00    +0.000 OA
ATOM      3  O   UNL     1      -8.575  -7.217  15.780  0.00  0.00    +0.000 OA
ENDROOT
BRANCH   1   4
ATOM      4  C   UNL     1      -9.085  -8.895  17.793  0.00  0.00    +0.000 A 
ATOM      5  C   UNL     1      -8.926  -8.519  19.143  0.00  0.00    +0.000 A 
ATOM      6  C   UNL     1      -8.542  -9.453  20.096  0.00  0.00    +0.000 A 
ATOM      7  C   UNL     1      -8.315 -10.769  19.715  0.00  0.00    +0.000 A 
ATOM      8  C   UNL     1      -8.487 -11.174  18.381  0.00  0.00    +0.000 A 
ATOM      9  C   UNL     1      -8.281 -12.510  18.024  0.00  0.00    +0.000 A 
ATOM     10  N   UNL     1      -8.446 -13.016  16.786  0.00  0.00    +0.000 NA
ATOM     11  C   UNL     1      -8.846 -12.145  15.845  0.00  0.00    +0.000 A 
ATOM     12  C   UNL     1      -9.072 -10.795  16.084  0.00  0.00    +0.000 A 
ATOM     13  C   UNL     1      -8.889 -10.250  17.380  0.00  0.00    +0.000 A 
ATOM     14  H   UNL     1      -9.125  -7.493  19.453  0.00  0.00    +0.000 HD
ATOM     15  H   UNL     1      -8.437  -9.162  21.138  0.00  0.00    +0.000 HD
ATOM     16  H   UNL     1      -8.017 -11.491  20.476  0.00  0.00    +0.000 HD
ATOM     17  H   UNL     1      -7.974 -13.249  18.764  0.00  0.00    +0.000 HD
ATOM     18  H   UNL     1      -8.994 -12.567  14.855  0.00  0.00    +0.000 HD
ATOM     19  H   UNL     1      -9.404 -10.206  15.240  0.00  0.00    +0.000 HD
ENDBRANCH   1   4
BRANCH   1  25
ATOM     20  C   UNL     1     -10.923  -5.263  17.362  0.00  0.00    +0.000 C 
ATOM     21  C   UNL     1     -11.076  -4.165  18.448  0.00  0.00    +0.000 C 
ATOM     22  N   UNL     1      -9.825  -3.437  18.721  0.00  0.00    +0.000 NA
ATOM     23  C   UNL     1      -8.797  -4.399  19.143  0.00  0.00    +0.000 C 
ATOM     24  C   UNL     1      -8.552  -5.525  18.116  0.00  0.00    +0.000 C 
ATOM     25  N   UNL     1      -9.826  -6.234  17.764  0.00  0.00    +0.000 NA
ATOM     26  H   UNL     1     -11.869  -5.818  17.343  0.00  0.00    +0.000 HD
ATOM     27  H   UNL     1     -11.440  -4.618  19.379  0.00  0.00    +0.000 HD
ATOM     28  H   UNL     1     -11.838  -3.441  18.134  0.00  0.00    +0.000 HD
ATOM     29  H   UNL     1      -9.985  -2.761  19.468  0.00  0.00    +0.000 HD
ATOM     30  H   UNL     1      -9.085  -4.836  20.107  0.00  0.00    +0.000 HD
ATOM     31  H   UNL     1      -7.859  -3.857  19.303  0.00  0.00    +0.000 HD
ATOM     32  H   UNL     1      -7.850  -6.239  18.558  0.00  0.00    +0.000 HD
ATOM     33  H   UNL     1      -8.091  -5.105  17.216  0.00  0.00    +0.000 HD
BRANCH  20  34
ATOM     34  C   UNL     1     -10.698  -4.632  15.985  0.00  0.00    +0.000 C 
ATOM     35  H   UNL     1     -11.600  -4.730  15.370  0.00  0.00    +0.000 HD
ATOM     36  H   UNL     1      -9.889  -5.128  15.443  0.00  0.00    +0.000 HD
ATOM     37  H   UNL     1     -10.455  -3.566  16.049  0.00  0.00    +0.000 HD
ENDBRANCH  20  34
ENDBRANCH   1  25
TORSDOF 3
ENDMDL
MODEL 4
REMARK VINA RESULT:    -8.690      2.135      2.586
REMARK INTER + INTRA:         -10.074
REMARK INTER:                  -9.980
REMARK INTRA:                  -0.094
REMARK UNBOUND:                -0.114
REMARK  Name = 
REMARK  3 active torsions:
REMARK  status: ('A' for Active; 'I' for Inactive)
REMARK    1  A    between atoms: C_1  and  C_2
REMARK    2  A    between atoms: N_7  and  S_8
REMARK    3  A    between atoms: S_8  and  C_11
REMARK                            x       y       z     vdW  Elec       q    Type
REMARK                         _______ _______ _______ _____ _____    ______ ____
ROOT
ATOM      1  S   UNL     1      -9.204  -6.780  18.212  0.00  0.00    +0.000 S 
ATOM      2  O   UNL     1     -10.531  -6.582  18.755  0.00  0.00    +0.000 OA
ATOM      3  O   UNL     1      -8.850  -6.255  16.910  0.00  0.00    +0.000 OA
ENDROOT
BRANCH   1   4
ATOM      4  C   UNL     1      -8.894  -8.547  18.278  0.00  0.00    +0.000 A 
ATOM      5  C   UNL     1      -8.595  -9.042  19.564  0.00  0.00    +0.000 A 
ATOM      6  C   UNL     1      -8.367 -10.397  19.763  0.00  0.00    +0.000 A 
ATOM      7  C   UNL     1      -8.436 -11.271  18.685  0.00  0.00    +0.000 A 
ATOM      8  C   UNL     1      -8.754 -10.805  17.399  0.00  0.00    +0.000 A 
ATOM      9  C   UNL     1      -8.847 -11.706  16.333  0.00  0.00    +0.000 A 
ATOM     10  N   UNL     1      -9.174 -11.378  15.068  0.00  0.00    +0.000 NA
ATOM     11  C   UNL     1      -9.430 -10.079  14.846  0.00  0.00    +0.000 A 
ATOM     12  C   UNL     1      -9.360  -9.097  15.826  0.00  0.00    +0.000 A 
ATOM     13  C   UNL     1      -9.004  -9.429  17.157  0.00  0.00    +0.000 A 
ATOM     14  H   UNL     1      -8.561  -8.365  20.418  0.00  0.00    +0.000 HD
ATOM     15  H   UNL     1      -8.153 -10.777  20.759  0.00  0.00    +0.000 HD
ATOM     16  H   UNL     1      -8.258 -12.332  18.859  0.00  0.00    +0.000 HD
ATOM     17  H   UNL     1      -8.664 -12.771  16.479  0.00  0.00    +0.000 HD
ATOM     18  H   UNL     1      -9.711  -9.829  13.827  0.00  0.00    +0.000 HD
ATOM     19  H   UNL     1      -9.604  -8.089  15.516  0.00  0.00    +0.000 HD
ENDBRANCH   1   4
BRANCH   1  25
ATOM     20  C   UNL     1      -8.564  -4.895  20.077  0.00  0.00    +0.000 C 
ATOM     21  C   UNL     1      -7.507  -4.469  21.130  0.00  0.00    +0.000 C 
ATOM     22  N   UNL     1      -6.175  -4.222  20.553  0.00  0.00    +0.000 NA
ATOM     23  C   UNL     1      -5.719  -5.442  19.870  0.00  0.00    +0.000 C 
ATOM     24  C   UNL     1      -6.694  -5.939  18.783  0.00  0.00    +0.000 C 
ATOM     25  N   UNL     1      -8.079  -6.126  19.330  0.00  0.00    +0.000 NA
ATOM     26  H   UNL     1      -9.465  -5.179  20.634  0.00  0.00    +0.000 HD
ATOM     27  H   UNL     1      -7.426  -5.244  21.903  0.00  0.00    +0.000 HD
ATOM     28  H   UNL     1      -7.841  -3.556  21.637  0.00  0.00    +0.000 HD
ATOM     29  H   UNL     1      -5.522  -3.987  21.300  0.00  0.00    +0.000 HD
ATOM     30  H   UNL     1      -5.561  -6.234  20.613  0.00  0.00    +0.000 HD
ATOM     31  H   UNL     1      -4.747  -5.239  19.407  0.00  0.00    +0.000 HD
ATOM     32  H   UNL     1      -6.321  -6.896  18.404  0.00  0.00    +0.000 HD
ATOM     33  H   UNL     1      -6.709  -5.225  17.952  0.00  0.00    +0.000 HD
BRANCH  20  34
ATOM     34  C   UNL     1      -8.908  -3.724  19.154  0.00  0.00    +0.000 C 
ATOM     35  H   UNL     1      -8.298  -3.764  18.243  0.00  0.00    +0.000 HD
ATOM     36  H   UNL     1      -8.701  -2.762  19.631  0.00  0.00    +0.000 HD
ATOM     37  H   UNL     1      -9.959  -3.727  18.848  0.00  0.00    +0.000 HD
ENDBRANCH  20  34
ENDBRANCH   1  25
TORSDOF 3
ENDMDL
MODEL 5
REMARK VINA RESULT:    -8.108      1.810      3.145
REMARK INTER + INTRA:          -9.407
REMARK INTER:                  -9.313
REMARK INTRA:                  -0.094
REMARK UNBOUND:                -0.114
REMARK  Name = 
REMARK  3 active torsions:
REMARK  status: ('A' for Active; 'I' for Inactive)
REMARK    1  A    between atoms: C_1  and  C_2
REMARK    2  A    between atoms: N_7  and  S_8
REMARK    3  A    between atoms: S_8  and  C_11
REMARK                            x       y       z     vdW  Elec       q    Type
REMARK                         _______ _______ _______ _____ _____    ______ ____
ROOT
ATOM      1  S   UNL     1      -9.415  -7.522  17.876  0.00  0.00    +0.000 S 
ATOM      2  O   UNL     1      -8.098  -7.162  18.353  0.00  0.00    +0.000 OA
ATOM      3  O   UNL     1     -10.483  -7.826  18.805  0.00  0.00    +0.000 OA
ENDROOT
BRANCH   1   4
ATOM      4  C   UNL     1      -9.179  -8.882  16.728  0.00  0.00    +0.000 A 
ATOM      5  C   UNL     1      -9.217  -8.515  15.368  0.00  0.00    +0.000 A 
ATOM      6  C   UNL     1      -9.015  -9.463  14.374  0.00  0.00    +0.000 A 
ATOM      7  C   UNL     1      -8.771 -10.785  14.727  0.00  0.00    +0.000 A 
ATOM      8  C   UNL     1      -8.706 -11.172  16.076  0.00  0.00    +0.000 A 
ATOM      9  C   UNL     1      -8.431 -12.502  16.409  0.00  0.00    +0.000 A 
ATOM     10  N   UNL     1      -8.315 -12.978  17.663  0.00  0.00    +0.000 NA
ATOM     11  C   UNL     1      -8.475 -12.081  18.649  0.00  0.00    +0.000 A 
ATOM     12  C   UNL     1      -8.760 -10.737  18.435  0.00  0.00    +0.000 A 
ATOM     13  C   UNL     1      -8.897 -10.229  17.120  0.00  0.00    +0.000 A 
ATOM     14  H   UNL     1      -9.385  -7.476  15.085  0.00  0.00    +0.000 HD
ATOM     15  H   UNL     1      -9.029  -9.173  13.327  0.00  0.00    +0.000 HD
ATOM     16  H   UNL     1      -8.611 -11.518  13.935  0.00  0.00    +0.000 HD
ATOM     17  H   UNL     1      -8.276 -13.255  15.636  0.00  0.00    +0.000 HD
ATOM     18  H   UNL     1      -8.361 -12.471  19.657  0.00  0.00    +0.000 HD
ATOM     19  H   UNL     1      -8.852 -10.119  19.318  0.00  0.00    +0.000 HD
ENDBRANCH   1   4
BRANCH   1  25
ATOM     20  C   UNL     1      -9.618  -4.850  17.369  0.00  0.00    +0.000 C 
ATOM     21  C   UNL     1     -10.085  -3.793  16.332  0.00  0.00    +0.000 C 
ATOM     22  N   UNL     1     -11.523  -3.869  16.028  0.00  0.00    +0.000 NA
ATOM     23  C   UNL     1     -11.832  -5.216  15.524  0.00  0.00    +0.000 C 
ATOM     24  C   UNL     1     -11.426  -6.343  16.496  0.00  0.00    +0.000 C 
ATOM     25  N   UNL     1      -9.979  -6.242  16.881  0.00  0.00    +0.000 NA
ATOM     26  H   UNL     1      -8.524  -4.785  17.411  0.00  0.00    +0.000 HD
ATOM     27  H   UNL     1      -9.513  -3.913  15.403  0.00  0.00    +0.000 HD
ATOM     28  H   UNL     1      -9.861  -2.786  16.707  0.00  0.00    +0.000 HD
ATOM     29  H   UNL     1     -11.754  -3.178  15.314  0.00  0.00    +0.000 HD
ATOM     30  H   UNL     1     -11.333  -5.363  14.559  0.00  0.00    +0.000 HD
ATOM     31  H   UNL     1     -12.910  -5.279  15.340  0.00  0.00    +0.000 HD
ATOM     32  H   UNL     1     -11.602  -7.301  15.996  0.00  0.00    +0.000 HD
ATOM     33  H   UNL     1     -12.058  -6.302  17.389  0.00  0.00    +0.000 HD
BRANCH  20  34
ATOM     34  C   UNL     1     -10.182  -4.529  18.755  0.00  0.00    +0.000 C 
ATOM     35  H   UNL     1     -11.187  -4.100  18.668  0.00  0.00    +0.000 HD
ATOM     36  H   UNL     1      -9.567  -3.792  19.278  0.00  0.00    +0.000 HD
ATOM     37  H   UNL     1     -10.255  -5.417  19.392  0.00  0.00    +0.000 HD
ENDBRANCH  20  34
ENDBRANCH   1  25
TORSDOF 3
ENDMDL
MODEL 6
REMARK VINA RESULT:    -7.902      1.880      3.075
REMARK INTER + INTRA:          -9.171
REMARK INTER:                  -9.005
REMARK INTRA:                  -0.166
REMARK UNBOUND:                -0.114
REMARK  Name = 
REMARK  3 active torsions:
REMARK  status: ('A' for Active; 'I' for Inactive)
REMARK    1  A    between atoms: C_1  and  C_2
REMARK    2  A    between atoms: N_7  and  S_8
REMARK    3  A    between atoms: S_8  and  C_11
REMARK                            x       y       z     vdW  Elec       q    Type
REMARK                         _______ _______ _______ _____ _____    ______ ____
ROOT
ATOM      1  S   UNL     1      -8.886  -8.414  18.967  0.00  0.00    +0.000 S 
ATOM      2  O   UNL     1      -7.492  -8.383  19.354  0.00  0.00    +0.000 OA
ATOM      3  O   UNL     1      -9.902  -8.872  19.891  0.00  0.00    +0.000 OA
ENDROOT
BRANCH   1   4
ATOM      4  C   UNL     1      -8.961  -9.354  17.440  0.00  0.00    +0.000 A 
ATOM      5  C   UNL     1      -9.142  -8.574  16.279  0.00  0.00    +0.000 A 
ATOM      6  C   UNL     1      -9.184  -9.171  15.027  0.00  0.00    +0.000 A 
ATOM      7  C   UNL     1      -9.045 -10.549  14.918  0.00  0.00    +0.000 A 
ATOM      8  C   UNL     1      -8.841 -11.345  16.057  0.00  0.00    +0.000 A 
ATOM      9  C   UNL     1      -8.673 -12.727  15.922  0.00  0.00    +0.000 A 
ATOM     10  N   UNL     1      -8.442 -13.582  16.937  0.00  0.00    +0.000 NA
ATOM     11  C   UNL     1      -8.366 -13.034  18.161  0.00  0.00    +0.000 A 
ATOM     12  C   UNL     1      -8.525 -11.677  18.413  0.00  0.00    +0.000 A 
ATOM     13  C   UNL     1      -8.781 -10.770  17.354  0.00  0.00    +0.000 A 
ATOM     14  H   UNL     1      -9.230  -7.491  16.355  0.00  0.00    +0.000 HD
ATOM     15  H   UNL     1      -9.308  -8.564  14.133  0.00  0.00    +0.000 HD
ATOM     16  H   UNL     1      -9.076 -11.003  13.927  0.00  0.00    +0.000 HD
ATOM     17  H   UNL     1      -8.711 -13.206  14.943  0.00  0.00    +0.000 HD
ATOM     18  H   UNL     1      -8.160 -13.729  18.970  0.00  0.00    +0.000 HD
ATOM     19  H   UNL     1      -8.426 -11.364  19.444  0.00  0.00    +0.000 HD
ENDBRANCH   1   4
BRANCH   1  25
ATOM     20  C   UNL     1      -8.375  -5.735  18.937  0.00  0.00    +0.000 C 
ATOM     21  C   UNL     1      -8.827  -4.370  18.354  0.00  0.00    +0.000 C 
ATOM     22  N   UNL     1     -10.210  -4.011  18.712  0.00  0.00    +0.000 NA
ATOM     23  C   UNL     1     -11.114  -5.069  18.235  0.00  0.00    +0.000 C 
ATOM     24  C   UNL     1     -10.761  -6.469  18.778  0.00  0.00    +0.000 C 
ATOM     25  N   UNL     1      -9.333  -6.827  18.492  0.00  0.00    +0.000 NA
ATOM     26  H   UNL     1      -7.394  -5.953  18.498  0.00  0.00    +0.000 HD
ATOM     27  H   UNL     1      -8.732  -4.388  17.261  0.00  0.00    +0.000 HD
ATOM     28  H   UNL     1      -8.159  -3.577  18.713  0.00  0.00    +0.000 HD
ATOM     29  H   UNL     1     -10.456  -3.128  18.267  0.00  0.00    +0.000 HD
ATOM     30  H   UNL     1     -11.103  -5.085  17.139  0.00  0.00    +0.000 HD
ATOM     31  H   UNL     1     -12.135  -4.818  18.542  0.00  0.00    +0.000 HD
ATOM     32  H   UNL     1     -11.421  -7.196  18.294  0.00  0.00    +0.000 HD
ATOM     33  H   UNL     1     -10.950  -6.501  19.857  0.00  0.00    +0.000 HD
BRANCH  20  34
ATOM     34  C   UNL     1      -8.222  -5.647  20.458  0.00  0.00    +0.000 C 
ATOM     35  H   UNL     1      -7.466  -6.361  20.806  0.00  0.00    +0.000 HD
ATOM     36  H   UNL     1      -9.154  -5.898  20.971  0.00  0.00    +0.000 HD
ATOM     37  H   UNL     1      -7.914  -4.651  20.790  0.00  0.00    +0.000 HD
ENDBRANCH  20  34
ENDBRANCH   1  25
TORSDOF 3
ENDMDL
MODEL 7
REMARK VINA RESULT:    -7.251      2.937      7.032
REMARK INTER + INTRA:          -8.425
REMARK INTER:                  -8.425
REMARK INTRA:                   0.000
REMARK UNBOUND:                -0.114
REMARK  Name = 
REMARK  3 active torsions:
REMARK  status: ('A' for Active; 'I' for Inactive)
REMARK    1  A    between atoms: C_1  and  C_2
REMARK    2  A    between atoms: N_7  and  S_8
REMARK    3  A    between atoms: S_8  and  C_11
REMARK                            x       y       z     vdW  Elec       q    Type
REMARK                         _______ _______ _______ _____ _____    ______ ____
ROOT
ATOM      1  S   UNL     1      -8.673  -6.263  18.365  0.00  0.00    +0.000 S 
ATOM      2  O   UNL     1      -8.578  -5.766  17.009  0.00  0.00    +0.000 OA
ATOM      3  O   UNL     1      -9.845  -6.000  19.171  0.00  0.00    +0.000 OA
ENDROOT
BRANCH   1   4
ATOM      4  C   UNL     1      -7.193  -5.700  19.210  0.00  0.00    +0.000 A 
ATOM      5  C   UNL     1      -5.991  -6.244  18.714  0.00  0.00    +0.000 A 
ATOM      6  C   UNL     1      -4.769  -5.867  19.255  0.00  0.00    +0.000 A 
ATOM      7  C   UNL     1      -4.733  -4.944  20.293  0.00  0.00    +0.000 A 
ATOM      8  C   UNL     1      -5.916  -4.371  20.790  0.00  0.00    +0.000 A 
ATOM      9  C   UNL     1      -5.855  -3.423  21.815  0.00  0.00    +0.000 A 
ATOM     10  N   UNL     1      -6.917  -2.787  22.347  0.00  0.00    +0.000 NA
ATOM     11  C   UNL     1      -8.113  -3.106  21.825  0.00  0.00    +0.000 A 
ATOM     12  C   UNL     1      -8.292  -4.039  20.812  0.00  0.00    +0.000 A 
ATOM     13  C   UNL     1      -7.183  -4.723  20.255  0.00  0.00    +0.000 A 
ATOM     14  H   UNL     1      -6.010  -6.951  17.885  0.00  0.00    +0.000 HD
ATOM     15  H   UNL     1      -3.843  -6.277  18.859  0.00  0.00    +0.000 HD
ATOM     16  H   UNL     1      -3.765  -4.656  20.705  0.00  0.00    +0.000 HD
ATOM     17  H   UNL     1      -4.900  -3.125  22.250  0.00  0.00    +0.000 HD
ATOM     18  H   UNL     1      -8.961  -2.574  22.248  0.00  0.00    +0.000 HD
ATOM     19  H   UNL     1      -9.308  -4.194  20.474  0.00  0.00    +0.000 HD
ENDBRANCH   1   4
BRANCH   1  25
ATOM     20  C   UNL     1      -9.176  -8.648  17.139  0.00  0.00    +0.000 C 
ATOM     21  C   UNL     1      -8.842 -10.163  17.140  0.00  0.00    +0.000 C 
ATOM     22  N   UNL     1      -9.196 -10.838  18.400  0.00  0.00    +0.000 NA
ATOM     23  C   UNL     1      -8.485 -10.181  19.507  0.00  0.00    +0.000 C 
ATOM     24  C   UNL     1      -8.769  -8.668  19.607  0.00  0.00    +0.000 C 
ATOM     25  N   UNL     1      -8.487  -7.969  18.310  0.00  0.00    +0.000 NA
ATOM     26  H   UNL     1      -8.750  -8.234  16.216  0.00  0.00    +0.000 HD
ATOM     27  H   UNL     1      -7.771 -10.303  16.945  0.00  0.00    +0.000 HD
ATOM     28  H   UNL     1      -9.375 -10.658  16.318  0.00  0.00    +0.000 HD
ATOM     29  H   UNL     1      -8.915 -11.817  18.348  0.00  0.00    +0.000 HD
ATOM     30  H   UNL     1      -7.407 -10.348  19.392  0.00  0.00    +0.000 HD
ATOM     31  H   UNL     1      -8.785 -10.660  20.445  0.00  0.00    +0.000 HD
ATOM     32  H   UNL     1      -8.125  -8.254  20.390  0.00  0.00    +0.000 HD
ATOM     33  H   UNL     1      -9.811  -8.510  19.903  0.00  0.00    +0.000 HD
BRANCH  20  34
ATOM     34  C   UNL     1     -10.691  -8.430  17.119  0.00  0.00    +0.000 C 
ATOM     35  H   UNL     1     -11.154  -9.050  16.342  0.00  0.00    +0.000 HD
ATOM     36  H   UNL     1     -10.944  -7.392  16.888  0.00  0.00    +0.000 HD
ATOM     37  H   UNL     1     -11.162  -8.687  18.072  0.00  0.00    +0.000 HD
ENDBRANCH  20  34
ENDBRANCH   1  25
TORSDOF 3
ENDMDL
MODEL 8
REMARK VINA RESULT:    -7.053      2.027      6.725
REMARK INTER + INTRA:          -8.198
REMARK INTER:                  -8.484
REMARK INTRA:                   0.286
REMARK UNBOUND:                -0.114
REMARK  Name = 
REMARK  3 active torsions:
REMARK  status: ('A' for Active; 'I' for Inactive)
REMARK    1  A    between atoms: C_1  and  C_2
REMARK    2  A    between atoms: N_7  and  S_8
REMARK    3  A    between atoms: S_8  and  C_11
REMARK                            x       y       z     vdW  Elec       q    Type
REMARK                         _______ _______ _______ _____ _____    ______ ____
ROOT
ATOM      1  S   UNL     1      -9.341  -6.787  17.246  0.00  0.00    +0.000 S 
ATOM      2  O   UNL     1      -8.765  -6.379  15.983  0.00  0.00    +0.000 OA
ATOM      3  O   UNL     1     -10.771  -6.729  17.462  0.00  0.00    +0.000 OA
ENDROOT
BRANCH   1   4
ATOM      4  C   UNL     1      -8.479  -5.856  18.515  0.00  0.00    +0.000 A 
ATOM      5  C   UNL     1      -7.236  -6.398  18.899  0.00  0.00    +0.000 A 
ATOM      6  C   UNL     1      -6.448  -5.760  19.847  0.00  0.00    +0.000 A 
ATOM      7  C   UNL     1      -6.891  -4.575  20.421  0.00  0.00    +0.000 A 
ATOM      8  C   UNL     1      -8.116  -4.002  20.040  0.00  0.00    +0.000 A 
ATOM      9  C   UNL     1      -8.529  -2.793  20.609  0.00  0.00    +0.000 A 
ATOM     10  N   UNL     1      -9.665  -2.139  20.299  0.00  0.00    +0.000 NA
ATOM     11  C   UNL     1     -10.436  -2.714  19.362  0.00  0.00    +0.000 A 
ATOM     12  C   UNL     1     -10.129  -3.917  18.737  0.00  0.00    +0.000 A 
ATOM     13  C   UNL     1      -8.943  -4.620  19.066  0.00  0.00    +0.000 A 
ATOM     14  H   UNL     1      -6.872  -7.316  18.436  0.00  0.00    +0.000 HD
ATOM     15  H   UNL     1      -5.483  -6.173  20.128  0.00  0.00    +0.000 HD
ATOM     16  H   UNL     1      -6.260  -4.083  21.162  0.00  0.00    +0.000 HD
ATOM     17  H   UNL     1      -7.920  -2.287  21.359  0.00  0.00    +0.000 HD
ATOM     18  H   UNL     1     -11.340  -2.169  19.105  0.00  0.00    +0.000 HD
ATOM     19  H   UNL     1     -10.831  -4.264  17.990  0.00  0.00    +0.000 HD
ENDBRANCH   1   4
BRANCH   1  25
ATOM     20  C   UNL     1      -9.231  -9.389  16.434  0.00  0.00    +0.000 C 
ATOM     21  C   UNL     1      -8.653 -10.791  16.763  0.00  0.00    +0.000 C 
ATOM     22  N   UNL     1      -9.090 -11.310  18.070  0.00  0.00    +0.000 NA
ATOM     23  C   UNL     1      -8.689 -10.359  19.118  0.00  0.00    +0.000 C 
ATOM     24  C   UNL     1      -9.234  -8.934  18.894  0.00  0.00    +0.000 C 
ATOM     25  N   UNL     1      -8.866  -8.410  17.537  0.00  0.00    +0.000 NA
ATOM     26  H   UNL     1      -8.735  -9.054  15.515  0.00  0.00    +0.000 HD
ATOM     27  H   UNL     1      -7.556 -10.750  16.741  0.00  0.00    +0.000 HD
ATOM     28  H   UNL     1      -8.954 -11.505  15.987  0.00  0.00    +0.000 HD
ATOM     29  H   UNL     1      -8.644 -12.212  18.241  0.00  0.00    +0.000 HD
ATOM     30  H   UNL     1      -7.594 -10.330  19.179  0.00  0.00    +0.000 HD
ATOM     31  H   UNL     1      -9.054 -10.730  20.082  0.00  0.00    +0.000 HD
ATOM     32  H   UNL     1      -8.806  -8.282  19.663  0.00  0.00    +0.000 HD
ATOM     33  H   UNL     1     -10.323  -8.935  19.016  0.00  0.00    +0.000 HD
BRANCH  20  34
ATOM     34  C   UNL     1     -10.737  -9.475  16.175  0.00  0.00    +0.000 C 
ATOM     35  H   UNL     1     -10.948 -10.217  15.396  0.00  0.00    +0.000 HD
ATOM     36  H   UNL     1     -11.139  -8.521  15.821  0.00  0.00    +0.000 HD
ATOM     37  H   UNL     1     -11.299  -9.764  17.069  0.00  0.00    +0.000 HD
ENDBRANCH  20  34
ENDBRANCH   1  25
TORSDOF 3
ENDMDL
MODEL 9
REMARK VINA RESULT:    -6.987      2.229      3.096
REMARK INTER + INTRA:          -8.122
REMARK INTER:                  -8.815
REMARK INTRA:                   0.692
REMARK UNBOUND:                -0.114
REMARK  Name = 
REMARK  3 active torsions:
REMARK  status: ('A' for Active; 'I' for Inactive)
REMARK    1  A    between atoms: C_1  and  C_2
REMARK    2  A    between atoms: N_7  and  S_8
REMARK    3  A    between atoms: S_8  and  C_11
REMARK                            x       y       z     vdW  Elec       q    Type
REMARK                         _______ _______ _______ _____ _____    ______ ____
ROOT
ATOM      1  S   UNL     1      -8.570  -8.992  19.567  0.00  0.00    +0.000 S 
ATOM      2  O   UNL     1      -7.186  -8.706  19.880  0.00  0.00    +0.000 OA
ATOM      3  O   UNL     1      -9.540  -9.202  20.621  0.00  0.00    +0.000 OA
ENDROOT
BRANCH   1   4
ATOM      4  C   UNL     1      -8.550 -10.393  18.446  0.00  0.00    +0.000 A 
ATOM      5  C   UNL     1      -8.261 -11.630  19.057  0.00  0.00    +0.000 A 
ATOM      6  C   UNL     1      -8.247 -12.801  18.311  0.00  0.00    +0.000 A 
ATOM      7  C   UNL     1      -8.523 -12.751  16.950  0.00  0.00    +0.000 A 
ATOM      8  C   UNL     1      -8.835 -11.534  16.322  0.00  0.00    +0.000 A 
ATOM      9  C   UNL     1      -9.138 -11.510  14.957  0.00  0.00    +0.000 A 
ATOM     10  N   UNL     1      -9.480 -10.410  14.258  0.00  0.00    +0.000 NA
ATOM     11  C   UNL     1      -9.532  -9.264  14.956  0.00  0.00    +0.000 A 
ATOM     12  C   UNL     1      -9.244  -9.169  16.313  0.00  0.00    +0.000 A 
ATOM     13  C   UNL     1      -8.870 -10.317  17.054  0.00  0.00    +0.000 A 
ATOM     14  H   UNL     1      -8.067 -11.680  20.128  0.00  0.00    +0.000 HD
ATOM     15  H   UNL     1      -8.040 -13.755  18.789  0.00  0.00    +0.000 HD
ATOM     16  H   UNL     1      -8.511 -13.679  16.378  0.00  0.00    +0.000 HD
ATOM     17  H   UNL     1      -9.123 -12.423  14.361  0.00  0.00    +0.000 HD
ATOM     18  H   UNL     1      -9.828  -8.386  14.388  0.00  0.00    +0.000 HD
ATOM     19  H   UNL     1      -9.337  -8.187  16.756  0.00  0.00    +0.000 HD
ENDBRANCH   1   4
BRANCH   1  25
ATOM     20  C   UNL     1      -8.302  -6.454  18.606  0.00  0.00    +0.000 C 
ATOM     21  C   UNL     1      -8.884  -5.411  17.615  0.00  0.00    +0.000 C 
ATOM     22  N   UNL     1     -10.288  -5.063  17.890  0.00  0.00    +0.000 NA
ATOM     23  C   UNL     1     -11.100  -6.288  17.842  0.00  0.00    +0.000 C 
ATOM     24  C   UNL     1     -10.615  -7.385  18.812  0.00  0.00    +0.000 C 
ATOM     25  N   UNL     1      -9.164  -7.705  18.601  0.00  0.00    +0.000 NA
ATOM     26  H   UNL     1      -7.312  -6.730  18.224  0.00  0.00    +0.000 HD
ATOM     27  H   UNL     1      -8.803  -5.795  16.590  0.00  0.00    +0.000 HD
ATOM     28  H   UNL     1      -8.284  -4.493  17.652  0.00  0.00    +0.000 HD
ATOM     29  H   UNL     1     -10.619  -4.408  17.182  0.00  0.00    +0.000 HD
ATOM     30  H   UNL     1     -11.103  -6.678  16.816  0.00  0.00    +0.000 HD
ATOM     31  H   UNL     1     -12.135  -6.029  18.089  0.00  0.00    +0.000 HD
ATOM     32  H   UNL     1     -11.214  -8.284  18.634  0.00  0.00    +0.000 HD
ATOM     33  H   UNL     1     -10.784  -7.061  19.845  0.00  0.00    +0.000 HD
BRANCH  20  34
ATOM     34  C   UNL     1      -8.136  -5.839  19.998  0.00  0.00    +0.000 C 
ATOM     35  H   UNL     1      -9.096  -5.828  20.527  0.00  0.00    +0.000 HD
ATOM     36  H   UNL     1      -7.794  -4.802  19.941  0.00  0.00    +0.000 HD
ATOM     37  H   UNL     1      -7.423  -6.393  20.617  0.00  0.00    +0.000 HD
ENDBRANCH  20  34
ENDBRANCH   1  25
TORSDOF 3
ENDMDL
