MODEL 1
REMARK VINA RESULT:    -9.190      0.000      0.000
REMARK INTER + INTRA:         -13.555
REMARK INTER:                 -12.683
REMARK INTRA:                  -0.873
REMARK UNBOUND:                -0.873
REMARK  Name = 
REMARK  8 active torsions:
REMARK  status: ('A' for Active; 'I' for Inactive)
REMARK    1  A    between atoms: C_1  and  O_2
REMARK    2  A    between atoms: O_2  and  C_3
REMARK    3  A    between atoms: N_17  and  C_18
REMARK    4  A    between atoms: N_21  and  C_22
REMARK    5  A    between atoms: C_22  and  C_23
REMARK    6  A    between atoms: C_23  and  C_24
REMARK    7  A    between atoms: C_24  and  N_25
REMARK    8  A    between atoms: N_28  and  C_29
REMARK                            x       y       z     vdW  Elec       q    Type
REMARK                         _______ _______ _______ _____ _____    ______ ____
ROOT
ATOM      1  C   UNL     1      -7.811  -3.317  22.264  0.00  0.00    +0.000 A 
ATOM      2  C   UNL     1      -8.410  -2.098  21.972  0.00  0.00    +0.000 A 
ATOM      3  C   UNL     1      -9.117  -1.920  20.776  0.00  0.00    +0.000 A 
ATOM      4  C   UNL     1      -9.228  -2.976  19.853  0.00  0.00    +0.000 A 
ATOM      5  C   UNL     1      -9.855  -3.236  18.645  0.00  0.00    +0.000 A 
ATOM      6  C   UNL     1     -10.540  -2.243  17.918  0.00  0.00    +0.000 A 
ATOM      7  C   UNL     1     -11.305  -2.692  16.830  0.00  0.00    +0.000 A 
ATOM      8  C   UNL     1     -11.066  -3.903  16.181  0.00  0.00    +0.000 A 
ATOM      9  C   UNL     1     -10.187  -4.832  16.822  0.00  0.00    +0.000 A 
ATOM     10  C   UNL     1      -9.601  -5.847  16.049  0.00  0.00    +0.000 A 
ATOM     11  C   UNL     1      -9.393  -5.616  14.683  0.00  0.00    +0.000 A 
ATOM     12  C   UNL     1      -9.990  -4.456  14.166  0.00  0.00    +0.000 A 
ATOM     13  C   UNL     1      -9.484  -3.253  13.547  0.00  0.00    +0.000 A 
ATOM     14  C   UNL     1     -10.549  -2.371  13.456  0.00  0.00    +0.000 A 
ATOM     15  N   UNL     1     -11.646  -3.172  13.744  0.00  0.00    +0.000 N 
ATOM     16  C   UNL     1     -11.174  -4.002  14.776  0.00  0.00    +0.000 A 
ATOM     17  C   UNL     1      -9.686  -4.501  18.123  0.00  0.00    +0.000 A 
ATOM     18  N   UNL     1      -8.798  -5.061  19.051  0.00  0.00    +0.000 N 
ATOM     19  C   UNL     1      -8.595  -4.196  20.140  0.00  0.00    +0.000 A 
ATOM     20  C   UNL     1      -7.888  -4.371  21.347  0.00  0.00    +0.000 A 
ATOM     21  C   UNL     1     -11.983  -1.539  16.292  0.00  0.00    +0.000 C 
ATOM     22  O   UNL     1     -12.950  -1.397  15.556  0.00  0.00    +0.000 OA
ATOM     23  N   UNL     1     -11.273  -0.519  16.831  0.00  0.00    +0.000 N 
ATOM     24  C   UNL     1     -10.438  -0.824  17.860  0.00  0.00    +0.000 C 
ATOM     25  O   UNL     1      -9.720   0.012  18.396  0.00  0.00    +0.000 OA
ATOM     26  H   UNL     1      -8.362  -1.256  22.653  0.00  0.00    +0.000 HD
ATOM     27  H   UNL     1      -9.596  -0.963  20.595  0.00  0.00    +0.000 HD
ATOM     28  H   UNL     1      -9.039  -6.659  16.480  0.00  0.00    +0.000 HD
ATOM     29  H   UNL     1      -8.611  -6.134  14.154  0.00  0.00    +0.000 HD
ATOM     30  H   UNL     1      -8.451  -3.012  13.345  0.00  0.00    +0.000 HD
ATOM     31  H   UNL     1     -10.675  -1.349  13.120  0.00  0.00    +0.000 HD
ATOM     32  H   UNL     1      -7.398  -5.312  21.579  0.00  0.00    +0.000 HD
ATOM     33  H   UNL     1     -11.267   0.393  16.381  0.00  0.00    +0.000 HD
ENDROOT
BRANCH  15  34
ATOM     34  C   UNL     1     -12.395  -3.705  12.601  0.00  0.00    +0.000 C 
ATOM     35  H   UNL     1     -11.872  -4.584  12.222  0.00  0.00    +0.000 HD
ATOM     36  H   UNL     1     -12.499  -2.935  11.835  0.00  0.00    +0.000 HD
ATOM     37  H   UNL     1     -13.394  -4.001  12.956  0.00  0.00    +0.000 HD
ENDBRANCH  15  34
BRANCH  18  38
ATOM     38  C   UNL     1      -8.195  -6.384  18.978  0.00  0.00    +0.000 C 
ATOM     39  H   UNL     1      -7.285  -6.350  19.581  0.00  0.00    +0.000 HD
ATOM     40  H   UNL     1      -7.847  -6.558  17.955  0.00  0.00    +0.000 HD
BRANCH  38  41
ATOM     41  C   UNL     1      -9.100  -7.535  19.455  0.00  0.00    +0.000 C 
ATOM     42  H   UNL     1     -10.023  -7.571  18.873  0.00  0.00    +0.000 HD
ATOM     43  H   UNL     1      -9.409  -7.317  20.488  0.00  0.00    +0.000 HD
BRANCH  41  44
ATOM     44  C   UNL     1      -8.489  -8.937  19.393  0.00  0.00    +0.000 C 
ATOM     45  H   UNL     1      -8.499  -9.357  20.407  0.00  0.00    +0.000 HD
ATOM     46  H   UNL     1      -7.425  -8.840  19.119  0.00  0.00    +0.000 HD
BRANCH  44  47
ATOM     47  N   UNL     1      -9.152  -9.870  18.476  0.00  0.00    +0.000 NA
ATOM     48  C   UNL     1      -9.285  -9.363  17.100  0.00  0.00    +0.000 C 
ATOM     49  C   UNL     1      -9.989 -10.391  16.185  0.00  0.00    +0.000 C 
ATOM     50  N   UNL     1      -9.349 -11.718  16.132  0.00  0.00    +0.000 NA
ATOM     51  C   UNL     1      -9.124 -12.198  17.512  0.00  0.00    +0.000 C 
ATOM     52  C   UNL     1      -8.452 -11.172  18.460  0.00  0.00    +0.000 C 
ATOM     53  H   UNL     1      -8.302  -9.098  16.687  0.00  0.00    +0.000 HD
ATOM     54  H   UNL     1      -9.896  -8.453  17.089  0.00  0.00    +0.000 HD
ATOM     55  H   UNL     1     -10.085  -9.978  15.173  0.00  0.00    +0.000 HD
ATOM     56  H   UNL     1     -11.018 -10.527  16.544  0.00  0.00    +0.000 HD
ATOM     57  H   UNL     1      -8.536 -13.124  17.501  0.00  0.00    +0.000 HD
ATOM     58  H   UNL     1     -10.097 -12.469  17.939  0.00  0.00    +0.000 HD
ATOM     59  H   UNL     1      -7.407 -11.047  18.159  0.00  0.00    +0.000 HD
ATOM     60  H   UNL     1      -8.445 -11.598  19.470  0.00  0.00    +0.000 HD
BRANCH  50  61
ATOM     61  C   UNL     1      -8.111 -11.688  15.358  0.00  0.00    +0.000 C 
ATOM     62  H   UNL     1      -7.563 -10.760  15.557  0.00  0.00    +0.000 HD
ATOM     63  H   UNL     1      -8.334 -11.692  14.286  0.00  0.00    +0.000 HD
ATOM     64  H   UNL     1      -7.443 -12.529  15.570  0.00  0.00    +0.000 HD
ENDBRANCH  50  61
ENDBRANCH  44  47
ENDBRANCH  41  44
ENDBRANCH  38  41
ENDBRANCH  18  38
BRANCH   1  65
ATOM     65  O   UNL     1      -7.117  -3.609  23.410  0.00  0.00    +0.000 OA
BRANCH  65  66
ATOM     66  C   UNL     1      -7.885  -3.971  24.553  0.00  0.00    +0.000 C 
ATOM     67  H   UNL     1      -8.915  -3.642  24.383  0.00  0.00    +0.000 HD
ATOM     68  H   UNL     1      -7.523  -3.469  25.457  0.00  0.00    +0.000 HD
ATOM     69  H   UNL     1      -7.900  -5.057  24.685  0.00  0.00    +0.000 HD
ENDBRANCH  65  66
ENDBRANCH   1  65
TORSDOF 8
ENDMDL
MODEL 2
REMARK VINA RESULT:    -8.706      2.810      7.618
REMARK INTER + INTRA:         -12.887
REMARK INTER:                 -11.894
REMARK INTRA:                  -0.992
REMARK UNBOUND:                -0.873
REMARK  Name = 
REMARK  8 active torsions:
REMARK  status: ('A' for Active; 'I' for Inactive)
REMARK    1  A    between atoms: C_1  and  O_2
REMARK    2  A    between atoms: O_2  and  C_3
REMARK    3  A    between atoms: N_17  and  C_18
REMARK    4  A    between atoms: N_21  and  C_22
REMARK    5  A    between atoms: C_22  and  C_23
REMARK    6  A    between atoms: C_23  and  C_24
REMARK    7  A    between atoms: C_24  and  N_25
REMARK    8  A    between atoms: N_28  and  C_29
REMARK                            x       y       z     vdW  Elec       q    Type
REMARK                         _______ _______ _______ _____ _____    ______ ____
ROOT
ATOM      1  C   UNL     1     -12.491   0.746  16.061  0.00  0.00    +0.000 A 
ATOM      2  C   UNL     1     -12.927  -0.294  15.249  0.00  0.00    +0.000 A 
ATOM      3  C   UNL     1     -12.580  -1.620  15.542  0.00  0.00    +0.000 A 
ATOM      4  C   UNL     1     -11.783  -1.913  16.663  0.00  0.00    +0.000 A 
ATOM      5  C   UNL     1     -11.287  -3.028  17.319  0.00  0.00    +0.000 A 
ATOM      6  C   UNL     1     -11.425  -4.333  16.806  0.00  0.00    +0.000 A 
ATOM      7  C   UNL     1     -11.068  -5.378  17.673  0.00  0.00    +0.000 A 
ATOM      8  C   UNL     1     -10.202  -5.208  18.752  0.00  0.00    +0.000 A 
ATOM      9  C   UNL     1      -9.885  -3.867  19.139  0.00  0.00    +0.000 A 
ATOM     10  C   UNL     1      -8.737  -3.644  19.916  0.00  0.00    +0.000 A 
ATOM     11  C   UNL     1      -7.667  -4.542  19.806  0.00  0.00    +0.000 A 
ATOM     12  C   UNL     1      -7.928  -5.712  19.077  0.00  0.00    +0.000 A 
ATOM     13  C   UNL     1      -7.388  -6.288  17.868  0.00  0.00    +0.000 A 
ATOM     14  C   UNL     1      -8.213  -7.348  17.527  0.00  0.00    +0.000 A 
ATOM     15  N   UNL     1      -8.992  -7.519  18.662  0.00  0.00    +0.000 N 
ATOM     16  C   UNL     1      -9.249  -6.200  19.075  0.00  0.00    +0.000 A 
ATOM     17  C   UNL     1     -10.547  -2.794  18.459  0.00  0.00    +0.000 A 
ATOM     18  N   UNL     1     -10.504  -1.393  18.472  0.00  0.00    +0.000 N 
ATOM     19  C   UNL     1     -11.321  -0.855  17.462  0.00  0.00    +0.000 A 
ATOM     20  C   UNL     1     -11.675   0.476  17.164  0.00  0.00    +0.000 A 
ATOM     21  C   UNL     1     -11.368  -6.610  16.987  0.00  0.00    +0.000 C 
ATOM     22  O   UNL     1     -11.517  -7.766  17.358  0.00  0.00    +0.000 OA
ATOM     23  N   UNL     1     -11.482  -6.195  15.702  0.00  0.00    +0.000 N 
ATOM     24  C   UNL     1     -11.598  -4.858  15.493  0.00  0.00    +0.000 C 
ATOM     25  O   UNL     1     -11.668  -4.369  14.372  0.00  0.00    +0.000 OA
ATOM     26  H   UNL     1     -13.550  -0.122  14.379  0.00  0.00    +0.000 HD
ATOM     27  H   UNL     1     -12.963  -2.409  14.903  0.00  0.00    +0.000 HD
ATOM     28  H   UNL     1      -8.506  -2.689  20.357  0.00  0.00    +0.000 HD
ATOM     29  H   UNL     1      -6.661  -4.221  20.020  0.00  0.00    +0.000 HD
ATOM     30  H   UNL     1      -6.600  -5.882  17.252  0.00  0.00    +0.000 HD
ATOM     31  H   UNL     1      -8.261  -8.051  16.703  0.00  0.00    +0.000 HD
ATOM     32  H   UNL     1     -11.325   1.301  17.778  0.00  0.00    +0.000 HD
ATOM     33  H   UNL     1     -11.338  -6.853  14.939  0.00  0.00    +0.000 HD
ENDROOT
BRANCH  15  34
ATOM     34  C   UNL     1      -8.570  -8.560  19.605  0.00  0.00    +0.000 C 
ATOM     35  H   UNL     1      -8.328  -9.462  19.042  0.00  0.00    +0.000 HD
ATOM     36  H   UNL     1      -9.359  -8.739  20.338  0.00  0.00    +0.000 HD
ATOM     37  H   UNL     1      -7.668  -8.203  20.125  0.00  0.00    +0.000 HD
ENDBRANCH  15  34
BRANCH  18  38
ATOM     38  C   UNL     1      -9.784  -0.561  19.423  0.00  0.00    +0.000 C 
ATOM     39  H   UNL     1      -9.402   0.298  18.866  0.00  0.00    +0.000 HD
ATOM     40  H   UNL     1      -8.890  -1.098  19.756  0.00  0.00    +0.000 HD
BRANCH  38  41
ATOM     41  C   UNL     1     -10.618  -0.081  20.625  0.00  0.00    +0.000 C 
ATOM     42  H   UNL     1     -11.419   0.586  20.300  0.00  0.00    +0.000 HD
ATOM     43  H   UNL     1      -9.967   0.529  21.268  0.00  0.00    +0.000 HD
BRANCH  41  44
ATOM     44  C   UNL     1     -11.277  -1.178  21.465  0.00  0.00    +0.000 C 
ATOM     45  H   UNL     1     -11.093  -2.140  20.970  0.00  0.00    +0.000 HD
ATOM     46  H   UNL     1     -12.369  -1.028  21.435  0.00  0.00    +0.000 HD
BRANCH  44  47
ATOM     47  N   UNL     1     -10.826  -1.257  22.858  0.00  0.00    +0.000 NA
ATOM     48  C   UNL     1     -11.217  -2.499  23.544  0.00  0.00    +0.000 C 
ATOM     49  C   UNL     1     -10.711  -2.521  25.005  0.00  0.00    +0.000 C 
ATOM     50  N   UNL     1      -9.256  -2.339  25.163  0.00  0.00    +0.000 NA
ATOM     51  C   UNL     1      -8.835  -1.145  24.399  0.00  0.00    +0.000 C 
ATOM     52  C   UNL     1      -9.360  -1.082  22.942  0.00  0.00    +0.000 C 
ATOM     53  H   UNL     1     -10.842  -3.378  23.001  0.00  0.00    +0.000 HD
ATOM     54  H   UNL     1     -12.309  -2.584  23.583  0.00  0.00    +0.000 HD
ATOM     55  H   UNL     1     -11.030  -3.451  25.491  0.00  0.00    +0.000 HD
ATOM     56  H   UNL     1     -11.213  -1.715  25.557  0.00  0.00    +0.000 HD
ATOM     57  H   UNL     1      -7.742  -1.062  24.397  0.00  0.00    +0.000 HD
ATOM     58  H   UNL     1      -9.200  -0.258  24.931  0.00  0.00    +0.000 HD
ATOM     59  H   UNL     1      -8.844  -1.844  22.350  0.00  0.00    +0.000 HD
ATOM     60  H   UNL     1      -9.081  -0.108  22.524  0.00  0.00    +0.000 HD
BRANCH  50  61
ATOM     61  C   UNL     1      -8.518  -3.532  24.757  0.00  0.00    +0.000 C 
ATOM     62  H   UNL     1      -8.141  -3.415  23.735  0.00  0.00    +0.000 HD
ATOM     63  H   UNL     1      -9.183  -4.402  24.743  0.00  0.00    +0.000 HD
ATOM     64  H   UNL     1      -7.669  -3.763  25.408  0.00  0.00    +0.000 HD
ENDBRANCH  50  61
ENDBRANCH  44  47
ENDBRANCH  41  44
ENDBRANCH  38  41
ENDBRANCH  18  38
BRANCH   1  65
ATOM     65  O   UNL     1     -12.788   2.073  15.882  0.00  0.00    +0.000 OA
BRANCH  65  66
ATOM     66  C   UNL     1     -13.769   2.635  16.746  0.00  0.00    +0.000 C 
ATOM     67  H   UNL     1     -13.300   3.458  17.295  0.00  0.00    +0.000 HD
ATOM     68  H   UNL     1     -14.121   1.906  17.485  0.00  0.00    +0.000 HD
ATOM     69  H   UNL     1     -14.603   3.050  16.173  0.00  0.00    +0.000 HD
ENDBRANCH  65  66
ENDBRANCH   1  65
TORSDOF 8
ENDMDL
MODEL 3
REMARK VINA RESULT:    -8.238      2.201      5.810
REMARK INTER + INTRA:         -12.241
REMARK INTER:                 -11.984
REMARK INTRA:                  -0.257
REMARK UNBOUND:                -0.873
REMARK  Name = 
REMARK  8 active torsions:
REMARK  status: ('A' for Active; 'I' for Inactive)
REMARK    1  A    between atoms: C_1  and  O_2
REMARK    2  A    between atoms: O_2  and  C_3
REMARK    3  A    between atoms: N_17  and  C_18
REMARK    4  A    between atoms: N_21  and  C_22
REMARK    5  A    between atoms: C_22  and  C_23
REMARK    6  A    between atoms: C_23  and  C_24
REMARK    7  A    between atoms: C_24  and  N_25
REMARK    8  A    between atoms: N_28  and  C_29
REMARK                            x       y       z     vdW  Elec       q    Type
REMARK                         _______ _______ _______ _____ _____    ______ ____
ROOT
ATOM      1  C   UNL     1     -10.073  -7.003  16.087  0.00  0.00    +0.000 A 
ATOM      2  C   UNL     1     -10.794  -5.847  15.819  0.00  0.00    +0.000 A 
ATOM      3  C   UNL     1     -10.698  -4.734  16.665  0.00  0.00    +0.000 A 
ATOM      4  C   UNL     1      -9.869  -4.776  17.801  0.00  0.00    +0.000 A 
ATOM      5  C   UNL     1      -9.452  -3.927  18.813  0.00  0.00    +0.000 A 
ATOM      6  C   UNL     1      -9.990  -2.636  18.988  0.00  0.00    +0.000 A 
ATOM      7  C   UNL     1      -9.328  -1.812  19.911  0.00  0.00    +0.000 A 
ATOM      8  C   UNL     1      -8.528  -2.311  20.938  0.00  0.00    +0.000 A 
ATOM      9  C   UNL     1      -8.160  -3.692  20.875  0.00  0.00    +0.000 A 
ATOM     10  C   UNL     1      -7.725  -4.327  22.050  0.00  0.00    +0.000 A 
ATOM     11  C   UNL     1      -8.190  -3.851  23.283  0.00  0.00    +0.000 A 
ATOM     12  C   UNL     1      -8.889  -2.635  23.239  0.00  0.00    +0.000 A 
ATOM     13  C   UNL     1     -10.237  -2.236  23.573  0.00  0.00    +0.000 A 
ATOM     14  C   UNL     1     -10.400  -0.944  23.098  0.00  0.00    +0.000 A 
ATOM     15  N   UNL     1      -9.105  -0.558  22.783  0.00  0.00    +0.000 N 
ATOM     16  C   UNL     1      -8.551  -1.722  22.222  0.00  0.00    +0.000 A 
ATOM     17  C   UNL     1      -8.555  -4.445  19.722  0.00  0.00    +0.000 A 
ATOM     18  N   UNL     1      -8.463  -5.774  19.286  0.00  0.00    +0.000 N 
ATOM     19  C   UNL     1      -9.165  -5.959  18.083  0.00  0.00    +0.000 A 
ATOM     20  C   UNL     1      -9.264  -7.074  17.226  0.00  0.00    +0.000 A 
ATOM     21  C   UNL     1      -9.980  -0.527  19.866  0.00  0.00    +0.000 C 
ATOM     22  O   UNL     1      -9.658   0.595  20.234  0.00  0.00    +0.000 OA
ATOM     23  N   UNL     1     -11.151  -0.828  19.255  0.00  0.00    +0.000 N 
ATOM     24  C   UNL     1     -11.231  -2.035  18.635  0.00  0.00    +0.000 C 
ATOM     25  O   UNL     1     -12.254  -2.427  18.084  0.00  0.00    +0.000 OA
ATOM     26  H   UNL     1     -11.441  -5.760  14.953  0.00  0.00    +0.000 HD
ATOM     27  H   UNL     1     -11.253  -3.838  16.409  0.00  0.00    +0.000 HD
ATOM     28  H   UNL     1      -7.305  -5.320  22.057  0.00  0.00    +0.000 HD
ATOM     29  H   UNL     1      -8.246  -4.506  24.135  0.00  0.00    +0.000 HD
ATOM     30  H   UNL     1     -11.022  -2.865  23.963  0.00  0.00    +0.000 HD
ATOM     31  H   UNL     1     -11.220  -0.237  23.058  0.00  0.00    +0.000 HD
ATOM     32  H   UNL     1      -8.721  -7.992  17.434  0.00  0.00    +0.000 HD
ATOM     33  H   UNL     1     -11.965  -0.232  19.389  0.00  0.00    +0.000 HD
ENDROOT
BRANCH  15  34
ATOM     34  C   UNL     1      -8.388   0.236  23.787  0.00  0.00    +0.000 C 
ATOM     35  H   UNL     1      -7.467   0.613  23.339  0.00  0.00    +0.000 HD
ATOM     36  H   UNL     1      -8.188  -0.373  24.669  0.00  0.00    +0.000 HD
ATOM     37  H   UNL     1      -9.028   1.086  24.070  0.00  0.00    +0.000 HD
ENDBRANCH  15  34
BRANCH  18  38
ATOM     38  C   UNL     1      -7.701  -6.839  19.921  0.00  0.00    +0.000 C 
ATOM     39  H   UNL     1      -7.248  -6.412  20.819  0.00  0.00    +0.000 HD
ATOM     40  H   UNL     1      -6.855  -7.099  19.278  0.00  0.00    +0.000 HD
BRANCH  38  41
ATOM     41  C   UNL     1      -8.520  -8.090  20.288  0.00  0.00    +0.000 C 
ATOM     42  H   UNL     1      -9.448  -8.129  19.714  0.00  0.00    +0.000 HD
ATOM     43  H   UNL     1      -8.826  -7.998  21.340  0.00  0.00    +0.000 HD
BRANCH  41  44
ATOM     44  C   UNL     1      -7.820  -9.435  20.079  0.00  0.00    +0.000 C 
ATOM     45  H   UNL     1      -7.571  -9.845  21.066  0.00  0.00    +0.000 HD
ATOM     46  H   UNL     1      -6.855  -9.249  19.579  0.00  0.00    +0.000 HD
BRANCH  44  47
ATOM     47  N   UNL     1      -8.586 -10.429  19.320  0.00  0.00    +0.000 NA
ATOM     48  C   UNL     1      -9.024  -9.962  17.995  0.00  0.00    +0.000 C 
ATOM     49  C   UNL     1      -9.823 -11.054  17.247  0.00  0.00    +0.000 C 
ATOM     50  N   UNL     1      -9.115 -12.337  17.078  0.00  0.00    +0.000 NA
ATOM     51  C   UNL     1      -8.587 -12.770  18.389  0.00  0.00    +0.000 C 
ATOM     52  C   UNL     1      -7.814 -11.682  19.175  0.00  0.00    +0.000 C 
ATOM     53  H   UNL     1      -8.164  -9.641  17.391  0.00  0.00    +0.000 HD
ATOM     54  H   UNL     1      -9.688  -9.095  18.099  0.00  0.00    +0.000 HD
ATOM     55  H   UNL     1     -10.147 -10.670  16.271  0.00  0.00    +0.000 HD
ATOM     56  H   UNL     1     -10.748 -11.250  17.806  0.00  0.00    +0.000 HD
ATOM     57  H   UNL     1      -7.950 -13.655  18.267  0.00  0.00    +0.000 HD
ATOM     58  H   UNL     1      -9.435 -13.097  19.003  0.00  0.00    +0.000 HD
ATOM     59  H   UNL     1      -6.861 -11.494  18.670  0.00  0.00    +0.000 HD
ATOM     60  H   UNL     1      -7.576 -12.085  20.166  0.00  0.00    +0.000 HD
BRANCH  50  61
ATOM     61  C   UNL     1      -8.062 -12.241  16.072  0.00  0.00    +0.000 C 
ATOM     62  H   UNL     1      -7.083 -12.431  16.528  0.00  0.00    +0.000 HD
ATOM     63  H   UNL     1      -8.020 -11.226  15.662  0.00  0.00    +0.000 HD
ATOM     64  H   UNL     1      -8.189 -12.939  15.238  0.00  0.00    +0.000 HD
ENDBRANCH  50  61
ENDBRANCH  44  47
ENDBRANCH  41  44
ENDBRANCH  38  41
ENDBRANCH  18  38
BRANCH   1  65
ATOM     65  O   UNL     1     -10.075  -8.138  15.317  0.00  0.00    +0.000 OA
BRANCH  65  66
ATOM     66  C   UNL     1      -8.834  -8.524  14.737  0.00  0.00    +0.000 C 
ATOM     67  H   UNL     1      -8.752  -8.033  13.763  0.00  0.00    +0.000 HD
ATOM     68  H   UNL     1      -8.788  -9.605  14.566  0.00  0.00    +0.000 HD
ATOM     69  H   UNL     1      -7.994  -8.186  15.352  0.00  0.00    +0.000 HD
ENDBRANCH  65  66
ENDBRANCH   1  65
TORSDOF 8
ENDMDL
MODEL 4
REMARK VINA RESULT:    -8.181      3.196      8.416
REMARK INTER + INTRA:         -12.162
REMARK INTER:                 -11.279
REMARK INTRA:                  -0.882
REMARK UNBOUND:                -0.873
REMARK  Name = 
REMARK  8 active torsions:
REMARK  status: ('A' for Active; 'I' for Inactive)
REMARK    1  A    between atoms: C_1  and  O_2
REMARK    2  A    between atoms: O_2  and  C_3
REMARK    3  A    between atoms: N_17  and  C_18
REMARK    4  A    between atoms: N_21  and  C_22
REMARK    5  A    between atoms: C_22  and  C_23
REMARK    6  A    between atoms: C_23  and  C_24
REMARK    7  A    between atoms: C_24  and  N_25
REMARK    8  A    between atoms: N_28  and  C_29
REMARK                            x       y       z     vdW  Elec       q    Type
REMARK                         _______ _______ _______ _____ _____    ______ ____
ROOT
ATOM      1  C   UNL     1     -12.411   0.788  16.330  0.00  0.00    +0.000 A 
ATOM      2  C   UNL     1     -12.884  -0.229  15.511  0.00  0.00    +0.000 A 
ATOM      3  C   UNL     1     -12.545  -1.565  15.766  0.00  0.00    +0.000 A 
ATOM      4  C   UNL     1     -11.719  -1.891  16.857  0.00  0.00    +0.000 A 
ATOM      5  C   UNL     1     -11.218  -3.025  17.476  0.00  0.00    +0.000 A 
ATOM      6  C   UNL     1     -11.387  -4.317  16.941  0.00  0.00    +0.000 A 
ATOM      7  C   UNL     1     -11.019  -5.384  17.775  0.00  0.00    +0.000 A 
ATOM      8  C   UNL     1     -10.119  -5.247  18.832  0.00  0.00    +0.000 A 
ATOM      9  C   UNL     1      -9.774  -3.918  19.236  0.00  0.00    +0.000 A 
ATOM     10  C   UNL     1      -8.601  -3.725  19.983  0.00  0.00    +0.000 A 
ATOM     11  C   UNL     1      -7.546  -4.633  19.823  0.00  0.00    +0.000 A 
ATOM     12  C   UNL     1      -7.843  -5.785  19.079  0.00  0.00    +0.000 A 
ATOM     13  C   UNL     1      -7.346  -6.342  17.843  0.00  0.00    +0.000 A 
ATOM     14  C   UNL     1      -8.193  -7.385  17.505  0.00  0.00    +0.000 A 
ATOM     15  N   UNL     1      -8.942  -7.569  18.659  0.00  0.00    +0.000 N 
ATOM     16  C   UNL     1      -9.169  -6.257  19.106  0.00  0.00    +0.000 A 
ATOM     17  C   UNL     1     -10.442  -2.824  18.597  0.00  0.00    +0.000 A 
ATOM     18  N   UNL     1     -10.381  -1.424  18.638  0.00  0.00    +0.000 N 
ATOM     19  C   UNL     1     -11.220  -0.855  17.663  0.00  0.00    +0.000 A 
ATOM     20  C   UNL     1     -11.567   0.486  17.403  0.00  0.00    +0.000 A 
ATOM     21  C   UNL     1     -11.354  -6.598  17.074  0.00  0.00    +0.000 C 
ATOM     22  O   UNL     1     -11.506  -7.760  17.426  0.00  0.00    +0.000 OA
ATOM     23  N   UNL     1     -11.500  -6.156  15.802  0.00  0.00    +0.000 N 
ATOM     24  C   UNL     1     -11.606  -4.813  15.623  0.00  0.00    +0.000 C 
ATOM     25  O   UNL     1     -11.702  -4.300  14.514  0.00  0.00    +0.000 OA
ATOM     26  H   UNL     1     -13.530  -0.033  14.663  0.00  0.00    +0.000 HD
ATOM     27  H   UNL     1     -12.956  -2.336  15.123  0.00  0.00    +0.000 HD
ATOM     28  H   UNL     1      -8.345  -2.782  20.436  0.00  0.00    +0.000 HD
ATOM     29  H   UNL     1      -6.530  -4.329  20.014  0.00  0.00    +0.000 HD
ATOM     30  H   UNL     1      -6.572  -5.933  17.212  0.00  0.00    +0.000 HD
ATOM     31  H   UNL     1      -8.275  -8.070  16.669  0.00  0.00    +0.000 HD
ATOM     32  H   UNL     1     -11.188   1.294  18.023  0.00  0.00    +0.000 HD
ATOM     33  H   UNL     1     -11.387  -6.799  15.022  0.00  0.00    +0.000 HD
ENDROOT
BRANCH  15  34
ATOM     34  C   UNL     1      -8.505  -8.635  19.568  0.00  0.00    +0.000 C 
ATOM     35  H   UNL     1      -7.476  -8.901  19.322  0.00  0.00    +0.000 HD
ATOM     36  H   UNL     1      -9.175  -9.492  19.485  0.00  0.00    +0.000 HD
ATOM     37  H   UNL     1      -8.543  -8.243  20.596  0.00  0.00    +0.000 HD
ENDBRANCH  15  34
BRANCH  18  38
ATOM     38  C   UNL     1      -9.622  -0.620  19.584  0.00  0.00    +0.000 C 
ATOM     39  H   UNL     1      -9.329   0.292  19.060  0.00  0.00    +0.000 HD
ATOM     40  H   UNL     1      -8.681  -1.131  19.806  0.00  0.00    +0.000 HD
BRANCH  38  41
ATOM     41  C   UNL     1     -10.375  -0.263  20.879  0.00  0.00    +0.000 C 
ATOM     42  H   UNL     1     -11.430  -0.534  20.803  0.00  0.00    +0.000 HD
ATOM     43  H   UNL     1     -10.357   0.830  20.991  0.00  0.00    +0.000 HD
BRANCH  41  44
ATOM     44  C   UNL     1      -9.849  -0.914  22.161  0.00  0.00    +0.000 C 
ATOM     45  H   UNL     1      -8.818  -1.241  21.977  0.00  0.00    +0.000 HD
ATOM     46  H   UNL     1     -10.428  -1.835  22.344  0.00  0.00    +0.000 HD
BRANCH  44  47
ATOM     47  N   UNL     1      -9.882  -0.064  23.355  0.00  0.00    +0.000 NA
ATOM     48  C   UNL     1      -8.741  -0.263  24.263  0.00  0.00    +0.000 C 
ATOM     49  C   UNL     1      -8.833   0.663  25.498  0.00  0.00    +0.000 C 
ATOM     50  N   UNL     1      -8.939   2.101  25.191  0.00  0.00    +0.000 NA
ATOM     51  C   UNL     1     -10.022   2.304  24.206  0.00  0.00    +0.000 C 
ATOM     52  C   UNL     1      -9.973   1.363  22.976  0.00  0.00    +0.000 C 
ATOM     53  H   UNL     1      -7.791  -0.097  23.736  0.00  0.00    +0.000 HD
ATOM     54  H   UNL     1      -8.729  -1.293  24.636  0.00  0.00    +0.000 HD
ATOM     55  H   UNL     1      -7.978   0.480  26.160  0.00  0.00    +0.000 HD
ATOM     56  H   UNL     1      -9.720   0.376  26.080  0.00  0.00    +0.000 HD
ATOM     57  H   UNL     1     -10.037   3.347  23.867  0.00  0.00    +0.000 HD
ATOM     58  H   UNL     1     -10.979   2.145  24.719  0.00  0.00    +0.000 HD
ATOM     59  H   UNL     1      -9.124   1.652  22.347  0.00  0.00    +0.000 HD
ATOM     60  H   UNL     1     -10.880   1.530  22.385  0.00  0.00    +0.000 HD
BRANCH  50  61
ATOM     61  C   UNL     1      -7.668   2.645  24.722  0.00  0.00    +0.000 C 
ATOM     62  H   UNL     1      -7.789   3.085  23.725  0.00  0.00    +0.000 HD
ATOM     63  H   UNL     1      -6.928   1.845  24.619  0.00  0.00    +0.000 HD
ATOM     64  H   UNL     1      -7.250   3.411  25.382  0.00  0.00    +0.000 HD
ENDBRANCH  50  61
ENDBRANCH  44  47
ENDBRANCH  41  44
ENDBRANCH  38  41
ENDBRANCH  18  38
BRANCH   1  65
ATOM     65  O   UNL     1     -12.696   2.122  16.187  0.00  0.00    +0.000 OA
BRANCH  65  66
ATOM     66  C   UNL     1     -13.140   2.813  17.349  0.00  0.00    +0.000 C 
ATOM     67  H   UNL     1     -14.231   2.878  17.304  0.00  0.00    +0.000 HD
ATOM     68  H   UNL     1     -12.751   3.837  17.382  0.00  0.00    +0.000 HD
ATOM     69  H   UNL     1     -12.875   2.262  18.256  0.00  0.00    +0.000 HD
ENDBRANCH  65  66
ENDBRANCH   1  65
TORSDOF 8
ENDMDL
MODEL 5
REMARK VINA RESULT:    -8.178      1.963      3.009
REMARK INTER + INTRA:         -12.158
REMARK INTER:                 -11.727
REMARK INTRA:                  -0.431
REMARK UNBOUND:                -0.873
REMARK  Name = 
REMARK  8 active torsions:
REMARK  status: ('A' for Active; 'I' for Inactive)
REMARK    1  A    between atoms: C_1  and  O_2
REMARK    2  A    between atoms: O_2  and  C_3
REMARK    3  A    between atoms: N_17  and  C_18
REMARK    4  A    between atoms: N_21  and  C_22
REMARK    5  A    between atoms: C_22  and  C_23
REMARK    6  A    between atoms: C_23  and  C_24
REMARK    7  A    between atoms: C_24  and  N_25
REMARK    8  A    between atoms: N_28  and  C_29
REMARK                            x       y       z     vdW  Elec       q    Type
REMARK                         _______ _______ _______ _____ _____    ______ ____
ROOT
ATOM      1  C   UNL     1      -8.292  -6.828  19.691  0.00  0.00    +0.000 A 
ATOM      2  C   UNL     1      -8.312  -5.568  20.275  0.00  0.00    +0.000 A 
ATOM      3  C   UNL     1      -8.966  -4.501  19.647  0.00  0.00    +0.000 A 
ATOM      4  C   UNL     1      -9.612  -4.693  18.412  0.00  0.00    +0.000 A 
ATOM      5  C   UNL     1     -10.392  -3.968  17.525  0.00  0.00    +0.000 A 
ATOM      6  C   UNL     1     -10.626  -2.587  17.677  0.00  0.00    +0.000 A 
ATOM      7  C   UNL     1     -11.601  -2.030  16.835  0.00  0.00    +0.000 A 
ATOM      8  C   UNL     1     -11.980  -2.609  15.624  0.00  0.00    +0.000 A 
ATOM      9  C   UNL     1     -11.551  -3.951  15.372  0.00  0.00    +0.000 A 
ATOM     10  C   UNL     1     -11.545  -4.418  14.048  0.00  0.00    +0.000 A 
ATOM     11  C   UNL     1     -11.375  -3.493  13.010  0.00  0.00    +0.000 A 
ATOM     12  C   UNL     1     -11.438  -2.142  13.385  0.00  0.00    +0.000 A 
ATOM     13  C   UNL     1     -10.507  -1.039  13.338  0.00  0.00    +0.000 A 
ATOM     14  C   UNL     1     -11.075  -0.004  14.064  0.00  0.00    +0.000 A 
ATOM     15  N   UNL     1     -12.384  -0.430  14.247  0.00  0.00    +0.000 N 
ATOM     16  C   UNL     1     -12.241  -1.807  14.491  0.00  0.00    +0.000 A 
ATOM     17  C   UNL     1     -10.846  -4.641  16.411  0.00  0.00    +0.000 A 
ATOM     18  N   UNL     1     -10.222  -5.885  16.572  0.00  0.00    +0.000 N 
ATOM     19  C   UNL     1      -9.564  -5.962  17.812  0.00  0.00    +0.000 A 
ATOM     20  C   UNL     1      -8.906  -7.033  18.451  0.00  0.00    +0.000 A 
ATOM     21  C   UNL     1     -11.742  -0.647  17.216  0.00  0.00    +0.000 C 
ATOM     22  O   UNL     1     -12.606   0.197  17.021  0.00  0.00    +0.000 OA
ATOM     23  N   UNL     1     -10.610  -0.437  17.930  0.00  0.00    +0.000 N 
ATOM     24  C   UNL     1      -9.911  -1.535  18.319  0.00  0.00    +0.000 C 
ATOM     25  O   UNL     1      -8.854  -1.462  18.934  0.00  0.00    +0.000 OA
ATOM     26  H   UNL     1      -7.836  -5.369  21.230  0.00  0.00    +0.000 HD
ATOM     27  H   UNL     1      -8.986  -3.538  20.147  0.00  0.00    +0.000 HD
ATOM     28  H   UNL     1     -11.366  -5.449  13.793  0.00  0.00    +0.000 HD
ATOM     29  H   UNL     1     -10.952  -3.800  12.069  0.00  0.00    +0.000 HD
ATOM     30  H   UNL     1      -9.497  -1.058  12.959  0.00  0.00    +0.000 HD
ATOM     31  H   UNL     1     -10.764   0.991  14.358  0.00  0.00    +0.000 HD
ATOM     32  H   UNL     1      -8.865  -8.018  17.995  0.00  0.00    +0.000 HD
ATOM     33  H   UNL     1     -10.239   0.505  18.033  0.00  0.00    +0.000 HD
ENDROOT
BRANCH  15  34
ATOM     34  C   UNL     1     -13.387   0.093  13.313  0.00  0.00    +0.000 C 
ATOM     35  H   UNL     1     -13.753  -0.731  12.699  0.00  0.00    +0.000 HD
ATOM     36  H   UNL     1     -12.950   0.888  12.706  0.00  0.00    +0.000 HD
ATOM     37  H   UNL     1     -14.220   0.504  13.903  0.00  0.00    +0.000 HD
ENDBRANCH  15  34
BRANCH  18  38
ATOM     38  C   UNL     1     -10.276  -7.004  15.643  0.00  0.00    +0.000 C 
ATOM     39  H   UNL     1      -9.270  -7.121  15.231  0.00  0.00    +0.000 HD
ATOM     40  H   UNL     1     -10.898  -6.724  14.788  0.00  0.00    +0.000 HD
BRANCH  38  41
ATOM     41  C   UNL     1     -10.750  -8.334  16.258  0.00  0.00    +0.000 C 
ATOM     42  H   UNL     1     -11.837  -8.348  16.363  0.00  0.00    +0.000 HD
ATOM     43  H   UNL     1     -10.352  -8.395  17.281  0.00  0.00    +0.000 HD
BRANCH  41  44
ATOM     44  C   UNL     1     -10.370  -9.601  15.488  0.00  0.00    +0.000 C 
ATOM     45  H   UNL     1     -10.059  -9.304  14.478  0.00  0.00    +0.000 HD
ATOM     46  H   UNL     1     -11.278 -10.211  15.355  0.00  0.00    +0.000 HD
BRANCH  44  47
ATOM     47  N   UNL     1      -9.314 -10.414  16.101  0.00  0.00    +0.000 NA
ATOM     48  C   UNL     1      -9.466 -10.596  17.553  0.00  0.00    +0.000 C 
ATOM     49  C   UNL     1      -8.325 -11.461  18.137  0.00  0.00    +0.000 C 
ATOM     50  N   UNL     1      -8.170 -12.789  17.514  0.00  0.00    +0.000 NA
ATOM     51  C   UNL     1      -8.110 -12.627  16.046  0.00  0.00    +0.000 C 
ATOM     52  C   UNL     1      -9.223 -11.733  15.440  0.00  0.00    +0.000 C 
ATOM     53  H   UNL     1     -10.441 -11.046  17.788  0.00  0.00    +0.000 HD
ATOM     54  H   UNL     1      -9.426  -9.627  18.063  0.00  0.00    +0.000 HD
ATOM     55  H   UNL     1      -8.460 -11.566  19.220  0.00  0.00    +0.000 HD
ATOM     56  H   UNL     1      -7.379 -10.917  18.010  0.00  0.00    +0.000 HD
ATOM     57  H   UNL     1      -8.122 -13.608  15.555  0.00  0.00    +0.000 HD
ATOM     58  H   UNL     1      -7.140 -12.181  15.794  0.00  0.00    +0.000 HD
ATOM     59  H   UNL     1     -10.176 -12.267  15.506  0.00  0.00    +0.000 HD
ATOM     60  H   UNL     1      -9.005 -11.598  14.374  0.00  0.00    +0.000 HD
BRANCH  50  61
ATOM     61  C   UNL     1      -9.237 -13.700  17.918  0.00  0.00    +0.000 C 
ATOM     62  H   UNL     1      -9.655 -13.390  18.882  0.00  0.00    +0.000 HD
ATOM     63  H   UNL     1      -8.839 -14.710  18.064  0.00  0.00    +0.000 HD
ATOM     64  H   UNL     1     -10.057 -13.759  17.195  0.00  0.00    +0.000 HD
ENDBRANCH  50  61
ENDBRANCH  44  47
ENDBRANCH  41  44
ENDBRANCH  38  41
ENDBRANCH  18  38
BRANCH   1  65
ATOM     65  O   UNL     1      -7.703  -7.945  20.226  0.00  0.00    +0.000 OA
BRANCH  65  66
ATOM     66  C   UNL     1      -8.572  -8.970  20.694  0.00  0.00    +0.000 C 
ATOM     67  H   UNL     1      -8.789  -9.635  19.852  0.00  0.00    +0.000 HD
ATOM     68  H   UNL     1      -9.527  -8.560  21.043  0.00  0.00    +0.000 HD
ATOM     69  H   UNL     1      -8.089  -9.566  21.474  0.00  0.00    +0.000 HD
ENDBRANCH  65  66
ENDBRANCH   1  65
TORSDOF 8
ENDMDL
MODEL 6
REMARK VINA RESULT:    -7.969      3.149      5.835
REMARK INTER + INTRA:         -11.869
REMARK INTER:                 -10.674
REMARK INTRA:                  -1.196
REMARK UNBOUND:                -0.873
REMARK  Name = 
REMARK  8 active torsions:
REMARK  status: ('A' for Active; 'I' for Inactive)
REMARK    1  A    between atoms: C_1  and  O_2
REMARK    2  A    between atoms: O_2  and  C_3
REMARK    3  A    between atoms: N_17  and  C_18
REMARK    4  A    between atoms: N_21  and  C_22
REMARK    5  A    between atoms: C_22  and  C_23
REMARK    6  A    between atoms: C_23  and  C_24
REMARK    7  A    between atoms: C_24  and  N_25
REMARK    8  A    between atoms: N_28  and  C_29
REMARK                            x       y       z     vdW  Elec       q    Type
REMARK                         _______ _______ _______ _____ _____    ______ ____
ROOT
ATOM      1  C   UNL     1      -7.718  -4.653  20.606  0.00  0.00    +0.000 A 
ATOM      2  C   UNL     1      -7.687  -3.999  21.831  0.00  0.00    +0.000 A 
ATOM      3  C   UNL     1      -8.443  -2.838  22.039  0.00  0.00    +0.000 A 
ATOM      4  C   UNL     1      -9.244  -2.319  21.006  0.00  0.00    +0.000 A 
ATOM      5  C   UNL     1     -10.151  -1.289  20.814  0.00  0.00    +0.000 A 
ATOM      6  C   UNL     1     -10.393  -0.302  21.790  0.00  0.00    +0.000 A 
ATOM      7  C   UNL     1     -11.484   0.548  21.551  0.00  0.00    +0.000 A 
ATOM      8  C   UNL     1     -12.009   0.771  20.278  0.00  0.00    +0.000 A 
ATOM      9  C   UNL     1     -11.588  -0.106  19.229  0.00  0.00    +0.000 A 
ATOM     10  C   UNL     1     -11.749   0.311  17.897  0.00  0.00    +0.000 A 
ATOM     11  C   UNL     1     -11.740   1.684  17.618  0.00  0.00    +0.000 A 
ATOM     12  C   UNL     1     -11.782   2.531  18.736  0.00  0.00    +0.000 A 
ATOM     13  C   UNL     1     -10.890   3.530  19.278  0.00  0.00    +0.000 A 
ATOM     14  C   UNL     1     -11.379   3.866  20.530  0.00  0.00    +0.000 A 
ATOM     15  N   UNL     1     -12.641   3.289  20.541  0.00  0.00    +0.000 N 
ATOM     16  C   UNL     1     -12.437   2.060  19.890  0.00  0.00    +0.000 A 
ATOM     17  C   UNL     1     -10.736  -1.206  19.569  0.00  0.00    +0.000 A 
ATOM     18  N   UNL     1     -10.068  -2.232  18.886  0.00  0.00    +0.000 N 
ATOM     19  C   UNL     1      -9.248  -2.968  19.760  0.00  0.00    +0.000 A 
ATOM     20  C   UNL     1      -8.488  -4.137  19.558  0.00  0.00    +0.000 A 
ATOM     21  C   UNL     1     -11.603   1.410  22.700  0.00  0.00    +0.000 C 
ATOM     22  O   UNL     1     -12.503   2.114  23.136  0.00  0.00    +0.000 OA
ATOM     23  N   UNL     1     -10.390   1.263  23.287  0.00  0.00    +0.000 N 
ATOM     24  C   UNL     1      -9.622   0.224  22.866  0.00  0.00    +0.000 C 
ATOM     25  O   UNL     1      -8.494   0.020  23.298  0.00  0.00    +0.000 OA
ATOM     26  H   UNL     1      -7.092  -4.362  22.662  0.00  0.00    +0.000 HD
ATOM     27  H   UNL     1      -8.417  -2.370  23.018  0.00  0.00    +0.000 HD
ATOM     28  H   UNL     1     -11.584  -0.341  17.056  0.00  0.00    +0.000 HD
ATOM     29  H   UNL     1     -11.441   2.042  16.648  0.00  0.00    +0.000 HD
ATOM     30  H   UNL     1      -9.940   3.839  18.872  0.00  0.00    +0.000 HD
ATOM     31  H   UNL     1     -11.053   4.515  21.335  0.00  0.00    +0.000 HD
ATOM     32  H   UNL     1      -8.486  -4.647  18.599  0.00  0.00    +0.000 HD
ATOM     33  H   UNL     1     -10.030   1.989  23.902  0.00  0.00    +0.000 HD
ENDROOT
BRANCH  15  34
ATOM     34  C   UNL     1     -13.772   4.164  20.211  0.00  0.00    +0.000 C 
ATOM     35  H   UNL     1     -14.664   3.780  20.708  0.00  0.00    +0.000 HD
ATOM     36  H   UNL     1     -13.900   4.212  19.129  0.00  0.00    +0.000 HD
ATOM     37  H   UNL     1     -13.547   5.171  20.595  0.00  0.00    +0.000 HD
ENDBRANCH  15  34
BRANCH  18  38
ATOM     38  C   UNL     1     -10.222  -2.575  17.481  0.00  0.00    +0.000 C 
ATOM     39  H   UNL     1      -9.390  -3.237  17.224  0.00  0.00    +0.000 HD
ATOM     40  H   UNL     1     -10.060  -1.677  16.878  0.00  0.00    +0.000 HD
BRANCH  38  41
ATOM     41  C   UNL     1     -11.559  -3.248  17.121  0.00  0.00    +0.000 C 
ATOM     42  H   UNL     1     -12.113  -2.649  16.395  0.00  0.00    +0.000 HD
ATOM     43  H   UNL     1     -12.183  -3.269  18.025  0.00  0.00    +0.000 HD
BRANCH  41  44
ATOM     44  C   UNL     1     -11.463  -4.661  16.538  0.00  0.00    +0.000 C 
ATOM     45  H   UNL     1     -11.317  -4.571  15.454  0.00  0.00    +0.000 HD
ATOM     46  H   UNL     1     -12.439  -5.157  16.670  0.00  0.00    +0.000 HD
BRANCH  44  47
ATOM     47  N   UNL     1     -10.401  -5.500  17.101  0.00  0.00    +0.000 NA
ATOM     48  C   UNL     1     -10.888  -6.545  18.018  0.00  0.00    +0.000 C 
ATOM     49  C   UNL     1      -9.722  -7.395  18.575  0.00  0.00    +0.000 C 
ATOM     50  N   UNL     1      -8.872  -8.032  17.552  0.00  0.00    +0.000 NA
ATOM     51  C   UNL     1      -8.454  -7.009  16.570  0.00  0.00    +0.000 C 
ATOM     52  C   UNL     1      -9.599  -6.118  16.024  0.00  0.00    +0.000 C 
ATOM     53  H   UNL     1     -11.622  -7.191  17.517  0.00  0.00    +0.000 HD
ATOM     54  H   UNL     1     -11.391  -6.090  18.878  0.00  0.00    +0.000 HD
ATOM     55  H   UNL     1     -10.116  -8.152  19.264  0.00  0.00    +0.000 HD
ATOM     56  H   UNL     1      -9.083  -6.745  19.188  0.00  0.00    +0.000 HD
ATOM     57  H   UNL     1      -7.926  -7.480  15.732  0.00  0.00    +0.000 HD
ATOM     58  H   UNL     1      -7.717  -6.356  17.055  0.00  0.00    +0.000 HD
ATOM     59  H   UNL     1     -10.232  -6.725  15.368  0.00  0.00    +0.000 HD
ATOM     60  H   UNL     1      -9.152  -5.335  15.402  0.00  0.00    +0.000 HD
BRANCH  50  61
ATOM     61  C   UNL     1      -9.551  -9.154  16.911  0.00  0.00    +0.000 C 
ATOM     62  H   UNL     1      -9.097 -10.101  17.225  0.00  0.00    +0.000 HD
ATOM     63  H   UNL     1      -9.433  -9.099  15.824  0.00  0.00    +0.000 HD
ATOM     64  H   UNL     1     -10.622  -9.201  17.135  0.00  0.00    +0.000 HD
ENDBRANCH  50  61
ENDBRANCH  44  47
ENDBRANCH  41  44
ENDBRANCH  38  41
ENDBRANCH  18  38
BRANCH   1  65
ATOM     65  O   UNL     1      -7.038  -5.804  20.301  0.00  0.00    +0.000 OA
BRANCH  65  66
ATOM     66  C   UNL     1      -6.115  -5.739  19.219  0.00  0.00    +0.000 C 
ATOM     67  H   UNL     1      -6.577  -6.224  18.354  0.00  0.00    +0.000 HD
ATOM     68  H   UNL     1      -5.190  -6.281  19.446  0.00  0.00    +0.000 HD
ATOM     69  H   UNL     1      -5.906  -4.700  18.947  0.00  0.00    +0.000 HD
ENDBRANCH  65  66
ENDBRANCH   1  65
TORSDOF 8
ENDMDL
MODEL 7
REMARK VINA RESULT:    -7.902      4.343      7.121
REMARK INTER + INTRA:         -11.777
REMARK INTER:                 -10.974
REMARK INTRA:                  -0.803
REMARK UNBOUND:                -0.873
REMARK  Name = 
REMARK  8 active torsions:
REMARK  status: ('A' for Active; 'I' for Inactive)
REMARK    1  A    between atoms: C_1  and  O_2
REMARK    2  A    between atoms: O_2  and  C_3
REMARK    3  A    between atoms: N_17  and  C_18
REMARK    4  A    between atoms: N_21  and  C_22
REMARK    5  A    between atoms: C_22  and  C_23
REMARK    6  A    between atoms: C_23  and  C_24
REMARK    7  A    between atoms: C_24  and  N_25
REMARK    8  A    between atoms: N_28  and  C_29
REMARK                            x       y       z     vdW  Elec       q    Type
REMARK                         _______ _______ _______ _____ _____    ______ ____
ROOT
ATOM      1  C   UNL     1      -7.512  -2.848  21.920  0.00  0.00    +0.000 A 
ATOM      2  C   UNL     1      -7.329  -2.054  23.045  0.00  0.00    +0.000 A 
ATOM      3  C   UNL     1      -8.150  -0.942  23.275  0.00  0.00    +0.000 A 
ATOM      4  C   UNL     1      -9.171  -0.615  22.364  0.00  0.00    +0.000 A 
ATOM      5  C   UNL     1     -10.198   0.308  22.245  0.00  0.00    +0.000 A 
ATOM      6  C   UNL     1     -10.361   1.380  23.144  0.00  0.00    +0.000 A 
ATOM      7  C   UNL     1     -11.558   2.105  23.031  0.00  0.00    +0.000 A 
ATOM      8  C   UNL     1     -12.322   2.132  21.865  0.00  0.00    +0.000 A 
ATOM      9  C   UNL     1     -12.009   1.175  20.849  0.00  0.00    +0.000 A 
ATOM     10  C   UNL     1     -12.447   1.418  19.537  0.00  0.00    +0.000 A 
ATOM     11  C   UNL     1     -12.627   2.745  19.124  0.00  0.00    +0.000 A 
ATOM     12  C   UNL     1     -12.555   3.711  20.138  0.00  0.00    +0.000 A 
ATOM     13  C   UNL     1     -11.687   4.836  20.398  0.00  0.00    +0.000 A 
ATOM     14  C   UNL     1     -11.975   5.276  21.680  0.00  0.00    +0.000 A 
ATOM     15  N   UNL     1     -13.150   4.604  21.987  0.00  0.00    +0.000 N 
ATOM     16  C   UNL     1     -12.942   3.328  21.436  0.00  0.00    +0.000 A 
ATOM     17  C   UNL     1     -11.001   0.196  21.130  0.00  0.00    +0.000 A 
ATOM     18  N   UNL     1     -10.366  -0.846  20.441  0.00  0.00    +0.000 N 
ATOM     19  C   UNL     1      -9.333  -1.404  21.214  0.00  0.00    +0.000 A 
ATOM     20  C   UNL     1      -8.505  -2.523  20.990  0.00  0.00    +0.000 A 
ATOM     21  C   UNL     1     -11.556   3.083  24.090  0.00  0.00    +0.000 C 
ATOM     22  O   UNL     1     -12.431   3.758  24.615  0.00  0.00    +0.000 OA
ATOM     23  N   UNL     1     -10.250   3.106  24.448  0.00  0.00    +0.000 N 
ATOM     24  C   UNL     1      -9.468   2.091  23.996  0.00  0.00    +0.000 C 
ATOM     25  O   UNL     1      -8.265   2.031  24.226  0.00  0.00    +0.000 OA
ATOM     26  H   UNL     1      -6.562  -2.267  23.782  0.00  0.00    +0.000 HD
ATOM     27  H   UNL     1      -7.997  -0.361  24.179  0.00  0.00    +0.000 HD
ATOM     28  H   UNL     1     -12.369   0.687  18.749  0.00  0.00    +0.000 HD
ATOM     29  H   UNL     1     -12.544   3.009  18.083  0.00  0.00    +0.000 HD
ATOM     30  H   UNL     1     -10.861   5.172  19.791  0.00  0.00    +0.000 HD
ATOM     31  H   UNL     1     -11.578   6.040  22.339  0.00  0.00    +0.000 HD
ATOM     32  H   UNL     1      -8.624  -3.141  20.105  0.00  0.00    +0.000 HD
ATOM     33  H   UNL     1      -9.861   3.926  24.908  0.00  0.00    +0.000 HD
ENDROOT
BRANCH  15  34
ATOM     34  C   UNL     1     -14.404   5.339  21.791  0.00  0.00    +0.000 C 
ATOM     35  H   UNL     1     -14.403   6.210  22.447  0.00  0.00    +0.000 HD
ATOM     36  H   UNL     1     -15.253   4.683  21.991  0.00  0.00    +0.000 HD
ATOM     37  H   UNL     1     -14.443   5.673  20.743  0.00  0.00    +0.000 HD
ENDBRANCH  15  34
BRANCH  18  38
ATOM     38  C   UNL     1     -10.732  -1.364  19.132  0.00  0.00    +0.000 C 
ATOM     39  H   UNL     1      -9.800  -1.532  18.586  0.00  0.00    +0.000 HD
ATOM     40  H   UNL     1     -11.247  -0.577  18.572  0.00  0.00    +0.000 HD
BRANCH  38  41
ATOM     41  C   UNL     1     -11.567  -2.658  19.157  0.00  0.00    +0.000 C 
ATOM     42  H   UNL     1     -12.611  -2.442  19.391  0.00  0.00    +0.000 HD
ATOM     43  H   UNL     1     -11.200  -3.281  19.986  0.00  0.00    +0.000 HD
BRANCH  41  44
ATOM     44  C   UNL     1     -11.569  -3.480  17.866  0.00  0.00    +0.000 C 
ATOM     45  H   UNL     1     -10.922  -2.971  17.139  0.00  0.00    +0.000 HD
ATOM     46  H   UNL     1     -12.584  -3.449  17.438  0.00  0.00    +0.000 HD
BRANCH  44  47
ATOM     47  N   UNL     1     -11.134  -4.873  18.009  0.00  0.00    +0.000 NA
ATOM     48  C   UNL     1     -11.342  -5.691  16.802  0.00  0.00    +0.000 C 
ATOM     49  C   UNL     1     -10.862  -7.145  17.017  0.00  0.00    +0.000 C 
ATOM     50  N   UNL     1      -9.455  -7.281  17.436  0.00  0.00    +0.000 NA
ATOM     51  C   UNL     1      -9.210  -6.392  18.591  0.00  0.00    +0.000 C 
ATOM     52  C   UNL     1      -9.714  -4.937  18.415  0.00  0.00    +0.000 C 
ATOM     53  H   UNL     1     -10.828  -5.246  15.939  0.00  0.00    +0.000 HD
ATOM     54  H   UNL     1     -12.408  -5.739  16.556  0.00  0.00    +0.000 HD
ATOM     55  H   UNL     1     -11.044  -7.730  16.107  0.00  0.00    +0.000 HD
ATOM     56  H   UNL     1     -11.491  -7.606  17.792  0.00  0.00    +0.000 HD
ATOM     57  H   UNL     1      -8.141  -6.380  18.841  0.00  0.00    +0.000 HD
ATOM     58  H   UNL     1      -9.714  -6.824  19.464  0.00  0.00    +0.000 HD
ATOM     59  H   UNL     1      -9.077  -4.431  17.681  0.00  0.00    +0.000 HD
ATOM     60  H   UNL     1      -9.580  -4.414  19.369  0.00  0.00    +0.000 HD
BRANCH  50  61
ATOM     61  C   UNL     1      -8.537  -7.008  16.334  0.00  0.00    +0.000 C 
ATOM     62  H   UNL     1      -8.331  -5.934  16.270  0.00  0.00    +0.000 HD
ATOM     63  H   UNL     1      -8.995  -7.292  15.381  0.00  0.00    +0.000 HD
ATOM     64  H   UNL     1      -7.581  -7.533  16.422  0.00  0.00    +0.000 HD
ENDBRANCH  50  61
ENDBRANCH  44  47
ENDBRANCH  41  44
ENDBRANCH  38  41
ENDBRANCH  18  38
BRANCH   1  65
ATOM     65  O   UNL     1      -6.784  -3.967  21.610  0.00  0.00    +0.000 OA
BRANCH  65  66
ATOM     66  C   UNL     1      -5.389  -3.788  21.391  0.00  0.00    +0.000 C 
ATOM     67  H   UNL     1      -5.099  -4.421  20.546  0.00  0.00    +0.000 HD
ATOM     68  H   UNL     1      -4.801  -4.106  22.259  0.00  0.00    +0.000 HD
ATOM     69  H   UNL     1      -5.166  -2.751  21.123  0.00  0.00    +0.000 HD
ENDBRANCH  65  66
ENDBRANCH   1  65
TORSDOF 8
ENDMDL
MODEL 8
REMARK VINA RESULT:    -7.749      2.451      6.905
REMARK INTER + INTRA:         -11.566
REMARK INTER:                 -10.315
REMARK INTRA:                  -1.252
REMARK UNBOUND:                -0.873
REMARK  Name = 
REMARK  8 active torsions:
REMARK  status: ('A' for Active; 'I' for Inactive)
REMARK    1  A    between atoms: C_1  and  O_2
REMARK    2  A    between atoms: O_2  and  C_3
REMARK    3  A    between atoms: N_17  and  C_18
REMARK    4  A    between atoms: N_21  and  C_22
REMARK    5  A    between atoms: C_22  and  C_23
REMARK    6  A    between atoms: C_23  and  C_24
REMARK    7  A    between atoms: C_24  and  N_25
REMARK    8  A    between atoms: N_28  and  C_29
REMARK                            x       y       z     vdW  Elec       q    Type
REMARK                         _______ _______ _______ _____ _____    ______ ____
ROOT
ATOM      1  C   UNL     1      -9.242  -8.542  17.687  0.00  0.00    +0.000 A 
ATOM      2  C   UNL     1      -8.482  -8.136  18.777  0.00  0.00    +0.000 A 
ATOM      3  C   UNL     1      -8.549  -6.815  19.240  0.00  0.00    +0.000 A 
ATOM      4  C   UNL     1      -9.388  -5.882  18.605  0.00  0.00    +0.000 A 
ATOM      5  C   UNL     1      -9.785  -4.564  18.767  0.00  0.00    +0.000 A 
ATOM      6  C   UNL     1      -9.208  -3.713  19.730  0.00  0.00    +0.000 A 
ATOM      7  C   UNL     1      -9.850  -2.481  19.928  0.00  0.00    +0.000 A 
ATOM      8  C   UNL     1     -10.674  -1.890  18.970  0.00  0.00    +0.000 A 
ATOM      9  C   UNL     1     -11.086  -2.701  17.865  0.00  0.00    +0.000 A 
ATOM     10  C   UNL     1     -11.550  -2.066  16.701  0.00  0.00    +0.000 A 
ATOM     11  C   UNL     1     -11.080  -0.780  16.404  0.00  0.00    +0.000 A 
ATOM     12  C   UNL     1     -10.341  -0.154  17.420  0.00  0.00    +0.000 A 
ATOM     13  C   UNL     1      -8.984   0.330  17.527  0.00  0.00    +0.000 A 
ATOM     14  C   UNL     1      -8.776   0.644  18.861  0.00  0.00    +0.000 A 
ATOM     15  N   UNL     1     -10.056   0.609  19.396  0.00  0.00    +0.000 N 
ATOM     16  C   UNL     1     -10.642  -0.494  18.752  0.00  0.00    +0.000 A 
ATOM     17  C   UNL     1     -10.706  -4.082  17.862  0.00  0.00    +0.000 A 
ATOM     18  N   UNL     1     -10.837  -5.177  16.997  0.00  0.00    +0.000 N 
ATOM     19  C   UNL     1     -10.132  -6.291  17.485  0.00  0.00    +0.000 A 
ATOM     20  C   UNL     1     -10.062  -7.622  17.026  0.00  0.00    +0.000 A 
ATOM     21  C   UNL     1      -9.157  -1.817  21.003  0.00  0.00    +0.000 C 
ATOM     22  O   UNL     1      -9.447  -0.888  21.746  0.00  0.00    +0.000 OA
ATOM     23  N   UNL     1      -7.992  -2.506  21.054  0.00  0.00    +0.000 N 
ATOM     24  C   UNL     1      -7.945  -3.689  20.388  0.00  0.00    +0.000 C 
ATOM     25  O   UNL     1      -6.932  -4.376  20.333  0.00  0.00    +0.000 OA
ATOM     26  H   UNL     1      -7.826  -8.817  19.307  0.00  0.00    +0.000 HD
ATOM     27  H   UNL     1      -7.964  -6.541  20.112  0.00  0.00    +0.000 HD
ATOM     28  H   UNL     1     -12.001  -2.603  15.883  0.00  0.00    +0.000 HD
ATOM     29  H   UNL     1     -11.050  -0.431  15.386  0.00  0.00    +0.000 HD
ATOM     30  H   UNL     1      -8.223   0.300  16.763  0.00  0.00    +0.000 HD
ATOM     31  H   UNL     1      -7.933   0.992  19.447  0.00  0.00    +0.000 HD
ATOM     32  H   UNL     1     -10.635  -7.948  16.162  0.00  0.00    +0.000 HD
ATOM     33  H   UNL     1      -7.161  -2.074  21.451  0.00  0.00    +0.000 HD
ENDROOT
BRANCH  15  34
ATOM     34  C   UNL     1     -10.755   1.892  19.527  0.00  0.00    +0.000 C 
ATOM     35  H   UNL     1     -10.146   2.668  19.060  0.00  0.00    +0.000 HD
ATOM     36  H   UNL     1     -10.944   2.106  20.580  0.00  0.00    +0.000 HD
ATOM     37  H   UNL     1     -11.715   1.813  18.995  0.00  0.00    +0.000 HD
ENDBRANCH  15  34
BRANCH  18  38
ATOM     38  C   UNL     1     -11.637  -5.227  15.783  0.00  0.00    +0.000 C 
ATOM     39  H   UNL     1     -12.530  -4.624  15.968  0.00  0.00    +0.000 HD
ATOM     40  H   UNL     1     -12.012  -6.246  15.648  0.00  0.00    +0.000 HD
BRANCH  38  41
ATOM     41  C   UNL     1     -10.920  -4.730  14.514  0.00  0.00    +0.000 C 
ATOM     42  H   UNL     1     -10.518  -5.569  13.942  0.00  0.00    +0.000 HD
ATOM     43  H   UNL     1     -10.048  -4.139  14.827  0.00  0.00    +0.000 HD
BRANCH  41  44
ATOM     44  C   UNL     1     -11.770  -3.908  13.542  0.00  0.00    +0.000 C 
ATOM     45  H   UNL     1     -12.558  -3.408  14.121  0.00  0.00    +0.000 HD
ATOM     46  H   UNL     1     -12.291  -4.603  12.863  0.00  0.00    +0.000 HD
BRANCH  44  47
ATOM     47  N   UNL     1     -11.037  -2.908  12.760  0.00  0.00    +0.000 NA
ATOM     48  C   UNL     1     -11.638  -1.564  12.792  0.00  0.00    +0.000 C 
ATOM     49  C   UNL     1     -10.817  -0.559  11.951  0.00  0.00    +0.000 C 
ATOM     50  N   UNL     1      -9.397  -0.443  12.331  0.00  0.00    +0.000 NA
ATOM     51  C   UNL     1      -8.805  -1.796  12.394  0.00  0.00    +0.000 C 
ATOM     52  C   UNL     1      -9.627  -2.833  13.201  0.00  0.00    +0.000 C 
ATOM     53  H   UNL     1     -11.732  -1.205  13.826  0.00  0.00    +0.000 HD
ATOM     54  H   UNL     1     -12.646  -1.590  12.365  0.00  0.00    +0.000 HD
ATOM     55  H   UNL     1     -11.298   0.427  11.984  0.00  0.00    +0.000 HD
ATOM     56  H   UNL     1     -10.861  -0.871  10.899  0.00  0.00    +0.000 HD
ATOM     57  H   UNL     1      -7.786  -1.746  12.796  0.00  0.00    +0.000 HD
ATOM     58  H   UNL     1      -8.701  -2.168  11.368  0.00  0.00    +0.000 HD
ATOM     59  H   UNL     1      -9.566  -2.578  14.264  0.00  0.00    +0.000 HD
ATOM     60  H   UNL     1      -9.150  -3.812  13.079  0.00  0.00    +0.000 HD
BRANCH  50  61
ATOM     61  C   UNL     1      -9.234   0.282  13.588  0.00  0.00    +0.000 C 
ATOM     62  H   UNL     1      -9.447   1.346  13.441  0.00  0.00    +0.000 HD
ATOM     63  H   UNL     1      -8.195   0.218  13.930  0.00  0.00    +0.000 HD
ATOM     64  H   UNL     1      -9.880  -0.087  14.391  0.00  0.00    +0.000 HD
ENDBRANCH  50  61
ENDBRANCH  44  47
ENDBRANCH  41  44
ENDBRANCH  38  41
ENDBRANCH  18  38
BRANCH   1  65
ATOM     65  O   UNL     1      -9.271  -9.809  17.166  0.00  0.00    +0.000 OA
BRANCH  65  66
ATOM     66  C   UNL     1      -8.859 -10.868  18.024  0.00  0.00    +0.000 C 
ATOM     67  H   UNL     1      -8.052 -10.490  18.659  0.00  0.00    +0.000 HD
ATOM     68  H   UNL     1      -8.461 -11.716  17.455  0.00  0.00    +0.000 HD
ATOM     69  H   UNL     1      -9.679 -11.181  18.677  0.00  0.00    +0.000 HD
ENDBRANCH  65  66
ENDBRANCH   1  65
TORSDOF 8
ENDMDL
