MODEL 1
REMARK VINA RESULT:   -11.841      0.000      0.000
REMARK INTER + INTRA:         -15.948
REMARK INTER:                 -15.302
REMARK INTRA:                  -0.646
REMARK UNBOUND:                -0.646
REMARK  Name = 
REMARK  6 active torsions:
REMARK  status: ('A' for Active; 'I' for Inactive)
REMARK    1  A    between atoms: C_1  and  N_2
REMARK    2  A    between atoms: C_12  and  C_13
REMARK    3  A    between atoms: C_13  and  C_14
REMARK    4  A    between atoms: C_14  and  N_15
REMARK    5  A    between atoms: N_15  and  C_16
REMARK    6  A    between atoms: C_19  and  O_20
REMARK                            x       y       z     vdW  Elec       q    Type
REMARK                         _______ _______ _______ _____ _____    ______ ____
ROOT
ATOM      1  N   UNL     1      -9.912   0.847  23.094  0.00  0.00    +0.000 N 
ATOM      2  C   UNL     1     -10.841   1.872  22.827  0.00  0.00    +0.000 A 
ATOM      3  C   UNL     1     -10.706   1.989  21.460  0.00  0.00    +0.000 A 
ATOM      4  C   UNL     1     -10.846   0.607  21.146  0.00  0.00    +0.000 A 
ATOM      5  C   UNL     1     -11.484  -0.029  20.077  0.00  0.00    +0.000 A 
ATOM      6  C   UNL     1     -11.206  -1.351  19.833  0.00  0.00    +0.000 A 
ATOM      7  C   UNL     1     -10.137  -1.917  20.520  0.00  0.00    +0.000 A 
ATOM      8  C   UNL     1      -9.581  -3.045  19.947  0.00  0.00    +0.000 A 
ATOM      9  N   UNL     1     -10.029  -3.942  19.013  0.00  0.00    +0.000 N 
ATOM     10  C   UNL     1      -9.262  -5.096  19.062  0.00  0.00    +0.000 A 
ATOM     11  C   UNL     1      -9.578  -6.353  18.535  0.00  0.00    +0.000 A 
ATOM     12  C   UNL     1      -8.604  -7.348  18.699  0.00  0.00    +0.000 A 
ATOM     13  C   UNL     1      -7.394  -7.081  19.335  0.00  0.00    +0.000 A 
ATOM     14  C   UNL     1      -7.122  -5.823  19.857  0.00  0.00    +0.000 A 
ATOM     15  C   UNL     1      -8.084  -4.818  19.770  0.00  0.00    +0.000 A 
ATOM     16  C   UNL     1      -8.328  -3.518  20.248  0.00  0.00    +0.000 A 
ATOM     17  C   UNL     1      -7.655  -2.994  21.380  0.00  0.00    +0.000 A 
ATOM     18  C   UNL     1      -8.512  -2.209  22.222  0.00  0.00    +0.000 A 
ATOM     19  C   UNL     1      -9.551  -1.395  21.715  0.00  0.00    +0.000 A 
ATOM     20  C   UNL     1     -10.027  -0.102  22.081  0.00  0.00    +0.000 A 
ATOM     21  C   UNL     1      -8.410  -2.952  23.468  0.00  0.00    +0.000 C 
ATOM     22  O   UNL     1      -9.250  -3.284  24.297  0.00  0.00    +0.000 OA
ATOM     23  N   UNL     1      -7.168  -3.561  23.394  0.00  0.00    +0.000 N 
ATOM     24  C   UNL     1      -6.621  -3.561  22.140  0.00  0.00    +0.000 C 
ATOM     25  O   UNL     1      -5.508  -4.024  21.884  0.00  0.00    +0.000 OA
ATOM     26  H   UNL     1     -11.767   1.810  23.394  0.00  0.00    +0.000 HD
ATOM     27  H   UNL     1      -9.841   2.520  21.051  0.00  0.00    +0.000 HD
ATOM     28  H   UNL     1     -12.155   0.524  19.429  0.00  0.00    +0.000 HD
ATOM     29  H   UNL     1     -11.706  -1.843  19.009  0.00  0.00    +0.000 HD
ATOM     30  H   UNL     1     -10.934  -3.892  18.575  0.00  0.00    +0.000 HD
ATOM     31  H   UNL     1      -8.783  -8.347  18.305  0.00  0.00    +0.000 HD
ATOM     32  H   UNL     1      -6.651  -7.870  19.433  0.00  0.00    +0.000 HD
ATOM     33  H   UNL     1      -6.168  -5.657  20.365  0.00  0.00    +0.000 HD
ATOM     34  H   UNL     1      -6.922  -4.327  24.004  0.00  0.00    +0.000 HD
ENDROOT
BRANCH   1  35
ATOM     35  C   UNL     1      -9.222   0.875  24.358  0.00  0.00    +0.000 C 
ATOM     36  H   UNL     1      -9.949   0.775  25.164  0.00  0.00    +0.000 HD
ATOM     37  H   UNL     1      -8.613   1.775  24.427  0.00  0.00    +0.000 HD
ATOM     38  H   UNL     1      -8.557  -0.001  24.393  0.00  0.00    +0.000 HD
ENDBRANCH   1  35
BRANCH  11  39
ATOM     39  C   UNL     1     -10.852  -6.601  17.764  0.00  0.00    +0.000 C 
ATOM     40  H   UNL     1     -11.491  -5.708  17.808  0.00  0.00    +0.000 HD
ATOM     41  H   UNL     1     -11.427  -7.410  18.228  0.00  0.00    +0.000 HD
BRANCH  39  42
ATOM     42  C   UNL     1     -10.466  -6.931  16.321  0.00  0.00    +0.000 C 
ATOM     43  H   UNL     1      -9.373  -6.856  16.270  0.00  0.00    +0.000 HD
ATOM     44  H   UNL     1     -10.891  -6.175  15.644  0.00  0.00    +0.000 HD
BRANCH  42  45
ATOM     45  N   UNL     1     -10.910  -8.267  15.888  0.00  0.00    +0.000 NA
ATOM     46  H   UNL     1     -11.274  -8.213  14.933  0.00  0.00    +0.000 HD
BRANCH  45  47
ATOM     47  C   UNL     1      -9.805  -9.236  15.947  0.00  0.00    +0.000 C 
ATOM     48  C   UNL     1     -10.022 -10.286  17.052  0.00  0.00    +0.000 C 
ATOM     49  C   UNL     1      -8.951 -11.369  17.046  0.00  0.00    +0.000 C 
ATOM     50  C   UNL     1      -8.866 -12.040  15.683  0.00  0.00    +0.000 C 
ATOM     51  C   UNL     1      -8.585 -11.009  14.592  0.00  0.00    +0.000 C 
ATOM     52  C   UNL     1      -9.653  -9.913  14.575  0.00  0.00    +0.000 C 
ATOM     53  H   UNL     1      -8.872  -8.693  16.158  0.00  0.00    +0.000 HD
ATOM     54  H   UNL     1     -11.010 -10.750  16.935  0.00  0.00    +0.000 HD
ATOM     55  H   UNL     1     -10.002  -9.822  18.044  0.00  0.00    +0.000 HD
ATOM     56  H   UNL     1      -9.176 -12.111  17.820  0.00  0.00    +0.000 HD
ATOM     57  H   UNL     1      -7.971 -10.945  17.314  0.00  0.00    +0.000 HD
ATOM     58  H   UNL     1      -9.810 -12.559  15.468  0.00  0.00    +0.000 HD
ATOM     59  H   UNL     1      -8.532 -11.504  13.617  0.00  0.00    +0.000 HD
ATOM     60  H   UNL     1      -7.594 -10.563  14.752  0.00  0.00    +0.000 HD
ATOM     61  H   UNL     1     -10.612 -10.349  14.263  0.00  0.00    +0.000 HD
ATOM     62  H   UNL     1      -9.386  -9.162  13.819  0.00  0.00    +0.000 HD
BRANCH  50  63
ATOM     63  O   UNL     1      -7.839 -13.022  15.700  0.00  0.00    +0.000 OA
ATOM     64  H   UNL     1      -8.256 -13.900  15.689  0.00  0.00    +0.000 HD
ENDBRANCH  50  63
ENDBRANCH  45  47
ENDBRANCH  42  45
ENDBRANCH  39  42
ENDBRANCH  11  39
TORSDOF 6
ENDMDL
MODEL 2
REMARK VINA RESULT:   -11.237      1.215      1.504
REMARK INTER + INTRA:         -15.167
REMARK INTER:                 -14.500
REMARK INTRA:                  -0.668
REMARK UNBOUND:                -0.646
REMARK  Name = 
REMARK  6 active torsions:
REMARK  status: ('A' for Active; 'I' for Inactive)
REMARK    1  A    between atoms: C_1  and  N_2
REMARK    2  A    between atoms: C_12  and  C_13
REMARK    3  A    between atoms: C_13  and  C_14
REMARK    4  A    between atoms: C_14  and  N_15
REMARK    5  A    between atoms: N_15  and  C_16
REMARK    6  A    between atoms: C_19  and  O_20
REMARK                            x       y       z     vdW  Elec       q    Type
REMARK                         _______ _______ _______ _____ _____    ______ ____
ROOT
ATOM      1  N   UNL     1     -11.399   1.520  21.408  0.00  0.00    +0.000 N 
ATOM      2  C   UNL     1     -12.052   2.529  20.673  0.00  0.00    +0.000 A 
ATOM      3  C   UNL     1     -11.289   2.542  19.524  0.00  0.00    +0.000 A 
ATOM      4  C   UNL     1     -11.324   1.141  19.269  0.00  0.00    +0.000 A 
ATOM      5  C   UNL     1     -11.416   0.431  18.068  0.00  0.00    +0.000 A 
ATOM      6  C   UNL     1     -11.112  -0.908  18.067  0.00  0.00    +0.000 A 
ATOM      7  C   UNL     1     -10.512  -1.429  19.210  0.00  0.00    +0.000 A 
ATOM      8  C   UNL     1      -9.801  -2.601  19.036  0.00  0.00    +0.000 A 
ATOM      9  N   UNL     1      -9.799  -3.562  18.060  0.00  0.00    +0.000 N 
ATOM     10  C   UNL     1      -9.193  -4.715  18.535  0.00  0.00    +0.000 A 
ATOM     11  C   UNL     1      -9.279  -6.006  18.002  0.00  0.00    +0.000 A 
ATOM     12  C   UNL     1      -8.537  -6.993  18.666  0.00  0.00    +0.000 A 
ATOM     13  C   UNL     1      -7.754  -6.688  19.777  0.00  0.00    +0.000 A 
ATOM     14  C   UNL     1      -7.705  -5.396  20.285  0.00  0.00    +0.000 A 
ATOM     15  C   UNL     1      -8.471  -4.394  19.694  0.00  0.00    +0.000 A 
ATOM     16  C   UNL     1      -8.855  -3.059  19.919  0.00  0.00    +0.000 A 
ATOM     17  C   UNL     1      -8.767  -2.456  21.199  0.00  0.00    +0.000 A 
ATOM     18  C   UNL     1      -9.884  -1.604  21.489  0.00  0.00    +0.000 A 
ATOM     19  C   UNL     1     -10.531  -0.822  20.504  0.00  0.00    +0.000 A 
ATOM     20  C   UNL     1     -11.068   0.498  20.522  0.00  0.00    +0.000 A 
ATOM     21  C   UNL     1     -10.407  -2.251  22.682  0.00  0.00    +0.000 C 
ATOM     22  O   UNL     1     -11.550  -2.513  23.039  0.00  0.00    +0.000 OA
ATOM     23  N   UNL     1      -9.301  -2.873  23.237  0.00  0.00    +0.000 N 
ATOM     24  C   UNL     1      -8.233  -2.972  22.388  0.00  0.00    +0.000 C 
ATOM     25  O   UNL     1      -7.149  -3.462  22.714  0.00  0.00    +0.000 OA
ATOM     26  H   UNL     1     -13.137   2.517  20.742  0.00  0.00    +0.000 HD
ATOM     27  H   UNL     1     -10.312   3.034  19.536  0.00  0.00    +0.000 HD
ATOM     28  H   UNL     1     -11.682   0.939  17.148  0.00  0.00    +0.000 HD
ATOM     29  H   UNL     1     -11.190  -1.456  17.138  0.00  0.00    +0.000 HD
ATOM     30  H   UNL     1     -10.391  -3.539  17.247  0.00  0.00    +0.000 HD
ATOM     31  H   UNL     1      -8.553  -8.017  18.298  0.00  0.00    +0.000 HD
ATOM     32  H   UNL     1      -7.177  -7.473  20.262  0.00  0.00    +0.000 HD
ATOM     33  H   UNL     1      -7.092  -5.199  21.169  0.00  0.00    +0.000 HD
ATOM     34  H   UNL     1      -9.401  -3.593  23.938  0.00  0.00    +0.000 HD
ENDROOT
BRANCH   1  35
ATOM     35  C   UNL     1     -11.379   1.639  22.843  0.00  0.00    +0.000 C 
ATOM     36  H   UNL     1     -11.865   2.571  23.131  0.00  0.00    +0.000 HD
ATOM     37  H   UNL     1     -10.357   1.546  23.208  0.00  0.00    +0.000 HD
ATOM     38  H   UNL     1     -11.973   0.808  23.254  0.00  0.00    +0.000 HD
ENDBRANCH   1  35
BRANCH  11  39
ATOM     39  C   UNL     1     -10.055  -6.302  16.742  0.00  0.00    +0.000 C 
ATOM     40  H   UNL     1      -9.360  -6.573  15.935  0.00  0.00    +0.000 HD
ATOM     41  H   UNL     1     -10.584  -5.405  16.400  0.00  0.00    +0.000 HD
BRANCH  39  42
ATOM     42  C   UNL     1     -11.018  -7.451  17.047  0.00  0.00    +0.000 C 
ATOM     43  H   UNL     1     -12.000  -6.992  17.217  0.00  0.00    +0.000 HD
ATOM     44  H   UNL     1     -10.711  -7.952  17.977  0.00  0.00    +0.000 HD
BRANCH  42  45
ATOM     45  N   UNL     1     -11.097  -8.450  15.968  0.00  0.00    +0.000 NA
ATOM     46  H   UNL     1     -11.163  -7.972  15.065  0.00  0.00    +0.000 HD
BRANCH  45  47
ATOM     47  C   UNL     1      -9.921  -9.334  15.979  0.00  0.00    +0.000 C 
ATOM     48  C   UNL     1      -9.986 -10.359  17.127  0.00  0.00    +0.000 C 
ATOM     49  C   UNL     1      -8.840 -11.361  17.080  0.00  0.00    +0.000 C 
ATOM     50  C   UNL     1      -8.795 -12.070  15.733  0.00  0.00    +0.000 C 
ATOM     51  C   UNL     1      -8.665 -11.059  14.596  0.00  0.00    +0.000 C 
ATOM     52  C   UNL     1      -9.810 -10.044  14.621  0.00  0.00    +0.000 C 
ATOM     53  H   UNL     1      -9.019  -8.718  16.110  0.00  0.00    +0.000 HD
ATOM     54  H   UNL     1     -10.942 -10.897  17.091  0.00  0.00    +0.000 HD
ATOM     55  H   UNL     1      -9.936  -9.861  18.101  0.00  0.00    +0.000 HD
ATOM     56  H   UNL     1      -8.958 -12.091  17.887  0.00  0.00    +0.000 HD
ATOM     57  H   UNL     1      -7.879 -10.859  17.268  0.00  0.00    +0.000 HD
ATOM     58  H   UNL     1      -9.710 -12.662  15.599  0.00  0.00    +0.000 HD
ATOM     59  H   UNL     1      -8.639 -11.582  13.635  0.00  0.00    +0.000 HD
ATOM     60  H   UNL     1      -7.701 -10.538  14.676  0.00  0.00    +0.000 HD
ATOM     61  H   UNL     1     -10.752 -10.559  14.388  0.00  0.00    +0.000 HD
ATOM     62  H   UNL     1      -9.650  -9.302  13.827  0.00  0.00    +0.000 HD
BRANCH  50  63
ATOM     63  O   UNL     1      -7.700 -12.974  15.708  0.00  0.00    +0.000 OA
ATOM     64  H   UNL     1      -6.879 -12.458  15.643  0.00  0.00    +0.000 HD
ENDBRANCH  50  63
ENDBRANCH  45  47
ENDBRANCH  42  45
ENDBRANCH  39  42
ENDBRANCH  11  39
TORSDOF 6
ENDMDL
MODEL 3
REMARK VINA RESULT:   -11.067      2.397      3.416
REMARK INTER + INTRA:         -14.948
REMARK INTER:                 -14.464
REMARK INTRA:                  -0.483
REMARK UNBOUND:                -0.646
REMARK  Name = 
REMARK  6 active torsions:
REMARK  status: ('A' for Active; 'I' for Inactive)
REMARK    1  A    between atoms: C_1  and  N_2
REMARK    2  A    between atoms: C_12  and  C_13
REMARK    3  A    between atoms: C_13  and  C_14
REMARK    4  A    between atoms: C_14  and  N_15
REMARK    5  A    between atoms: N_15  and  C_16
REMARK    6  A    between atoms: C_19  and  O_20
REMARK                            x       y       z     vdW  Elec       q    Type
REMARK                         _______ _______ _______ _____ _____    ______ ____
ROOT
ATOM      1  N   UNL     1     -11.860   0.718  18.008  0.00  0.00    +0.000 N 
ATOM      2  C   UNL     1     -12.558   1.312  16.938  0.00  0.00    +0.000 A 
ATOM      3  C   UNL     1     -11.861   0.799  15.864  0.00  0.00    +0.000 A 
ATOM      4  C   UNL     1     -11.904  -0.569  16.257  0.00  0.00    +0.000 A 
ATOM      5  C   UNL     1     -12.060  -1.735  15.501  0.00  0.00    +0.000 A 
ATOM      6  C   UNL     1     -11.750  -2.942  16.076  0.00  0.00    +0.000 A 
ATOM      7  C   UNL     1     -11.085  -2.916  17.299  0.00  0.00    +0.000 A 
ATOM      8  C   UNL     1     -10.379  -4.059  17.624  0.00  0.00    +0.000 A 
ATOM      9  N   UNL     1     -10.427  -5.353  17.176  0.00  0.00    +0.000 N 
ATOM     10  C   UNL     1      -9.790  -6.188  18.079  0.00  0.00    +0.000 A 
ATOM     11  C   UNL     1      -9.900  -7.580  18.178  0.00  0.00    +0.000 A 
ATOM     12  C   UNL     1      -9.118  -8.187  19.170  0.00  0.00    +0.000 A 
ATOM     13  C   UNL     1      -8.274  -7.439  19.988  0.00  0.00    +0.000 A 
ATOM     14  C   UNL     1      -8.202  -6.057  19.869  0.00  0.00    +0.000 A 
ATOM     15  C   UNL     1      -9.005  -5.404  18.936  0.00  0.00    +0.000 A 
ATOM     16  C   UNL     1      -9.383  -4.099  18.568  0.00  0.00    +0.000 A 
ATOM     17  C   UNL     1      -9.225  -2.995  19.442  0.00  0.00    +0.000 A 
ATOM     18  C   UNL     1     -10.329  -2.079  19.383  0.00  0.00    +0.000 A 
ATOM     19  C   UNL     1     -11.033  -1.800  18.190  0.00  0.00    +0.000 A 
ATOM     20  C   UNL     1     -11.574  -0.597  17.650  0.00  0.00    +0.000 A 
ATOM     21  C   UNL     1     -10.780  -2.122  20.765  0.00  0.00    +0.000 C 
ATOM     22  O   UNL     1     -11.899  -2.175  21.261  0.00  0.00    +0.000 OA
ATOM     23  N   UNL     1      -9.642  -2.457  21.479  0.00  0.00    +0.000 N 
ATOM     24  C   UNL     1      -8.622  -2.943  20.707  0.00  0.00    +0.000 C 
ATOM     25  O   UNL     1      -7.520  -3.260  21.158  0.00  0.00    +0.000 OA
ATOM     26  H   UNL     1     -13.637   1.354  17.062  0.00  0.00    +0.000 HD
ATOM     27  H   UNL     1     -10.888   1.225  15.605  0.00  0.00    +0.000 HD
ATOM     28  H   UNL     1     -12.380  -1.680  14.467  0.00  0.00    +0.000 HD
ATOM     29  H   UNL     1     -11.878  -3.843  15.492  0.00  0.00    +0.000 HD
ATOM     30  H   UNL     1     -11.065  -5.679  16.468  0.00  0.00    +0.000 HD
ATOM     31  H   UNL     1      -9.149  -9.268  19.294  0.00  0.00    +0.000 HD
ATOM     32  H   UNL     1      -7.667  -7.941  20.739  0.00  0.00    +0.000 HD
ATOM     33  H   UNL     1      -7.542  -5.503  20.541  0.00  0.00    +0.000 HD
ATOM     34  H   UNL     1      -9.698  -2.790  22.431  0.00  0.00    +0.000 HD
ENDROOT
BRANCH   1  35
ATOM     35  C   UNL     1     -11.759   1.458  19.240  0.00  0.00    +0.000 C 
ATOM     36  H   UNL     1     -10.708   1.573  19.502  0.00  0.00    +0.000 HD
ATOM     37  H   UNL     1     -12.354   0.974  20.012  0.00  0.00    +0.000 HD
ATOM     38  H   UNL     1     -12.173   2.463  19.058  0.00  0.00    +0.000 HD
ENDBRANCH   1  35
BRANCH  11  39
ATOM     39  C   UNL     1     -10.744  -8.387  17.221  0.00  0.00    +0.000 C 
ATOM     40  H   UNL     1     -11.637  -7.811  16.941  0.00  0.00    +0.000 HD
ATOM     41  H   UNL     1     -11.109  -9.297  17.709  0.00  0.00    +0.000 HD
BRANCH  39  42
ATOM     42  C   UNL     1      -9.885  -8.701  15.994  0.00  0.00    +0.000 C 
ATOM     43  H   UNL     1      -9.527  -7.737  15.614  0.00  0.00    +0.000 HD
ATOM     44  H   UNL     1     -10.511  -9.163  15.216  0.00  0.00    +0.000 HD
BRANCH  42  45
ATOM     45  N   UNL     1      -8.750  -9.592  16.288  0.00  0.00    +0.000 NA
ATOM     46  H   UNL     1      -8.362  -9.358  17.206  0.00  0.00    +0.000 HD
BRANCH  45  47
ATOM     47  C   UNL     1      -9.166 -11.003  16.267  0.00  0.00    +0.000 C 
ATOM     48  C   UNL     1      -8.505 -11.778  15.112  0.00  0.00    +0.000 C 
ATOM     49  C   UNL     1      -8.827 -13.266  15.149  0.00  0.00    +0.000 C 
ATOM     50  C   UNL     1      -8.436 -13.872  16.490  0.00  0.00    +0.000 C 
ATOM     51  C   UNL     1      -9.141 -13.147  17.634  0.00  0.00    +0.000 C 
ATOM     52  C   UNL     1      -8.828 -11.649  17.620  0.00  0.00    +0.000 C 
ATOM     53  H   UNL     1     -10.258 -11.045  16.139  0.00  0.00    +0.000 HD
ATOM     54  H   UNL     1      -7.417 -11.639  15.147  0.00  0.00    +0.000 HD
ATOM     55  H   UNL     1      -8.846 -11.401  14.141  0.00  0.00    +0.000 HD
ATOM     56  H   UNL     1      -8.299 -13.775  14.336  0.00  0.00    +0.000 HD
ATOM     57  H   UNL     1      -9.898 -13.435  14.963  0.00  0.00    +0.000 HD
ATOM     58  H   UNL     1      -7.348 -13.803  16.622  0.00  0.00    +0.000 HD
ATOM     59  H   UNL     1      -8.848 -13.590  18.591  0.00  0.00    +0.000 HD
ATOM     60  H   UNL     1     -10.226 -13.303  17.557  0.00  0.00    +0.000 HD
ATOM     61  H   UNL     1      -7.764 -11.502  17.852  0.00  0.00    +0.000 HD
ATOM     62  H   UNL     1      -9.397 -11.155  18.419  0.00  0.00    +0.000 HD
BRANCH  50  63
ATOM     63  O   UNL     1      -8.776 -15.251  16.505  0.00  0.00    +0.000 OA
ATOM     64  H   UNL     1      -8.843 -15.539  17.431  0.00  0.00    +0.000 HD
ENDBRANCH  50  63
ENDBRANCH  45  47
ENDBRANCH  42  45
ENDBRANCH  39  42
ENDBRANCH  11  39
TORSDOF 6
ENDMDL
MODEL 4
REMARK VINA RESULT:   -10.530      3.118      4.959
REMARK INTER + INTRA:         -14.254
REMARK INTER:                 -13.755
REMARK INTRA:                  -0.498
REMARK UNBOUND:                -0.646
REMARK  Name = 
REMARK  6 active torsions:
REMARK  status: ('A' for Active; 'I' for Inactive)
REMARK    1  A    between atoms: C_1  and  N_2
REMARK    2  A    between atoms: C_12  and  C_13
REMARK    3  A    between atoms: C_13  and  C_14
REMARK    4  A    between atoms: C_14  and  N_15
REMARK    5  A    between atoms: N_15  and  C_16
REMARK    6  A    between atoms: C_19  and  O_20
REMARK                            x       y       z     vdW  Elec       q    Type
REMARK                         _______ _______ _______ _____ _____    ______ ____
ROOT
ATOM      1  N   UNL     1     -12.168  -0.536  15.843  0.00  0.00    +0.000 N 
ATOM      2  C   UNL     1     -12.724  -0.085  14.631  0.00  0.00    +0.000 A 
ATOM      3  C   UNL     1     -11.831  -0.621  13.726  0.00  0.00    +0.000 A 
ATOM      4  C   UNL     1     -11.844  -1.953  14.228  0.00  0.00    +0.000 A 
ATOM      5  C   UNL     1     -11.797  -3.183  13.564  0.00  0.00    +0.000 A 
ATOM      6  C   UNL     1     -11.503  -4.313  14.285  0.00  0.00    +0.000 A 
ATOM      7  C   UNL     1     -11.044  -4.140  15.587  0.00  0.00    +0.000 A 
ATOM      8  C   UNL     1     -10.324  -5.192  16.118  0.00  0.00    +0.000 A 
ATOM      9  N   UNL     1     -10.212  -6.517  15.784  0.00  0.00    +0.000 N 
ATOM     10  C   UNL     1      -9.673  -7.226  16.845  0.00  0.00    +0.000 A 
ATOM     11  C   UNL     1      -9.702  -8.611  17.049  0.00  0.00    +0.000 A 
ATOM     12  C   UNL     1      -9.050  -9.074  18.200  0.00  0.00    +0.000 A 
ATOM     13  C   UNL     1      -8.400  -8.199  19.068  0.00  0.00    +0.000 A 
ATOM     14  C   UNL     1      -8.404  -6.830  18.839  0.00  0.00    +0.000 A 
ATOM     15  C   UNL     1      -9.090  -6.317  17.740  0.00  0.00    +0.000 A 
ATOM     16  C   UNL     1      -9.491  -5.080  17.203  0.00  0.00    +0.000 A 
ATOM     17  C   UNL     1      -9.551  -3.902  17.989  0.00  0.00    +0.000 A 
ATOM     18  C   UNL     1     -10.690  -3.086  17.681  0.00  0.00    +0.000 A 
ATOM     19  C   UNL     1     -11.212  -2.957  16.373  0.00  0.00    +0.000 A 
ATOM     20  C   UNL     1     -11.740  -1.847  15.652  0.00  0.00    +0.000 A 
ATOM     21  C   UNL     1     -11.353  -3.058  18.975  0.00  0.00    +0.000 C 
ATOM     22  O   UNL     1     -12.531  -3.163  19.296  0.00  0.00    +0.000 OA
ATOM     23  N   UNL     1     -10.323  -3.244  19.883  0.00  0.00    +0.000 N 
ATOM     24  C   UNL     1      -9.163  -3.704  19.322  0.00  0.00    +0.000 C 
ATOM     25  O   UNL     1      -8.128  -3.896  19.964  0.00  0.00    +0.000 OA
ATOM     26  H   UNL     1     -13.810  -0.121  14.583  0.00  0.00    +0.000 HD
ATOM     27  H   UNL     1     -10.860  -0.138  13.584  0.00  0.00    +0.000 HD
ATOM     28  H   UNL     1     -11.951  -3.234  12.491  0.00  0.00    +0.000 HD
ATOM     29  H   UNL     1     -11.474  -5.264  13.770  0.00  0.00    +0.000 HD
ATOM     30  H   UNL     1     -10.705  -6.947  15.019  0.00  0.00    +0.000 HD
ATOM     31  H   UNL     1      -9.027 -10.142  18.414  0.00  0.00    +0.000 HD
ATOM     32  H   UNL     1      -7.889  -8.591  19.945  0.00  0.00    +0.000 HD
ATOM     33  H   UNL     1      -7.899  -6.173  19.553  0.00  0.00    +0.000 HD
ATOM     34  H   UNL     1     -10.509  -3.507  20.840  0.00  0.00    +0.000 HD
ENDROOT
BRANCH   1  35
ATOM     35  C   UNL     1     -12.316   0.303  17.005  0.00  0.00    +0.000 C 
ATOM     36  H   UNL     1     -11.691   1.188  16.889  0.00  0.00    +0.000 HD
ATOM     37  H   UNL     1     -12.100  -0.270  17.905  0.00  0.00    +0.000 HD
ATOM     38  H   UNL     1     -13.365   0.634  17.044  0.00  0.00    +0.000 HD
ENDBRANCH   1  35
BRANCH  11  39
ATOM     39  C   UNL     1     -10.326  -9.554  16.049  0.00  0.00    +0.000 C 
ATOM     40  H   UNL     1     -11.297  -9.157  15.722  0.00  0.00    +0.000 HD
ATOM     41  H   UNL     1     -10.535 -10.522  16.517  0.00  0.00    +0.000 HD
BRANCH  39  42
ATOM     42  C   UNL     1      -9.361  -9.687  14.870  0.00  0.00    +0.000 C 
ATOM     43  H   UNL     1      -8.880  -8.708  14.755  0.00  0.00    +0.000 HD
ATOM     44  H   UNL     1      -9.928  -9.898  13.951  0.00  0.00    +0.000 HD
BRANCH  42  45
ATOM     45  N   UNL     1      -8.347 -10.739  15.059  0.00  0.00    +0.000 NA
ATOM     46  H   UNL     1      -7.642 -10.417  15.727  0.00  0.00    +0.000 HD
BRANCH  45  47
ATOM     47  C   UNL     1      -8.963 -11.983  15.546  0.00  0.00    +0.000 C 
ATOM     48  C   UNL     1      -8.686 -13.167  14.601  0.00  0.00    +0.000 C 
ATOM     49  C   UNL     1      -9.209 -14.488  15.151  0.00  0.00    +0.000 C 
ATOM     50  C   UNL     1      -8.636 -14.764  16.534  0.00  0.00    +0.000 C 
ATOM     51  C   UNL     1      -8.966 -13.621  17.492  0.00  0.00    +0.000 C 
ATOM     52  C   UNL     1      -8.444 -12.283  16.961  0.00  0.00    +0.000 C 
ATOM     53  H   UNL     1     -10.051 -11.835  15.613  0.00  0.00    +0.000 HD
ATOM     54  H   UNL     1      -7.607 -13.251  14.417  0.00  0.00    +0.000 HD
ATOM     55  H   UNL     1      -9.166 -13.014  13.628  0.00  0.00    +0.000 HD
ATOM     56  H   UNL     1      -8.949 -15.300  14.465  0.00  0.00    +0.000 HD
ATOM     57  H   UNL     1     -10.309 -14.478  15.200  0.00  0.00    +0.000 HD
ATOM     58  H   UNL     1      -7.547 -14.886  16.463  0.00  0.00    +0.000 HD
ATOM     59  H   UNL     1      -8.544 -13.830  18.480  0.00  0.00    +0.000 HD
ATOM     60  H   UNL     1     -10.052 -13.566  17.640  0.00  0.00    +0.000 HD
ATOM     61  H   UNL     1      -7.345 -12.299  16.963  0.00  0.00    +0.000 HD
ATOM     62  H   UNL     1      -8.750 -11.481  17.646  0.00  0.00    +0.000 HD
BRANCH  50  63
ATOM     63  O   UNL     1      -9.166 -15.984  17.033  0.00  0.00    +0.000 OA
ATOM     64  H   UNL     1      -9.618 -16.441  16.305  0.00  0.00    +0.000 HD
ENDBRANCH  50  63
ENDBRANCH  45  47
ENDBRANCH  42  45
ENDBRANCH  39  42
ENDBRANCH  11  39
TORSDOF 6
ENDMDL
MODEL 5
REMARK VINA RESULT:   -10.268      2.928      4.332
REMARK INTER + INTRA:         -13.915
REMARK INTER:                 -13.334
REMARK INTRA:                  -0.581
REMARK UNBOUND:                -0.646
REMARK  Name = 
REMARK  6 active torsions:
REMARK  status: ('A' for Active; 'I' for Inactive)
REMARK    1  A    between atoms: C_1  and  N_2
REMARK    2  A    between atoms: C_12  and  C_13
REMARK    3  A    between atoms: C_13  and  C_14
REMARK    4  A    between atoms: C_14  and  N_15
REMARK    5  A    between atoms: N_15  and  C_16
REMARK    6  A    between atoms: C_19  and  O_20
REMARK                            x       y       z     vdW  Elec       q    Type
REMARK                         _______ _______ _______ _____ _____    ______ ____
ROOT
ATOM      1  N   UNL     1     -11.126   2.042  20.888  0.00  0.00    +0.000 N 
ATOM      2  C   UNL     1     -11.301   2.269  22.267  0.00  0.00    +0.000 A 
ATOM      3  C   UNL     1     -12.346   1.410  22.536  0.00  0.00    +0.000 A 
ATOM      4  C   UNL     1     -11.789   0.250  21.925  0.00  0.00    +0.000 A 
ATOM      5  C   UNL     1     -11.831  -1.095  22.305  0.00  0.00    +0.000 A 
ATOM      6  C   UNL     1     -11.488  -2.052  21.383  0.00  0.00    +0.000 A 
ATOM      7  C   UNL     1     -11.339  -1.644  20.061  0.00  0.00    +0.000 A 
ATOM      8  C   UNL     1     -11.466  -2.634  19.106  0.00  0.00    +0.000 A 
ATOM      9  N   UNL     1     -11.394  -4.002  19.155  0.00  0.00    +0.000 N 
ATOM     10  C   UNL     1     -11.210  -4.510  17.879  0.00  0.00    +0.000 A 
ATOM     11  C   UNL     1     -10.759  -5.787  17.526  0.00  0.00    +0.000 A 
ATOM     12  C   UNL     1     -10.692  -6.055  16.152  0.00  0.00    +0.000 A 
ATOM     13  C   UNL     1     -11.072  -5.103  15.208  0.00  0.00    +0.000 A 
ATOM     14  C   UNL     1     -11.501  -3.841  15.597  0.00  0.00    +0.000 A 
ATOM     15  C   UNL     1     -11.528  -3.509  16.950  0.00  0.00    +0.000 A 
ATOM     16  C   UNL     1     -11.723  -2.390  17.780  0.00  0.00    +0.000 A 
ATOM     17  C   UNL     1     -11.602  -1.064  17.295  0.00  0.00    +0.000 A 
ATOM     18  C   UNL     1     -10.958  -0.187  18.230  0.00  0.00    +0.000 A 
ATOM     19  C   UNL     1     -11.127  -0.297  19.629  0.00  0.00    +0.000 A 
ATOM     20  C   UNL     1     -11.264   0.675  20.663  0.00  0.00    +0.000 A 
ATOM     21  C   UNL     1      -9.813   0.243  17.443  0.00  0.00    +0.000 C 
ATOM     22  O   UNL     1      -8.630   0.389  17.728  0.00  0.00    +0.000 OA
ATOM     23  N   UNL     1     -10.246   0.129  16.132  0.00  0.00    +0.000 N 
ATOM     24  C   UNL     1     -11.385  -0.614  15.984  0.00  0.00    +0.000 C 
ATOM     25  O   UNL     1     -11.941  -0.796  14.899  0.00  0.00    +0.000 OA
ATOM     26  H   UNL     1     -10.380   2.381  22.834  0.00  0.00    +0.000 HD
ATOM     27  H   UNL     1     -13.362   1.698  22.251  0.00  0.00    +0.000 HD
ATOM     28  H   UNL     1     -12.168  -1.376  23.296  0.00  0.00    +0.000 HD
ATOM     29  H   UNL     1     -11.515  -3.092  21.681  0.00  0.00    +0.000 HD
ATOM     30  H   UNL     1     -11.210  -4.525  19.995  0.00  0.00    +0.000 HD
ATOM     31  H   UNL     1     -10.358  -7.033  15.809  0.00  0.00    +0.000 HD
ATOM     32  H   UNL     1     -11.024  -5.346  14.148  0.00  0.00    +0.000 HD
ATOM     33  H   UNL     1     -11.774  -3.115  14.826  0.00  0.00    +0.000 HD
ATOM     34  H   UNL     1      -9.593   0.131  15.362  0.00  0.00    +0.000 HD
ENDROOT
BRANCH   1  35
ATOM     35  C   UNL     1     -10.679   3.144  20.076  0.00  0.00    +0.000 C 
ATOM     36  H   UNL     1     -11.085   3.035  19.071  0.00  0.00    +0.000 HD
ATOM     37  H   UNL     1      -9.593   3.209  20.106  0.00  0.00    +0.000 HD
ATOM     38  H   UNL     1     -11.097   4.067  20.509  0.00  0.00    +0.000 HD
ENDBRANCH   1  35
BRANCH  11  39
ATOM     39  C   UNL     1     -10.444  -6.840  18.561  0.00  0.00    +0.000 C 
ATOM     40  H   UNL     1     -11.263  -7.571  18.606  0.00  0.00    +0.000 HD
ATOM     41  H   UNL     1     -10.383  -6.388  19.558  0.00  0.00    +0.000 HD
BRANCH  39  42
ATOM     42  C   UNL     1      -9.129  -7.511  18.158  0.00  0.00    +0.000 C 
ATOM     43  H   UNL     1      -8.331  -6.810  18.431  0.00  0.00    +0.000 HD
ATOM     44  H   UNL     1      -9.105  -7.646  17.066  0.00  0.00    +0.000 HD
BRANCH  42  45
ATOM     45  N   UNL     1      -8.915  -8.814  18.808  0.00  0.00    +0.000 NA
ATOM     46  H   UNL     1      -9.456  -8.856  19.676  0.00  0.00    +0.000 HD
BRANCH  45  47
ATOM     47  C   UNL     1      -9.310  -9.919  17.920  0.00  0.00    +0.000 C 
ATOM     48  C   UNL     1      -9.125  -9.555  16.435  0.00  0.00    +0.000 C 
ATOM     49  C   UNL     1      -9.411 -10.728  15.507  0.00  0.00    +0.000 C 
ATOM     50  C   UNL     1      -8.553 -11.931  15.873  0.00  0.00    +0.000 C 
ATOM     51  C   UNL     1      -8.784 -12.335  17.327  0.00  0.00    +0.000 C 
ATOM     52  C   UNL     1      -8.496 -11.172  18.280  0.00  0.00    +0.000 C 
ATOM     53  H   UNL     1     -10.372 -10.147  18.095  0.00  0.00    +0.000 HD
ATOM     54  H   UNL     1      -8.101  -9.198  16.266  0.00  0.00    +0.000 HD
ATOM     55  H   UNL     1      -9.800  -8.744  16.143  0.00  0.00    +0.000 HD
ATOM     56  H   UNL     1      -9.223 -10.430  14.471  0.00  0.00    +0.000 HD
ATOM     57  H   UNL     1     -10.476 -11.004  15.550  0.00  0.00    +0.000 HD
ATOM     58  H   UNL     1      -7.493 -11.687  15.720  0.00  0.00    +0.000 HD
ATOM     59  H   UNL     1      -8.157 -13.197  17.578  0.00  0.00    +0.000 HD
ATOM     60  H   UNL     1      -9.820 -12.676  17.455  0.00  0.00    +0.000 HD
ATOM     61  H   UNL     1      -7.422 -10.943  18.254  0.00  0.00    +0.000 HD
ATOM     62  H   UNL     1      -8.729 -11.483  19.307  0.00  0.00    +0.000 HD
BRANCH  50  63
ATOM     63  O   UNL     1      -8.864 -13.017  15.011  0.00  0.00    +0.000 OA
ATOM     64  H   UNL     1      -9.506 -13.590  15.462  0.00  0.00    +0.000 HD
ENDBRANCH  50  63
ENDBRANCH  45  47
ENDBRANCH  42  45
ENDBRANCH  39  42
ENDBRANCH  11  39
TORSDOF 6
ENDMDL
MODEL 6
REMARK VINA RESULT:    -9.940      4.909      6.975
REMARK INTER + INTRA:         -13.492
REMARK INTER:                 -13.061
REMARK INTRA:                  -0.430
REMARK UNBOUND:                -0.646
REMARK  Name = 
REMARK  6 active torsions:
REMARK  status: ('A' for Active; 'I' for Inactive)
REMARK    1  A    between atoms: C_1  and  N_2
REMARK    2  A    between atoms: C_12  and  C_13
REMARK    3  A    between atoms: C_13  and  C_14
REMARK    4  A    between atoms: C_14  and  N_15
REMARK    5  A    between atoms: N_15  and  C_16
REMARK    6  A    between atoms: C_19  and  O_20
REMARK                            x       y       z     vdW  Elec       q    Type
REMARK                         _______ _______ _______ _____ _____    ______ ____
ROOT
ATOM      1  N   UNL     1     -13.079  -0.017  11.756  0.00  0.00    +0.000 N 
ATOM      2  C   UNL     1     -13.400  -0.250  10.405  0.00  0.00    +0.000 A 
ATOM      3  C   UNL     1     -12.340  -1.048  10.026  0.00  0.00    +0.000 A 
ATOM      4  C   UNL     1     -12.424  -1.982  11.097  0.00  0.00    +0.000 A 
ATOM      5  C   UNL     1     -12.229  -3.366  11.123  0.00  0.00    +0.000 A 
ATOM      6  C   UNL     1     -12.057  -3.986  12.336  0.00  0.00    +0.000 A 
ATOM      7  C   UNL     1     -11.862  -3.174  13.449  0.00  0.00    +0.000 A 
ATOM      8  C   UNL     1     -11.238  -3.770  14.528  0.00  0.00    +0.000 A 
ATOM      9  N   UNL     1     -11.039  -5.075  14.895  0.00  0.00    +0.000 N 
ATOM     10  C   UNL     1     -10.701  -5.141  16.237  0.00  0.00    +0.000 A 
ATOM     11  C   UNL     1     -10.743  -6.262  17.074  0.00  0.00    +0.000 A 
ATOM     12  C   UNL     1     -10.316  -6.058  18.393  0.00  0.00    +0.000 A 
ATOM     13  C   UNL     1      -9.862  -4.813  18.825  0.00  0.00    +0.000 A 
ATOM     14  C   UNL     1      -9.847  -3.721  17.968  0.00  0.00    +0.000 A 
ATOM     15  C   UNL     1     -10.318  -3.861  16.664  0.00  0.00    +0.000 A 
ATOM     16  C   UNL     1     -10.631  -3.072  15.542  0.00  0.00    +0.000 A 
ATOM     17  C   UNL     1     -10.863  -1.677  15.644  0.00  0.00    +0.000 A 
ATOM     18  C   UNL     1     -11.936  -1.230  14.803  0.00  0.00    +0.000 A 
ATOM     19  C   UNL     1     -12.199  -1.787  13.531  0.00  0.00    +0.000 A 
ATOM     20  C   UNL     1     -12.598  -1.210  12.290  0.00  0.00    +0.000 A 
ATOM     21  C   UNL     1     -12.836  -0.671  15.799  0.00  0.00    +0.000 C 
ATOM     22  O   UNL     1     -14.051  -0.740  15.938  0.00  0.00    +0.000 OA
ATOM     23  N   UNL     1     -11.997  -0.297  16.836  0.00  0.00    +0.000 N 
ATOM     24  C   UNL     1     -10.742  -0.837  16.760  0.00  0.00    +0.000 C 
ATOM     25  O   UNL     1      -9.847  -0.591  17.571  0.00  0.00    +0.000 OA
ATOM     26  H   UNL     1     -14.455  -0.422  10.207  0.00  0.00    +0.000 HD
ATOM     27  H   UNL     1     -11.369  -0.586   9.826  0.00  0.00    +0.000 HD
ATOM     28  H   UNL     1     -12.172  -3.930  10.199  0.00  0.00    +0.000 HD
ATOM     29  H   UNL     1     -11.912  -5.058  12.354  0.00  0.00    +0.000 HD
ATOM     30  H   UNL     1     -11.367  -5.864  14.363  0.00  0.00    +0.000 HD
ATOM     31  H   UNL     1     -10.315  -6.891  19.094  0.00  0.00    +0.000 HD
ATOM     32  H   UNL     1      -9.521  -4.690  19.851  0.00  0.00    +0.000 HD
ATOM     33  H   UNL     1      -9.501  -2.756  18.348  0.00  0.00    +0.000 HD
ATOM     34  H   UNL     1     -12.358  -0.098  17.758  0.00  0.00    +0.000 HD
ENDROOT
BRANCH   1  35
ATOM     35  C   UNL     1     -13.464   1.247  12.331  0.00  0.00    +0.000 C 
ATOM     36  H   UNL     1     -13.479   1.156  13.416  0.00  0.00    +0.000 HD
ATOM     37  H   UNL     1     -14.410   1.574  11.905  0.00  0.00    +0.000 HD
ATOM     38  H   UNL     1     -12.688   1.982  12.065  0.00  0.00    +0.000 HD
ENDBRANCH   1  35
BRANCH  11  39
ATOM     39  C   UNL     1     -11.146  -7.625  16.566  0.00  0.00    +0.000 C 
ATOM     40  H   UNL     1     -11.719  -7.519  15.634  0.00  0.00    +0.000 HD
ATOM     41  H   UNL     1     -11.815  -8.116  17.281  0.00  0.00    +0.000 HD
BRANCH  39  42
ATOM     42  C   UNL     1      -9.866  -8.432  16.336  0.00  0.00    +0.000 C 
ATOM     43  H   UNL     1      -9.055  -7.701  16.238  0.00  0.00    +0.000 HD
ATOM     44  H   UNL     1      -9.945  -8.984  15.387  0.00  0.00    +0.000 HD
BRANCH  42  45
ATOM     45  N   UNL     1      -9.572  -9.384  17.421  0.00  0.00    +0.000 NA
ATOM     46  H   UNL     1     -10.448  -9.691  17.852  0.00  0.00    +0.000 HD
BRANCH  45  47
ATOM     47  C   UNL     1      -8.829 -10.549  16.915  0.00  0.00    +0.000 C 
ATOM     48  C   UNL     1      -9.141 -11.822  17.723  0.00  0.00    +0.000 C 
ATOM     49  C   UNL     1      -8.477 -13.062  17.137  0.00  0.00    +0.000 C 
ATOM     50  C   UNL     1      -8.868 -13.248  15.678  0.00  0.00    +0.000 C 
ATOM     51  C   UNL     1      -8.500 -12.011  14.860  0.00  0.00    +0.000 C 
ATOM     52  C   UNL     1      -9.162 -10.752  15.428  0.00  0.00    +0.000 C 
ATOM     53  H   UNL     1      -7.752 -10.339  16.992  0.00  0.00    +0.000 HD
ATOM     54  H   UNL     1     -10.227 -11.977  17.768  0.00  0.00    +0.000 HD
ATOM     55  H   UNL     1      -8.788 -11.728  18.755  0.00  0.00    +0.000 HD
ATOM     56  H   UNL     1      -8.765 -13.942  17.721  0.00  0.00    +0.000 HD
ATOM     57  H   UNL     1      -7.382 -12.991  17.223  0.00  0.00    +0.000 HD
ATOM     58  H   UNL     1      -9.948 -13.431  15.607  0.00  0.00    +0.000 HD
ATOM     59  H   UNL     1      -8.791 -12.156  13.815  0.00  0.00    +0.000 HD
ATOM     60  H   UNL     1      -7.409 -11.888  14.849  0.00  0.00    +0.000 HD
ATOM     61  H   UNL     1     -10.249 -10.825  15.292  0.00  0.00    +0.000 HD
ATOM     62  H   UNL     1      -8.828  -9.880  14.851  0.00  0.00    +0.000 HD
BRANCH  50  63
ATOM     63  O   UNL     1      -8.210 -14.392  15.151  0.00  0.00    +0.000 OA
ATOM     64  H   UNL     1      -7.335 -14.458  15.567  0.00  0.00    +0.000 HD
ENDBRANCH  50  63
ENDBRANCH  45  47
ENDBRANCH  42  45
ENDBRANCH  39  42
ENDBRANCH  11  39
TORSDOF 6
ENDMDL
MODEL 7
REMARK VINA RESULT:    -9.797      5.125      8.954
REMARK INTER + INTRA:         -13.307
REMARK INTER:                 -12.193
REMARK INTRA:                  -1.113
REMARK UNBOUND:                -0.646
REMARK  Name = 
REMARK  6 active torsions:
REMARK  status: ('A' for Active; 'I' for Inactive)
REMARK    1  A    between atoms: C_1  and  N_2
REMARK    2  A    between atoms: C_12  and  C_13
REMARK    3  A    between atoms: C_13  and  C_14
REMARK    4  A    between atoms: C_14  and  N_15
REMARK    5  A    between atoms: N_15  and  C_16
REMARK    6  A    between atoms: C_19  and  O_20
REMARK                            x       y       z     vdW  Elec       q    Type
REMARK                         _______ _______ _______ _____ _____    ______ ____
ROOT
ATOM      1  N   UNL     1      -8.866  -9.457  18.766  0.00  0.00    +0.000 N 
ATOM      2  C   UNL     1      -8.585 -10.743  18.264  0.00  0.00    +0.000 A 
ATOM      3  C   UNL     1      -9.528 -10.837  17.262  0.00  0.00    +0.000 A 
ATOM      4  C   UNL     1      -9.244  -9.593  16.630  0.00  0.00    +0.000 A 
ATOM      5  C   UNL     1      -9.223  -9.237  15.278  0.00  0.00    +0.000 A 
ATOM      6  C   UNL     1      -9.231  -7.905  14.945  0.00  0.00    +0.000 A 
ATOM      7  C   UNL     1      -9.490  -6.992  15.964  0.00  0.00    +0.000 A 
ATOM      8  C   UNL     1      -9.956  -5.756  15.561  0.00  0.00    +0.000 A 
ATOM      9  N   UNL     1      -9.931  -5.086  14.365  0.00  0.00    +0.000 N 
ATOM     10  C   UNL     1     -10.183  -3.739  14.575  0.00  0.00    +0.000 A 
ATOM     11  C   UNL     1      -9.924  -2.677  13.701  0.00  0.00    +0.000 A 
ATOM     12  C   UNL     1     -10.307  -1.407  14.151  0.00  0.00    +0.000 A 
ATOM     13  C   UNL     1     -10.923  -1.230  15.388  0.00  0.00    +0.000 A 
ATOM     14  C   UNL     1     -11.152  -2.308  16.234  0.00  0.00    +0.000 A 
ATOM     15  C   UNL     1     -10.735  -3.582  15.854  0.00  0.00    +0.000 A 
ATOM     16  C   UNL     1     -10.608  -4.877  16.390  0.00  0.00    +0.000 A 
ATOM     17  C   UNL     1     -10.589  -5.115  17.787  0.00  0.00    +0.000 A 
ATOM     18  C   UNL     1      -9.644  -6.126  18.165  0.00  0.00    +0.000 A 
ATOM     19  C   UNL     1      -9.367  -7.257  17.364  0.00  0.00    +0.000 A 
ATOM     20  C   UNL     1      -9.128  -8.626  17.679  0.00  0.00    +0.000 A 
ATOM     21  C   UNL     1      -8.789  -5.366  19.063  0.00  0.00    +0.000 C 
ATOM     22  O   UNL     1      -7.572  -5.323  19.196  0.00  0.00    +0.000 OA
ATOM     23  N   UNL     1      -9.619  -4.372  19.553  0.00  0.00    +0.000 N 
ATOM     24  C   UNL     1     -10.778  -4.213  18.844  0.00  0.00    +0.000 C 
ATOM     25  O   UNL     1     -11.656  -3.403  19.149  0.00  0.00    +0.000 OA
ATOM     26  H   UNL     1      -7.528 -10.989  18.198  0.00  0.00    +0.000 HD
ATOM     27  H   UNL     1     -10.569 -11.049  17.525  0.00  0.00    +0.000 HD
ATOM     28  H   UNL     1      -9.241 -10.000  14.508  0.00  0.00    +0.000 HD
ATOM     29  H   UNL     1      -9.208  -7.632  13.899  0.00  0.00    +0.000 HD
ATOM     30  H   UNL     1      -9.514  -5.452  13.525  0.00  0.00    +0.000 HD
ATOM     31  H   UNL     1     -10.141  -0.537  13.517  0.00  0.00    +0.000 HD
ATOM     32  H   UNL     1     -11.223  -0.233  15.704  0.00  0.00    +0.000 HD
ATOM     33  H   UNL     1     -11.622  -2.127  17.204  0.00  0.00    +0.000 HD
ATOM     34  H   UNL     1      -9.245  -3.554  20.013  0.00  0.00    +0.000 HD
ENDROOT
BRANCH   1  35
ATOM     35  C   UNL     1      -8.651  -9.220  20.170  0.00  0.00    +0.000 C 
ATOM     36  H   UNL     1      -8.299  -8.199  20.310  0.00  0.00    +0.000 HD
ATOM     37  H   UNL     1      -7.979  -9.975  20.574  0.00  0.00    +0.000 HD
ATOM     38  H   UNL     1      -9.625  -9.313  20.675  0.00  0.00    +0.000 HD
ENDBRANCH   1  35
BRANCH  11  39
ATOM     39  C   UNL     1      -9.344  -2.896  12.325  0.00  0.00    +0.000 C 
ATOM     40  H   UNL     1      -9.774  -3.805  11.882  0.00  0.00    +0.000 HD
ATOM     41  H   UNL     1      -8.264  -3.070  12.389  0.00  0.00    +0.000 HD
BRANCH  39  42
ATOM     42  C   UNL     1      -9.673  -1.664  11.479  0.00  0.00    +0.000 C 
ATOM     43  H   UNL     1      -8.725  -1.329  11.041  0.00  0.00    +0.000 HD
ATOM     44  H   UNL     1     -10.050  -0.861  12.130  0.00  0.00    +0.000 HD
BRANCH  42  45
ATOM     45  N   UNL     1     -10.664  -1.928  10.422  0.00  0.00    +0.000 NA
ATOM     46  H   UNL     1     -10.840  -2.934  10.364  0.00  0.00    +0.000 HD
BRANCH  45  47
ATOM     47  C   UNL     1     -11.923  -1.215  10.688  0.00  0.00    +0.000 C 
ATOM     48  C   UNL     1     -12.863  -2.031  11.594  0.00  0.00    +0.000 C 
ATOM     49  C   UNL     1     -14.117  -1.258  11.981  0.00  0.00    +0.000 C 
ATOM     50  C   UNL     1     -13.757   0.066  12.640  0.00  0.00    +0.000 C 
ATOM     51  C   UNL     1     -12.878   0.905  11.716  0.00  0.00    +0.000 C 
ATOM     52  C   UNL     1     -11.607   0.150  11.319  0.00  0.00    +0.000 C 
ATOM     53  H   UNL     1     -12.432  -1.032   9.730  0.00  0.00    +0.000 HD
ATOM     54  H   UNL     1     -12.329  -2.337  12.503  0.00  0.00    +0.000 HD
ATOM     55  H   UNL     1     -13.194  -2.948  11.094  0.00  0.00    +0.000 HD
ATOM     56  H   UNL     1     -14.727  -1.864  12.658  0.00  0.00    +0.000 HD
ATOM     57  H   UNL     1     -14.746  -1.074  11.096  0.00  0.00    +0.000 HD
ATOM     58  H   UNL     1     -13.227  -0.126  13.583  0.00  0.00    +0.000 HD
ATOM     59  H   UNL     1     -12.622   1.851  12.204  0.00  0.00    +0.000 HD
ATOM     60  H   UNL     1     -13.445   1.181  10.817  0.00  0.00    +0.000 HD
ATOM     61  H   UNL     1     -10.976   0.016  12.207  0.00  0.00    +0.000 HD
ATOM     62  H   UNL     1     -11.032   0.761  10.611  0.00  0.00    +0.000 HD
BRANCH  50  63
ATOM     63  O   UNL     1     -14.944   0.776  12.960  0.00  0.00    +0.000 OA
ATOM     64  H   UNL     1     -15.131   0.649  13.905  0.00  0.00    +0.000 HD
ENDBRANCH  50  63
ENDBRANCH  45  47
ENDBRANCH  42  45
ENDBRANCH  39  42
ENDBRANCH  11  39
TORSDOF 6
ENDMDL
MODEL 8
REMARK VINA RESULT:    -9.775      2.612      4.174
REMARK INTER + INTRA:         -13.278
REMARK INTER:                 -12.313
REMARK INTRA:                  -0.965
REMARK UNBOUND:                -0.646
REMARK  Name = 
REMARK  6 active torsions:
REMARK  status: ('A' for Active; 'I' for Inactive)
REMARK    1  A    between atoms: C_1  and  N_2
REMARK    2  A    between atoms: C_12  and  C_13
REMARK    3  A    between atoms: C_13  and  C_14
REMARK    4  A    between atoms: C_14  and  N_15
REMARK    5  A    between atoms: N_15  and  C_16
REMARK    6  A    between atoms: C_19  and  O_20
REMARK                            x       y       z     vdW  Elec       q    Type
REMARK                         _______ _______ _______ _____ _____    ______ ____
ROOT
ATOM      1  N   UNL     1      -9.737   0.714  23.320  0.00  0.00    +0.000 N 
ATOM      2  C   UNL     1     -10.687   1.735  23.124  0.00  0.00    +0.000 A 
ATOM      3  C   UNL     1     -10.626   1.880  21.754  0.00  0.00    +0.000 A 
ATOM      4  C   UNL     1     -10.771   0.504  21.420  0.00  0.00    +0.000 A 
ATOM      5  C   UNL     1     -11.461  -0.118  20.374  0.00  0.00    +0.000 A 
ATOM      6  C   UNL     1     -11.185  -1.432  20.089  0.00  0.00    +0.000 A 
ATOM      7  C   UNL     1     -10.076  -2.001  20.707  0.00  0.00    +0.000 A 
ATOM      8  C   UNL     1      -9.542  -3.112  20.082  0.00  0.00    +0.000 A 
ATOM      9  N   UNL     1     -10.032  -3.995  19.156  0.00  0.00    +0.000 N 
ATOM     10  C   UNL     1      -9.254  -5.142  19.140  0.00  0.00    +0.000 A 
ATOM     11  C   UNL     1      -9.587  -6.392  18.606  0.00  0.00    +0.000 A 
ATOM     12  C   UNL     1      -8.598  -7.380  18.698  0.00  0.00    +0.000 A 
ATOM     13  C   UNL     1      -7.357  -7.114  19.273  0.00  0.00    +0.000 A 
ATOM     14  C   UNL     1      -7.069  -5.864  19.805  0.00  0.00    +0.000 A 
ATOM     15  C   UNL     1      -8.042  -4.867  19.789  0.00  0.00    +0.000 A 
ATOM     16  C   UNL     1      -8.271  -3.579  20.307  0.00  0.00    +0.000 A 
ATOM     17  C   UNL     1      -7.543  -3.071  21.411  0.00  0.00    +0.000 A 
ATOM     18  C   UNL     1      -8.360  -2.311  22.313  0.00  0.00    +0.000 A 
ATOM     19  C   UNL     1      -9.431  -1.497  21.879  0.00  0.00    +0.000 A 
ATOM     20  C   UNL     1      -9.897  -0.216  22.296  0.00  0.00    +0.000 A 
ATOM     21  C   UNL     1      -8.185  -3.078  23.537  0.00  0.00    +0.000 C 
ATOM     22  O   UNL     1      -8.976  -3.433  24.402  0.00  0.00    +0.000 OA
ATOM     23  N   UNL     1      -6.944  -3.673  23.384  0.00  0.00    +0.000 N 
ATOM     24  C   UNL     1      -6.465  -3.643  22.103  0.00  0.00    +0.000 C 
ATOM     25  O   UNL     1      -5.363  -4.091  21.779  0.00  0.00    +0.000 OA
ATOM     26  H   UNL     1     -11.581   1.653  23.738  0.00  0.00    +0.000 HD
ATOM     27  H   UNL     1      -9.789   2.427  21.310  0.00  0.00    +0.000 HD
ATOM     28  H   UNL     1     -12.170   0.442  19.774  0.00  0.00    +0.000 HD
ATOM     29  H   UNL     1     -11.724  -1.912  19.284  0.00  0.00    +0.000 HD
ATOM     30  H   UNL     1     -10.959  -3.945  18.768  0.00  0.00    +0.000 HD
ATOM     31  H   UNL     1      -8.789  -8.373  18.293  0.00  0.00    +0.000 HD
ATOM     32  H   UNL     1      -6.603  -7.898  19.316  0.00  0.00    +0.000 HD
ATOM     33  H   UNL     1      -6.090  -5.699  20.264  0.00  0.00    +0.000 HD
ATOM     34  H   UNL     1      -6.658  -4.449  23.964  0.00  0.00    +0.000 HD
ENDROOT
BRANCH   1  35
ATOM     35  C   UNL     1      -8.980   0.724  24.546  0.00  0.00    +0.000 C 
ATOM     36  H   UNL     1      -9.563   0.241  25.329  0.00  0.00    +0.000 HD
ATOM     37  H   UNL     1      -8.680   1.742  24.787  0.00  0.00    +0.000 HD
ATOM     38  H   UNL     1      -8.073   0.122  24.381  0.00  0.00    +0.000 HD
ENDBRANCH   1  35
BRANCH  11  39
ATOM     39  C   UNL     1     -10.899  -6.637  17.899  0.00  0.00    +0.000 C 
ATOM     40  H   UNL     1     -11.641  -5.897  18.230  0.00  0.00    +0.000 HD
ATOM     41  H   UNL     1     -11.303  -7.617  18.174  0.00  0.00    +0.000 HD
BRANCH  39  42
ATOM     42  C   UNL     1     -10.645  -6.526  16.394  0.00  0.00    +0.000 C 
ATOM     43  H   UNL     1     -10.542  -7.553  16.024  0.00  0.00    +0.000 HD
ATOM     44  H   UNL     1      -9.692  -6.003  16.219  0.00  0.00    +0.000 HD
BRANCH  42  45
ATOM     45  N   UNL     1     -11.718  -5.823  15.671  0.00  0.00    +0.000 NA
ATOM     46  H   UNL     1     -12.587  -5.882  16.208  0.00  0.00    +0.000 HD
BRANCH  45  47
ATOM     47  C   UNL     1     -11.366  -4.412  15.445  0.00  0.00    +0.000 C 
ATOM     48  C   UNL     1     -11.685  -3.965  14.006  0.00  0.00    +0.000 C 
ATOM     49  C   UNL     1     -11.444  -2.477  13.791  0.00  0.00    +0.000 C 
ATOM     50  C   UNL     1     -12.235  -1.648  14.794  0.00  0.00    +0.000 C 
ATOM     51  C   UNL     1     -11.871  -2.044  16.223  0.00  0.00    +0.000 C 
ATOM     52  C   UNL     1     -12.112  -3.537  16.465  0.00  0.00    +0.000 C 
ATOM     53  H   UNL     1     -10.288  -4.286  15.620  0.00  0.00    +0.000 HD
ATOM     54  H   UNL     1     -12.730  -4.203  13.767  0.00  0.00    +0.000 HD
ATOM     55  H   UNL     1     -11.061  -4.499  13.282  0.00  0.00    +0.000 HD
ATOM     56  H   UNL     1     -11.727  -2.204  12.769  0.00  0.00    +0.000 HD
ATOM     57  H   UNL     1     -10.372  -2.243  13.877  0.00  0.00    +0.000 HD
ATOM     58  H   UNL     1     -13.310  -1.799  14.630  0.00  0.00    +0.000 HD
ATOM     59  H   UNL     1     -12.450  -1.445  16.934  0.00  0.00    +0.000 HD
ATOM     60  H   UNL     1     -10.819  -1.799  16.418  0.00  0.00    +0.000 HD
ATOM     61  H   UNL     1     -13.190  -3.740  16.418  0.00  0.00    +0.000 HD
ATOM     62  H   UNL     1     -11.785  -3.793  17.482  0.00  0.00    +0.000 HD
BRANCH  50  63
ATOM     63  O   UNL     1     -11.965  -0.269  14.588  0.00  0.00    +0.000 OA
ATOM     64  H   UNL     1     -12.728   0.242  14.908  0.00  0.00    +0.000 HD
ENDBRANCH  50  63
ENDBRANCH  45  47
ENDBRANCH  42  45
ENDBRANCH  39  42
ENDBRANCH  11  39
TORSDOF 6
ENDMDL
MODEL 9
REMARK VINA RESULT:    -9.542      3.158      4.611
REMARK INTER + INTRA:         -12.977
REMARK INTER:                 -12.623
REMARK INTRA:                  -0.354
REMARK UNBOUND:                -0.646
REMARK  Name = 
REMARK  6 active torsions:
REMARK  status: ('A' for Active; 'I' for Inactive)
REMARK    1  A    between atoms: C_1  and  N_2
REMARK    2  A    between atoms: C_12  and  C_13
REMARK    3  A    between atoms: C_13  and  C_14
REMARK    4  A    between atoms: C_14  and  N_15
REMARK    5  A    between atoms: N_15  and  C_16
REMARK    6  A    between atoms: C_19  and  O_20
REMARK                            x       y       z     vdW  Elec       q    Type
REMARK                         _______ _______ _______ _____ _____    ______ ____
ROOT
ATOM      1  N   UNL     1     -10.663   2.082  21.011  0.00  0.00    +0.000 N 
ATOM      2  C   UNL     1     -10.777   2.093  22.415  0.00  0.00    +0.000 A 
ATOM      3  C   UNL     1     -11.916   1.333  22.584  0.00  0.00    +0.000 A 
ATOM      4  C   UNL     1     -11.523   0.234  21.768  0.00  0.00    +0.000 A 
ATOM      5  C   UNL     1     -11.724  -1.140  21.924  0.00  0.00    +0.000 A 
ATOM      6  C   UNL     1     -11.526  -1.964  20.844  0.00  0.00    +0.000 A 
ATOM      7  C   UNL     1     -11.356  -1.360  19.601  0.00  0.00    +0.000 A 
ATOM      8  C   UNL     1     -11.628  -2.154  18.504  0.00  0.00    +0.000 A 
ATOM      9  N   UNL     1     -11.727  -3.509  18.325  0.00  0.00    +0.000 N 
ATOM     10  C   UNL     1     -11.637  -3.814  16.976  0.00  0.00    +0.000 A 
ATOM     11  C   UNL     1     -11.358  -5.059  16.400  0.00  0.00    +0.000 A 
ATOM     12  C   UNL     1     -11.356  -5.098  14.999  0.00  0.00    +0.000 A 
ATOM     13  C   UNL     1     -11.634  -3.963  14.240  0.00  0.00    +0.000 A 
ATOM     14  C   UNL     1     -11.893  -2.742  14.849  0.00  0.00    +0.000 A 
ATOM     15  C   UNL     1     -11.848  -2.641  16.238  0.00  0.00    +0.000 A 
ATOM     16  C   UNL     1     -11.881  -1.661  17.248  0.00  0.00    +0.000 A 
ATOM     17  C   UNL     1     -11.606  -0.297  16.982  0.00  0.00    +0.000 A 
ATOM     18  C   UNL     1     -10.835   0.327  18.019  0.00  0.00    +0.000 A 
ATOM     19  C   UNL     1     -10.986   0.004  19.388  0.00  0.00    +0.000 A 
ATOM     20  C   UNL     1     -10.977   0.798  20.571  0.00  0.00    +0.000 A 
ATOM     21  C   UNL     1      -9.663   0.742  17.265  0.00  0.00    +0.000 C 
ATOM     22  O   UNL     1      -8.466   0.695  17.519  0.00  0.00    +0.000 OA
ATOM     23  N   UNL     1     -10.137   0.903  15.973  0.00  0.00    +0.000 N 
ATOM     24  C   UNL     1     -11.363   0.337  15.755  0.00  0.00    +0.000 C 
ATOM     25  O   UNL     1     -11.962   0.407  14.679  0.00  0.00    +0.000 OA
ATOM     26  H   UNL     1      -9.837   1.997  22.952  0.00  0.00    +0.000 HD
ATOM     27  H   UNL     1     -12.894   1.785  22.394  0.00  0.00    +0.000 HD
ATOM     28  H   UNL     1     -12.072  -1.542  22.869  0.00  0.00    +0.000 HD
ATOM     29  H   UNL     1     -11.676  -3.028  20.968  0.00  0.00    +0.000 HD
ATOM     30  H   UNL     1     -11.591  -4.184  19.060  0.00  0.00    +0.000 HD
ATOM     31  H   UNL     1     -11.155  -6.037  14.486  0.00  0.00    +0.000 HD
ATOM     32  H   UNL     1     -11.640  -4.028  13.154  0.00  0.00    +0.000 HD
ATOM     33  H   UNL     1     -12.089  -1.869  14.220  0.00  0.00    +0.000 HD
ATOM     34  H   UNL     1      -9.507   0.955  15.186  0.00  0.00    +0.000 HD
ENDROOT
BRANCH   1  35
ATOM     35  C   UNL     1     -10.100   3.243  20.372  0.00  0.00    +0.000 C 
ATOM     36  H   UNL     1     -10.075   4.066  21.085  0.00  0.00    +0.000 HD
ATOM     37  H   UNL     1     -10.652   3.469  19.462  0.00  0.00    +0.000 HD
ATOM     38  H   UNL     1      -9.060   3.001  20.101  0.00  0.00    +0.000 HD
ENDBRANCH   1  35
BRANCH  11  39
ATOM     39  C   UNL     1     -11.155  -6.300  17.234  0.00  0.00    +0.000 C 
ATOM     40  H   UNL     1     -12.003  -6.984  17.094  0.00  0.00    +0.000 HD
ATOM     41  H   UNL     1     -11.142  -6.045  18.300  0.00  0.00    +0.000 HD
BRANCH  39  42
ATOM     42  C   UNL     1      -9.844  -6.952  16.787  0.00  0.00    +0.000 C 
ATOM     43  H   UNL     1      -9.307  -7.223  17.705  0.00  0.00    +0.000 HD
ATOM     44  H   UNL     1      -9.235  -6.217  16.241  0.00  0.00    +0.000 HD
BRANCH  42  45
ATOM     45  N   UNL     1     -10.041  -8.138  15.938  0.00  0.00    +0.000 NA
ATOM     46  H   UNL     1      -9.811  -7.906  14.968  0.00  0.00    +0.000 HD
BRANCH  45  47
ATOM     47  C   UNL     1      -9.206  -9.260  16.394  0.00  0.00    +0.000 C 
ATOM     48  C   UNL     1      -9.292  -9.456  17.919  0.00  0.00    +0.000 C 
ATOM     49  C   UNL     1      -8.532 -10.688  18.392  0.00  0.00    +0.000 C 
ATOM     50  C   UNL     1      -9.015 -11.936  17.666  0.00  0.00    +0.000 C 
ATOM     51  C   UNL     1      -8.869 -11.769  16.155  0.00  0.00    +0.000 C 
ATOM     52  C   UNL     1      -9.631 -10.539  15.655  0.00  0.00    +0.000 C 
ATOM     53  H   UNL     1      -8.159  -9.050  16.126  0.00  0.00    +0.000 HD
ATOM     54  H   UNL     1     -10.343  -9.537  18.224  0.00  0.00    +0.000 HD
ATOM     55  H   UNL     1      -8.869  -8.596  18.450  0.00  0.00    +0.000 HD
ATOM     56  H   UNL     1      -8.661 -10.805  19.473  0.00  0.00    +0.000 HD
ATOM     57  H   UNL     1      -7.450 -10.560  18.232  0.00  0.00    +0.000 HD
ATOM     58  H   UNL     1     -10.067 -12.124  17.918  0.00  0.00    +0.000 HD
ATOM     59  H   UNL     1      -9.224 -12.670  15.646  0.00  0.00    +0.000 HD
ATOM     60  H   UNL     1      -7.806 -11.682  15.894  0.00  0.00    +0.000 HD
ATOM     61  H   UNL     1     -10.708 -10.706  15.783  0.00  0.00    +0.000 HD
ATOM     62  H   UNL     1      -9.454 -10.420  14.577  0.00  0.00    +0.000 HD
BRANCH  50  63
ATOM     63  O   UNL     1      -8.267 -13.061  18.106  0.00  0.00    +0.000 OA
ATOM     64  H   UNL     1      -8.740 -13.866  17.836  0.00  0.00    +0.000 HD
ENDBRANCH  50  63
ENDBRANCH  45  47
ENDBRANCH  42  45
ENDBRANCH  39  42
ENDBRANCH  11  39
TORSDOF 6
ENDMDL
