REMARK  Name = 
REMARK  4 active torsions:
REMARK  status: ('A' for Active; 'I' for Inactive)
REMARK    1  A    between atoms: O_1  and  C_2
REMARK    2  A    between atoms: C_8  and  O_9
REMARK    3  A    between atoms: C_10  and  O_11
REMARK    4  A    between atoms: C_16  and  O_17
REMARK                            x       y       z     vdW  Elec       q    Type
REMARK                         _______ _______ _______ _____ _____    ______ ____
ROOT
ATOM      1  C   UNL     1      -3.455   0.522  -0.026  0.00  0.00    +0.000 A 
ATOM      2  C   UNL     1      -2.782  -0.704  -0.021  0.00  0.00    +0.000 A 
ATOM      3  C   UNL     1      -1.380  -0.665  -0.012  0.00  0.00    +0.000 A 
ATOM      4  N   UNL     1      -0.461  -1.691  -0.006  0.00  0.00    +0.000 N 
ATOM      5  C   UNL     1       0.827  -1.203   0.005  0.00  0.00    +0.000 A 
ATOM      6  C   UNL     1       2.055  -1.885   0.015  0.00  0.00    +0.000 A 
ATOM      7  C   UNL     1       3.209  -1.100   0.026  0.00  0.00    +0.000 A 
ATOM      8  C   UNL     1       3.139   0.289   0.026  0.00  0.00    +0.000 A 
ATOM      9  C   UNL     1       1.918   0.954   0.014  0.00  0.00    +0.000 A 
ATOM     10  C   UNL     1       0.733   0.190   0.004  0.00  0.00    +0.000 A 
ATOM     11  C   UNL     1      -0.658   0.528  -0.008  0.00  0.00    +0.000 A 
ATOM     12  C   UNL     1      -1.363   1.752  -0.013  0.00  0.00    +0.000 A 
ATOM     13  C   UNL     1      -2.760   1.730  -0.023  0.00  0.00    +0.000 A 
ATOM     14  H   UNL     1      -3.315  -1.647  -0.025  0.00  0.00    +0.000 HD
ATOM     15  H   UNL     1      -0.701  -2.671  -0.008  0.00  0.00    +0.000 HD
ATOM     16  H   UNL     1       2.095  -2.968   0.015  0.00  0.00    +0.000 HD
ATOM     17  H   UNL     1       1.887   2.038   0.015  0.00  0.00    +0.000 HD
ATOM     18  H   UNL     1      -0.812   2.686  -0.010  0.00  0.00    +0.000 HD
ENDROOT
BRANCH   1  19
ATOM     19  O   UNL     1      -4.825   0.549  -0.035  0.00  0.00    +0.000 OA
ATOM     20  H   UNL     1      -5.160  -0.359  -0.028  0.00  0.00    +0.000 HD
ENDBRANCH   1  19
BRANCH   7  21
ATOM     21  O   UNL     1       4.458  -1.664   0.038  0.00  0.00    +0.000 OA
ATOM     22  H   UNL     1       4.355  -2.630   0.039  0.00  0.00    +0.000 HD
ENDBRANCH   7  21
BRANCH   8  23
ATOM     23  O   UNL     1       4.289   1.030   0.037  0.00  0.00    +0.000 OA
ATOM     24  H   UNL     1       5.007   0.366   0.045  0.00  0.00    +0.000 HD
ENDBRANCH   8  23
BRANCH  13  25
ATOM     25  O   UNL     1      -3.462   2.905  -0.029  0.00  0.00    +0.000 OA
ATOM     26  H   UNL     1      -2.837   3.646  -0.035  0.00  0.00    +0.000 HD
ENDBRANCH  13  25
TORSDOF 4
