MODEL 1
REMARK VINA RESULT:   -10.142      0.000      0.000
REMARK INTER + INTRA:         -13.022
REMARK INTER:                 -13.107
REMARK INTRA:                   0.085
REMARK UNBOUND:                 0.085
REMARK  Name = 
REMARK  6 active torsions:
REMARK  status: ('A' for Active; 'I' for Inactive)
REMARK    1  A    between atoms: C_1  and  O_2
REMARK    2  A    between atoms: O_2  and  C_3
REMARK    3  A    between atoms: C_6  and  N_7
REMARK    4  A    between atoms: N_13  and  C_14
REMARK    5  A    between atoms: N_23  and  C_24
REMARK    6  A    between atoms: C_27  and  O_28
REMARK                            x       y       z     vdW  Elec       q    Type
REMARK                         _______ _______ _______ _____ _____    ______ ____
ROOT
ATOM      1  N   UNL     1      -9.365  -3.148  19.212  0.00  0.00    +0.000 N 
ATOM      2  C   UNL     1      -9.871  -3.084  17.857  0.00  0.00    +0.000 C 
ATOM      3  C   UNL     1     -10.227  -4.412  17.320  0.00  0.00    +0.000 A 
ATOM      4  C   UNL     1     -10.973  -4.588  16.178  0.00  0.00    +0.000 A 
ATOM      5  N   UNL     1     -11.265  -5.791  15.655  0.00  0.00    +0.000 NA
ATOM      6  C   UNL     1     -10.749  -6.852  16.282  0.00  0.00    +0.000 A 
ATOM      7  N   UNL     1     -11.002  -8.106  15.733  0.00  0.00    +0.000 N 
ATOM      8  N   UNL     1     -10.025  -6.764  17.406  0.00  0.00    +0.000 NA
ATOM      9  C   UNL     1      -9.767  -5.556  17.918  0.00  0.00    +0.000 A 
ATOM     10  N   UNL     1      -8.965  -5.459  19.085  0.00  0.00    +0.000 N 
ATOM     11  C   UNL     1      -8.594  -4.230  19.637  0.00  0.00    +0.000 C 
ATOM     12  O   UNL     1      -7.781  -4.151  20.559  0.00  0.00    +0.000 OA
ATOM     13  H   UNL     1      -9.064  -2.662  17.246  0.00  0.00    +0.000 HD
ATOM     14  H   UNL     1     -10.722  -2.397  17.785  0.00  0.00    +0.000 HD
ATOM     15  H   UNL     1     -11.368  -3.740  15.622  0.00  0.00    +0.000 HD
ATOM     16  H   UNL     1     -11.637  -8.042  14.950  0.00  0.00    +0.000 HD
ENDROOT
BRANCH  10  17
ATOM     17  C   UNL     1      -8.755  -6.685  19.877  0.00  0.00    +0.000 C 
ATOM     18  C   UNL     1      -7.421  -7.403  19.538  0.00  0.00    +0.000 C 
ATOM     19  C   UNL     1      -7.807  -8.810  19.090  0.00  0.00    +0.000 C 
ATOM     20  C   UNL     1      -9.121  -9.075  19.810  0.00  0.00    +0.000 C 
ATOM     21  C   UNL     1      -9.859  -7.744  19.742  0.00  0.00    +0.000 C 
ATOM     22  H   UNL     1      -8.681  -6.431  20.941  0.00  0.00    +0.000 HD
ATOM     23  H   UNL     1      -6.801  -7.460  20.440  0.00  0.00    +0.000 HD
ATOM     24  H   UNL     1      -6.811  -6.894  18.783  0.00  0.00    +0.000 HD
ATOM     25  H   UNL     1      -7.025  -9.531  19.340  0.00  0.00    +0.000 HD
ATOM     26  H   UNL     1      -7.961  -8.830  18.004  0.00  0.00    +0.000 HD
ATOM     27  H   UNL     1      -9.690  -9.881  19.336  0.00  0.00    +0.000 HD
ATOM     28  H   UNL     1     -10.593  -7.637  20.548  0.00  0.00    +0.000 HD
ATOM     29  H   UNL     1     -10.388  -7.652  18.788  0.00  0.00    +0.000 HD
BRANCH  20  30
ATOM     30  O   UNL     1      -8.884  -9.460  21.161  0.00  0.00    +0.000 OA
ATOM     31  H   UNL     1      -8.244  -8.851  21.564  0.00  0.00    +0.000 HD
ENDBRANCH  20  30
ENDBRANCH  10  17
BRANCH   7  32
ATOM     32  C   UNL     1     -10.213  -9.263  15.807  0.00  0.00    +0.000 A 
ATOM     33  C   UNL     1      -9.310  -9.542  14.771  0.00  0.00    +0.000 A 
ATOM     34  C   UNL     1      -8.576 -10.731  14.767  0.00  0.00    +0.000 A 
ATOM     35  C   UNL     1      -8.732 -11.640  15.807  0.00  0.00    +0.000 A 
ATOM     36  F   UNL     1      -8.033 -12.783  15.798  0.00  0.00    +0.000 F 
ATOM     37  C   UNL     1      -9.607 -11.383  16.851  0.00  0.00    +0.000 A 
ATOM     38  C   UNL     1     -10.349 -10.200  16.844  0.00  0.00    +0.000 A 
ATOM     39  H   UNL     1      -9.201  -8.852  13.939  0.00  0.00    +0.000 HD
ATOM     40  H   UNL     1      -7.896 -10.961  13.954  0.00  0.00    +0.000 HD
ATOM     41  H   UNL     1      -9.718 -12.100  17.659  0.00  0.00    +0.000 HD
ATOM     42  H   UNL     1     -11.028 -10.015  17.673  0.00  0.00    +0.000 HD
ENDBRANCH   7  32
BRANCH   1  46
ATOM     43  C   UNL     1     -10.948  -0.412  22.019  0.00  0.00    +0.000 A 
ATOM     44  C   UNL     1     -11.803  -1.218  21.268  0.00  0.00    +0.000 A 
ATOM     45  C   UNL     1     -11.281  -2.138  20.355  0.00  0.00    +0.000 A 
ATOM     46  C   UNL     1      -9.901  -2.282  20.202  0.00  0.00    +0.000 A 
ATOM     47  C   UNL     1      -9.044  -1.473  20.957  0.00  0.00    +0.000 A 
ATOM     48  C   UNL     1      -9.569  -0.538  21.852  0.00  0.00    +0.000 A 
ATOM     49  H   UNL     1     -12.883  -1.148  21.352  0.00  0.00    +0.000 HD
ATOM     50  H   UNL     1     -11.966  -2.742  19.764  0.00  0.00    +0.000 HD
ATOM     51  H   UNL     1      -7.968  -1.499  20.808  0.00  0.00    +0.000 HD
ATOM     52  H   UNL     1      -8.898   0.115  22.405  0.00  0.00    +0.000 HD
BRANCH  43  53
ATOM     53  O   UNL     1     -11.332   0.533  22.929  0.00  0.00    +0.000 OA
BRANCH  53  54
ATOM     54  C   UNL     1     -10.354   1.502  23.286  0.00  0.00    +0.000 C 
ATOM     55  H   UNL     1      -9.405   1.202  22.835  0.00  0.00    +0.000 HD
ATOM     56  H   UNL     1     -10.211   1.536  24.371  0.00  0.00    +0.000 HD
ATOM     57  H   UNL     1     -10.617   2.490  22.889  0.00  0.00    +0.000 HD
ENDBRANCH  53  54
ENDBRANCH  43  53
ENDBRANCH   1  46
TORSDOF 6
ENDMDL
MODEL 2
REMARK VINA RESULT:    -9.747      3.544      8.530
REMARK INTER + INTRA:         -12.512
REMARK INTER:                 -12.224
REMARK INTRA:                  -0.288
REMARK UNBOUND:                 0.085
REMARK  Name = 
REMARK  6 active torsions:
REMARK  status: ('A' for Active; 'I' for Inactive)
REMARK    1  A    between atoms: C_1  and  O_2
REMARK    2  A    between atoms: O_2  and  C_3
REMARK    3  A    between atoms: C_6  and  N_7
REMARK    4  A    between atoms: N_13  and  C_14
REMARK    5  A    between atoms: N_23  and  C_24
REMARK    6  A    between atoms: C_27  and  O_28
REMARK                            x       y       z     vdW  Elec       q    Type
REMARK                         _______ _______ _______ _____ _____    ______ ____
ROOT
ATOM      1  N   UNL     1     -10.081  -8.197  17.621  0.00  0.00    +0.000 N 
ATOM      2  C   UNL     1     -11.197  -7.633  16.891  0.00  0.00    +0.000 C 
ATOM      3  C   UNL     1     -11.038  -6.189  16.636  0.00  0.00    +0.000 A 
ATOM      4  C   UNL     1     -11.814  -5.492  15.740  0.00  0.00    +0.000 A 
ATOM      5  N   UNL     1     -11.708  -4.168  15.532  0.00  0.00    +0.000 NA
ATOM      6  C   UNL     1     -10.818  -3.518  16.287  0.00  0.00    +0.000 A 
ATOM      7  N   UNL     1     -10.722  -2.139  16.121  0.00  0.00    +0.000 N 
ATOM      8  N   UNL     1     -10.016  -4.127  17.171  0.00  0.00    +0.000 NA
ATOM      9  C   UNL     1     -10.126  -5.448  17.343  0.00  0.00    +0.000 A 
ATOM     10  N   UNL     1      -9.307  -6.088  18.309  0.00  0.00    +0.000 N 
ATOM     11  C   UNL     1      -9.414  -7.452  18.595  0.00  0.00    +0.000 C 
ATOM     12  O   UNL     1      -8.805  -7.970  19.532  0.00  0.00    +0.000 OA
ATOM     13  H   UNL     1     -12.084  -7.785  17.518  0.00  0.00    +0.000 HD
ATOM     14  H   UNL     1     -11.369  -8.175  15.953  0.00  0.00    +0.000 HD
ATOM     15  H   UNL     1     -12.577  -5.987  15.144  0.00  0.00    +0.000 HD
ATOM     16  H   UNL     1     -11.306  -1.820  15.360  0.00  0.00    +0.000 HD
ENDROOT
BRANCH  10  17
ATOM     17  C   UNL     1      -8.136  -5.347  18.815  0.00  0.00    +0.000 C 
ATOM     18  C   UNL     1      -6.788  -5.945  18.332  0.00  0.00    +0.000 C 
ATOM     19  C   UNL     1      -6.011  -6.298  19.598  0.00  0.00    +0.000 C 
ATOM     20  C   UNL     1      -6.546  -5.326  20.638  0.00  0.00    +0.000 C 
ATOM     21  C   UNL     1      -8.040  -5.251  20.345  0.00  0.00    +0.000 C 
ATOM     22  H   UNL     1      -8.150  -4.322  18.428  0.00  0.00    +0.000 HD
ATOM     23  H   UNL     1      -6.239  -5.186  17.762  0.00  0.00    +0.000 HD
ATOM     24  H   UNL     1      -6.887  -6.811  17.667  0.00  0.00    +0.000 HD
ATOM     25  H   UNL     1      -4.933  -6.207  19.437  0.00  0.00    +0.000 HD
ATOM     26  H   UNL     1      -6.229  -7.330  19.897  0.00  0.00    +0.000 HD
ATOM     27  H   UNL     1      -6.349  -5.671  21.658  0.00  0.00    +0.000 HD
ATOM     28  H   UNL     1      -8.484  -4.314  20.699  0.00  0.00    +0.000 HD
ATOM     29  H   UNL     1      -8.564  -6.079  20.833  0.00  0.00    +0.000 HD
BRANCH  20  30
ATOM     30  O   UNL     1      -5.933  -4.049  20.496  0.00  0.00    +0.000 OA
ATOM     31  H   UNL     1      -5.050  -4.155  20.105  0.00  0.00    +0.000 HD
ENDBRANCH  20  30
ENDBRANCH  10  17
BRANCH   7  32
ATOM     32  C   UNL     1     -10.338  -1.174  17.063  0.00  0.00    +0.000 A 
ATOM     33  C   UNL     1     -11.204  -0.867  18.121  0.00  0.00    +0.000 A 
ATOM     34  C   UNL     1     -10.894   0.154  19.023  0.00  0.00    +0.000 A 
ATOM     35  C   UNL     1      -9.707   0.863  18.879  0.00  0.00    +0.000 A 
ATOM     36  F   UNL     1      -9.415   1.846  19.740  0.00  0.00    +0.000 F 
ATOM     37  C   UNL     1      -8.825   0.571  17.850  0.00  0.00    +0.000 A 
ATOM     38  C   UNL     1      -9.146  -0.440  16.943  0.00  0.00    +0.000 A 
ATOM     39  H   UNL     1     -12.148  -1.396  18.226  0.00  0.00    +0.000 HD
ATOM     40  H   UNL     1     -11.575   0.410  19.827  0.00  0.00    +0.000 HD
ATOM     41  H   UNL     1      -7.900   1.131  17.750  0.00  0.00    +0.000 HD
ATOM     42  H   UNL     1      -8.440  -0.656  16.145  0.00  0.00    +0.000 HD
ENDBRANCH   7  32
BRANCH   1  46
ATOM     43  C   UNL     1      -8.418 -11.813  16.194  0.00  0.00    +0.000 A 
ATOM     44  C   UNL     1      -8.685 -10.768  15.310  0.00  0.00    +0.000 A 
ATOM     45  C   UNL     1      -9.215  -9.564  15.783  0.00  0.00    +0.000 A 
ATOM     46  C   UNL     1      -9.458  -9.382  17.146  0.00  0.00    +0.000 A 
ATOM     47  C   UNL     1      -9.188 -10.431  18.032  0.00  0.00    +0.000 A 
ATOM     48  C   UNL     1      -8.680 -11.641  17.554  0.00  0.00    +0.000 A 
ATOM     49  H   UNL     1      -8.511 -10.857  14.243  0.00  0.00    +0.000 HD
ATOM     50  H   UNL     1      -9.436  -8.770  15.073  0.00  0.00    +0.000 HD
ATOM     51  H   UNL     1      -9.438 -10.356  19.086  0.00  0.00    +0.000 HD
ATOM     52  H   UNL     1      -8.512 -12.465  18.243  0.00  0.00    +0.000 HD
BRANCH  43  53
ATOM     53  O   UNL     1      -7.917 -13.039  15.857  0.00  0.00    +0.000 OA
BRANCH  53  54
ATOM     54  C   UNL     1      -8.736 -13.852  15.028  0.00  0.00    +0.000 C 
ATOM     55  H   UNL     1      -8.123 -14.678  14.658  0.00  0.00    +0.000 HD
ATOM     56  H   UNL     1      -9.099 -13.292  14.160  0.00  0.00    +0.000 HD
ATOM     57  H   UNL     1      -9.568 -14.282  15.599  0.00  0.00    +0.000 HD
ENDBRANCH  53  54
ENDBRANCH  43  53
ENDBRANCH   1  46
TORSDOF 6
ENDMDL
MODEL 3
REMARK VINA RESULT:    -8.585      3.790      5.246
REMARK INTER + INTRA:         -11.010
REMARK INTER:                 -10.475
REMARK INTRA:                  -0.534
REMARK UNBOUND:                 0.085
REMARK  Name = 
REMARK  6 active torsions:
REMARK  status: ('A' for Active; 'I' for Inactive)
REMARK    1  A    between atoms: C_1  and  O_2
REMARK    2  A    between atoms: O_2  and  C_3
REMARK    3  A    between atoms: C_6  and  N_7
REMARK    4  A    between atoms: N_13  and  C_14
REMARK    5  A    between atoms: N_23  and  C_24
REMARK    6  A    between atoms: C_27  and  O_28
REMARK                            x       y       z     vdW  Elec       q    Type
REMARK                         _______ _______ _______ _____ _____    ______ ____
ROOT
ATOM      1  N   UNL     1     -11.299  -1.523  17.384  0.00  0.00    +0.000 N 
ATOM      2  C   UNL     1     -10.946  -2.148  18.642  0.00  0.00    +0.000 C 
ATOM      3  C   UNL     1     -10.231  -3.425  18.461  0.00  0.00    +0.000 A 
ATOM      4  C   UNL     1      -9.558  -4.063  19.477  0.00  0.00    +0.000 A 
ATOM      5  N   UNL     1      -8.941  -5.249  19.335  0.00  0.00    +0.000 NA
ATOM      6  C   UNL     1      -9.043  -5.831  18.138  0.00  0.00    +0.000 A 
ATOM      7  N   UNL     1      -8.448  -7.080  17.980  0.00  0.00    +0.000 N 
ATOM      8  N   UNL     1      -9.667  -5.268  17.094  0.00  0.00    +0.000 NA
ATOM      9  C   UNL     1     -10.255  -4.078  17.256  0.00  0.00    +0.000 A 
ATOM     10  N   UNL     1     -10.953  -3.500  16.164  0.00  0.00    +0.000 N 
ATOM     11  C   UNL     1     -11.651  -2.295  16.276  0.00  0.00    +0.000 C 
ATOM     12  O   UNL     1     -12.372  -1.874  15.371  0.00  0.00    +0.000 OA
ATOM     13  H   UNL     1     -11.891  -2.345  19.164  0.00  0.00    +0.000 HD
ATOM     14  H   UNL     1     -10.366  -1.465  19.273  0.00  0.00    +0.000 HD
ATOM     15  H   UNL     1      -9.498  -3.633  20.474  0.00  0.00    +0.000 HD
ATOM     16  H   UNL     1      -7.929  -7.345  18.805  0.00  0.00    +0.000 HD
ENDROOT
BRANCH  10  17
ATOM     17  C   UNL     1     -10.700  -4.050  14.818  0.00  0.00    +0.000 C 
ATOM     18  C   UNL     1      -9.613  -3.263  14.039  0.00  0.00    +0.000 C 
ATOM     19  C   UNL     1     -10.287  -2.781  12.757  0.00  0.00    +0.000 C 
ATOM     20  C   UNL     1     -11.381  -3.810  12.510  0.00  0.00    +0.000 C 
ATOM     21  C   UNL     1     -11.928  -4.111  13.899  0.00  0.00    +0.000 C 
ATOM     22  H   UNL     1     -10.309  -5.071  14.903  0.00  0.00    +0.000 HD
ATOM     23  H   UNL     1      -8.786  -3.939  13.790  0.00  0.00    +0.000 HD
ATOM     24  H   UNL     1      -9.167  -2.431  14.596  0.00  0.00    +0.000 HD
ATOM     25  H   UNL     1      -9.567  -2.711  11.937  0.00  0.00    +0.000 HD
ATOM     26  H   UNL     1     -10.728  -1.790  12.913  0.00  0.00    +0.000 HD
ATOM     27  H   UNL     1     -12.157  -3.426  11.841  0.00  0.00    +0.000 HD
ATOM     28  H   UNL     1     -12.398  -5.100  13.952  0.00  0.00    +0.000 HD
ATOM     29  H   UNL     1     -12.679  -3.365  14.182  0.00  0.00    +0.000 HD
BRANCH  20  30
ATOM     30  O   UNL     1     -10.842  -4.982  11.907  0.00  0.00    +0.000 OA
ATOM     31  H   UNL     1     -11.294  -5.150  11.064  0.00  0.00    +0.000 HD
ENDBRANCH  20  30
ENDBRANCH  10  17
BRANCH   7  32
ATOM     32  C   UNL     1      -8.821  -8.118  17.113  0.00  0.00    +0.000 A 
ATOM     33  C   UNL     1      -9.202  -9.355  17.651  0.00  0.00    +0.000 A 
ATOM     34  C   UNL     1      -9.490 -10.437  16.816  0.00  0.00    +0.000 A 
ATOM     35  C   UNL     1      -9.411 -10.282  15.436  0.00  0.00    +0.000 A 
ATOM     36  F   UNL     1      -9.680 -11.323  14.637  0.00  0.00    +0.000 F 
ATOM     37  C   UNL     1      -9.050  -9.067  14.877  0.00  0.00    +0.000 A 
ATOM     38  C   UNL     1      -8.750  -7.992  15.716  0.00  0.00    +0.000 A 
ATOM     39  H   UNL     1      -9.240  -9.494  18.728  0.00  0.00    +0.000 HD
ATOM     40  H   UNL     1      -9.761 -11.401  17.231  0.00  0.00    +0.000 HD
ATOM     41  H   UNL     1      -8.994  -8.958  13.799  0.00  0.00    +0.000 HD
ATOM     42  H   UNL     1      -8.471  -7.046  15.258  0.00  0.00    +0.000 HD
ENDBRANCH   7  32
BRANCH   1  46
ATOM     43  C   UNL     1     -10.465   2.538  16.555  0.00  0.00    +0.000 A 
ATOM     44  C   UNL     1     -11.630   2.187  17.236  0.00  0.00    +0.000 A 
ATOM     45  C   UNL     1     -11.897   0.847  17.530  0.00  0.00    +0.000 A 
ATOM     46  C   UNL     1     -10.991  -0.153  17.171  0.00  0.00    +0.000 A 
ATOM     47  C   UNL     1      -9.821   0.201  16.489  0.00  0.00    +0.000 A 
ATOM     48  C   UNL     1      -9.568   1.538  16.177  0.00  0.00    +0.000 A 
ATOM     49  H   UNL     1     -12.364   2.926  17.540  0.00  0.00    +0.000 HD
ATOM     50  H   UNL     1     -12.822   0.593  18.042  0.00  0.00    +0.000 HD
ATOM     51  H   UNL     1      -9.132  -0.555  16.123  0.00  0.00    +0.000 HD
ATOM     52  H   UNL     1      -8.677   1.800  15.611  0.00  0.00    +0.000 HD
BRANCH  43  53
ATOM     53  O   UNL     1     -10.097   3.804  16.196  0.00  0.00    +0.000 OA
BRANCH  53  54
ATOM     54  C   UNL     1      -8.705   4.033  16.018  0.00  0.00    +0.000 C 
ATOM     55  H   UNL     1      -8.447   4.954  16.548  0.00  0.00    +0.000 HD
ATOM     56  H   UNL     1      -8.462   4.179  14.960  0.00  0.00    +0.000 HD
ATOM     57  H   UNL     1      -8.114   3.219  16.453  0.00  0.00    +0.000 HD
ENDBRANCH  53  54
ENDBRANCH  43  53
ENDBRANCH   1  46
TORSDOF 6
ENDMDL
MODEL 4
REMARK VINA RESULT:    -8.524      4.111      7.894
REMARK INTER + INTRA:         -10.931
REMARK INTER:                 -10.470
REMARK INTRA:                  -0.461
REMARK UNBOUND:                 0.085
REMARK  Name = 
REMARK  6 active torsions:
REMARK  status: ('A' for Active; 'I' for Inactive)
REMARK    1  A    between atoms: C_1  and  O_2
REMARK    2  A    between atoms: O_2  and  C_3
REMARK    3  A    between atoms: C_6  and  N_7
REMARK    4  A    between atoms: N_13  and  C_14
REMARK    5  A    between atoms: N_23  and  C_24
REMARK    6  A    between atoms: C_27  and  O_28
REMARK                            x       y       z     vdW  Elec       q    Type
REMARK                         _______ _______ _______ _____ _____    ______ ____
ROOT
ATOM      1  N   UNL     1     -11.879  -2.885  16.041  0.00  0.00    +0.000 N 
ATOM      2  C   UNL     1     -11.865  -1.560  16.625  0.00  0.00    +0.000 C 
ATOM      3  C   UNL     1     -10.910  -1.442  17.744  0.00  0.00    +0.000 A 
ATOM      4  C   UNL     1     -10.517  -0.235  18.274  0.00  0.00    +0.000 A 
ATOM      5  N   UNL     1      -9.683  -0.117  19.322  0.00  0.00    +0.000 NA
ATOM      6  C   UNL     1      -9.266  -1.256  19.880  0.00  0.00    +0.000 A 
ATOM      7  N   UNL     1      -8.436  -1.158  20.993  0.00  0.00    +0.000 N 
ATOM      8  N   UNL     1      -9.592  -2.469  19.413  0.00  0.00    +0.000 NA
ATOM      9  C   UNL     1     -10.406  -2.560  18.357  0.00  0.00    +0.000 A 
ATOM     10  N   UNL     1     -10.786  -3.843  17.887  0.00  0.00    +0.000 N 
ATOM     11  C   UNL     1     -11.689  -4.018  16.834  0.00  0.00    +0.000 C 
ATOM     12  O   UNL     1     -12.125  -5.128  16.529  0.00  0.00    +0.000 OA
ATOM     13  H   UNL     1     -12.878  -1.381  17.007  0.00  0.00    +0.000 HD
ATOM     14  H   UNL     1     -11.667  -0.796  15.865  0.00  0.00    +0.000 HD
ATOM     15  H   UNL     1     -10.877   0.707  17.868  0.00  0.00    +0.000 HD
ATOM     16  H   UNL     1      -8.187  -0.197  21.181  0.00  0.00    +0.000 HD
ENDROOT
BRANCH  10  17
ATOM     17  C   UNL     1      -9.997  -5.003  18.344  0.00  0.00    +0.000 C 
ATOM     18  C   UNL     1      -8.975  -5.493  17.284  0.00  0.00    +0.000 C 
ATOM     19  C   UNL     1      -9.326  -6.953  17.009  0.00  0.00    +0.000 C 
ATOM     20  C   UNL     1      -9.978  -7.421  18.302  0.00  0.00    +0.000 C 
ATOM     21  C   UNL     1     -10.823  -6.234  18.745  0.00  0.00    +0.000 C 
ATOM     22  H   UNL     1      -9.394  -4.721  19.215  0.00  0.00    +0.000 HD
ATOM     23  H   UNL     1      -7.963  -5.430  17.702  0.00  0.00    +0.000 HD
ATOM     24  H   UNL     1      -8.959  -4.903  16.361  0.00  0.00    +0.000 HD
ATOM     25  H   UNL     1      -8.437  -7.528  16.741  0.00  0.00    +0.000 HD
ATOM     26  H   UNL     1     -10.042  -7.017  16.181  0.00  0.00    +0.000 HD
ATOM     27  H   UNL     1     -10.585  -8.319  18.150  0.00  0.00    +0.000 HD
ATOM     28  H   UNL     1     -11.006  -6.237  19.825  0.00  0.00    +0.000 HD
ATOM     29  H   UNL     1     -11.794  -6.249  18.238  0.00  0.00    +0.000 HD
BRANCH  20  30
ATOM     30  O   UNL     1      -8.989  -7.738  19.277  0.00  0.00    +0.000 OA
ATOM     31  H   UNL     1      -8.598  -6.918  19.620  0.00  0.00    +0.000 HD
ENDBRANCH  20  30
ENDBRANCH  10  17
BRANCH   7  32
ATOM     32  C   UNL     1      -8.297  -2.061  22.058  0.00  0.00    +0.000 A 
ATOM     33  C   UNL     1      -9.278  -2.095  23.058  0.00  0.00    +0.000 A 
ATOM     34  C   UNL     1      -9.126  -2.916  24.179  0.00  0.00    +0.000 A 
ATOM     35  C   UNL     1      -7.996  -3.717  24.296  0.00  0.00    +0.000 A 
ATOM     36  F   UNL     1      -7.847  -4.497  25.375  0.00  0.00    +0.000 F 
ATOM     37  C   UNL     1      -7.016  -3.713  23.315  0.00  0.00    +0.000 A 
ATOM     38  C   UNL     1      -7.167  -2.881  22.204  0.00  0.00    +0.000 A 
ATOM     39  H   UNL     1     -10.152  -1.452  22.990  0.00  0.00    +0.000 HD
ATOM     40  H   UNL     1      -9.872  -2.924  24.966  0.00  0.00    +0.000 HD
ATOM     41  H   UNL     1      -6.140  -4.345  23.418  0.00  0.00    +0.000 HD
ATOM     42  H   UNL     1      -6.389  -2.895  21.445  0.00  0.00    +0.000 HD
ENDBRANCH   7  32
BRANCH   1  46
ATOM     43  C   UNL     1     -11.403  -3.183  11.851  0.00  0.00    +0.000 A 
ATOM     44  C   UNL     1     -10.791  -4.111  12.693  0.00  0.00    +0.000 A 
ATOM     45  C   UNL     1     -10.965  -4.027  14.078  0.00  0.00    +0.000 A 
ATOM     46  C   UNL     1     -11.772  -3.032  14.633  0.00  0.00    +0.000 A 
ATOM     47  C   UNL     1     -12.387  -2.103  13.786  0.00  0.00    +0.000 A 
ATOM     48  C   UNL     1     -12.193  -2.175  12.405  0.00  0.00    +0.000 A 
ATOM     49  H   UNL     1     -10.157  -4.905  12.312  0.00  0.00    +0.000 HD
ATOM     50  H   UNL     1     -10.461  -4.748  14.717  0.00  0.00    +0.000 HD
ATOM     51  H   UNL     1     -12.956  -1.268  14.186  0.00  0.00    +0.000 HD
ATOM     52  H   UNL     1     -12.641  -1.425  11.758  0.00  0.00    +0.000 HD
BRANCH  43  53
ATOM     53  O   UNL     1     -11.300  -3.147  10.489  0.00  0.00    +0.000 OA
BRANCH  53  54
ATOM     54  C   UNL     1     -11.850  -4.252   9.782  0.00  0.00    +0.000 C 
ATOM     55  H   UNL     1     -11.022  -4.808   9.334  0.00  0.00    +0.000 HD
ATOM     56  H   UNL     1     -12.503  -3.915   8.970  0.00  0.00    +0.000 HD
ATOM     57  H   UNL     1     -12.380  -4.929  10.463  0.00  0.00    +0.000 HD
ENDBRANCH  53  54
ENDBRANCH  43  53
ENDBRANCH   1  46
TORSDOF 6
ENDMDL
MODEL 5
REMARK VINA RESULT:    -8.504      3.657      9.049
REMARK INTER + INTRA:         -10.906
REMARK INTER:                 -12.033
REMARK INTRA:                   1.128
REMARK UNBOUND:                 0.085
REMARK  Name = 
REMARK  6 active torsions:
REMARK  status: ('A' for Active; 'I' for Inactive)
REMARK    1  A    between atoms: C_1  and  O_2
REMARK    2  A    between atoms: O_2  and  C_3
REMARK    3  A    between atoms: C_6  and  N_7
REMARK    4  A    between atoms: N_13  and  C_14
REMARK    5  A    between atoms: N_23  and  C_24
REMARK    6  A    between atoms: C_27  and  O_28
REMARK                            x       y       z     vdW  Elec       q    Type
REMARK                         _______ _______ _______ _____ _____    ______ ____
ROOT
ATOM      1  N   UNL     1      -8.282  -6.872  16.858  0.00  0.00    +0.000 N 
ATOM      2  C   UNL     1      -6.955  -6.622  17.383  0.00  0.00    +0.000 C 
ATOM      3  C   UNL     1      -6.980  -5.894  18.665  0.00  0.00    +0.000 A 
ATOM      4  C   UNL     1      -5.884  -5.780  19.489  0.00  0.00    +0.000 A 
ATOM      5  N   UNL     1      -5.883  -5.082  20.638  0.00  0.00    +0.000 NA
ATOM      6  C   UNL     1      -7.013  -4.439  20.944  0.00  0.00    +0.000 A 
ATOM      7  N   UNL     1      -7.021  -3.674  22.106  0.00  0.00    +0.000 N 
ATOM      8  N   UNL     1      -8.127  -4.513  20.201  0.00  0.00    +0.000 NA
ATOM      9  C   UNL     1      -8.109  -5.231  19.074  0.00  0.00    +0.000 A 
ATOM     10  N   UNL     1      -9.274  -5.275  18.266  0.00  0.00    +0.000 N 
ATOM     11  C   UNL     1      -9.310  -5.946  17.040  0.00  0.00    +0.000 C 
ATOM     12  O   UNL     1     -10.273  -5.858  16.278  0.00  0.00    +0.000 OA
ATOM     13  H   UNL     1      -6.440  -6.004  16.637  0.00  0.00    +0.000 HD
ATOM     14  H   UNL     1      -6.386  -7.554  17.478  0.00  0.00    +0.000 HD
ATOM     15  H   UNL     1      -4.938  -6.255  19.242  0.00  0.00    +0.000 HD
ATOM     16  H   UNL     1      -6.159  -3.783  22.622  0.00  0.00    +0.000 HD
ENDROOT
BRANCH  10  17
ATOM     17  C   UNL     1     -10.546  -4.833  18.869  0.00  0.00    +0.000 C 
ATOM     18  C   UNL     1     -11.715  -4.793  17.850  0.00  0.00    +0.000 C 
ATOM     19  C   UNL     1     -12.226  -3.354  17.859  0.00  0.00    +0.000 C 
ATOM     20  C   UNL     1     -11.878  -2.851  19.252  0.00  0.00    +0.000 C 
ATOM     21  C   UNL     1     -10.505  -3.448  19.531  0.00  0.00    +0.000 C 
ATOM     22  H   UNL     1     -10.859  -5.549  19.638  0.00  0.00    +0.000 HD
ATOM     23  H   UNL     1     -12.511  -5.468  18.187  0.00  0.00    +0.000 HD
ATOM     24  H   UNL     1     -11.449  -5.119  16.839  0.00  0.00    +0.000 HD
ATOM     25  H   UNL     1     -13.296  -3.315  17.641  0.00  0.00    +0.000 HD
ATOM     26  H   UNL     1     -11.698  -2.764  17.100  0.00  0.00    +0.000 HD
ATOM     27  H   UNL     1     -11.864  -1.758  19.298  0.00  0.00    +0.000 HD
ATOM     28  H   UNL     1     -10.306  -3.542  20.605  0.00  0.00    +0.000 HD
ATOM     29  H   UNL     1      -9.721  -2.818  19.096  0.00  0.00    +0.000 HD
BRANCH  20  30
ATOM     30  O   UNL     1     -12.836  -3.304  20.203  0.00  0.00    +0.000 OA
ATOM     31  H   UNL     1     -13.304  -4.078  19.850  0.00  0.00    +0.000 HD
ENDBRANCH  20  30
ENDBRANCH  10  17
BRANCH   7  32
ATOM     32  C   UNL     1      -7.781  -2.530  22.390  0.00  0.00    +0.000 A 
ATOM     33  C   UNL     1      -8.150  -2.266  23.716  0.00  0.00    +0.000 A 
ATOM     34  C   UNL     1      -8.983  -1.186  24.022  0.00  0.00    +0.000 A 
ATOM     35  C   UNL     1      -9.439  -0.358  23.003  0.00  0.00    +0.000 A 
ATOM     36  F   UNL     1     -10.244   0.672  23.297  0.00  0.00    +0.000 F 
ATOM     37  C   UNL     1      -9.078  -0.587  21.685  0.00  0.00    +0.000 A 
ATOM     38  C   UNL     1      -8.257  -1.675  21.382  0.00  0.00    +0.000 A 
ATOM     39  H   UNL     1      -7.823  -2.924  24.516  0.00  0.00    +0.000 HD
ATOM     40  H   UNL     1      -9.291  -0.996  25.044  0.00  0.00    +0.000 HD
ATOM     41  H   UNL     1      -9.438   0.069  20.899  0.00  0.00    +0.000 HD
ATOM     42  H   UNL     1      -7.982  -1.837  20.343  0.00  0.00    +0.000 HD
ENDBRANCH   7  32
BRANCH   1  46
ATOM     43  C   UNL     1      -9.120 -10.816  15.585  0.00  0.00    +0.000 A 
ATOM     44  C   UNL     1      -9.164 -10.493  16.941  0.00  0.00    +0.000 A 
ATOM     45  C   UNL     1      -8.909  -9.185  17.362  0.00  0.00    +0.000 A 
ATOM     46  C   UNL     1      -8.632  -8.181  16.432  0.00  0.00    +0.000 A 
ATOM     47  C   UNL     1      -8.589  -8.506  15.072  0.00  0.00    +0.000 A 
ATOM     48  C   UNL     1      -8.822  -9.819  14.656  0.00  0.00    +0.000 A 
ATOM     49  H   UNL     1      -9.378 -11.235  17.704  0.00  0.00    +0.000 HD
ATOM     50  H   UNL     1      -8.928  -8.960  18.426  0.00  0.00    +0.000 HD
ATOM     51  H   UNL     1      -8.299  -7.771  14.326  0.00  0.00    +0.000 HD
ATOM     52  H   UNL     1      -8.746 -10.072  13.601  0.00  0.00    +0.000 HD
BRANCH  43  53
ATOM     53  O   UNL     1      -9.334 -12.055  15.049  0.00  0.00    +0.000 OA
BRANCH  53  54
ATOM     54  C   UNL     1      -8.430 -13.080  15.442  0.00  0.00    +0.000 C 
ATOM     55  H   UNL     1      -8.432 -13.845  14.661  0.00  0.00    +0.000 HD
ATOM     56  H   UNL     1      -8.754 -13.555  16.374  0.00  0.00    +0.000 HD
ATOM     57  H   UNL     1      -7.409 -12.692  15.528  0.00  0.00    +0.000 HD
ENDBRANCH  53  54
ENDBRANCH  43  53
ENDBRANCH   1  46
TORSDOF 6
ENDMDL
MODEL 6
REMARK VINA RESULT:    -8.474      3.721      9.167
REMARK INTER + INTRA:         -10.867
REMARK INTER:                 -11.485
REMARK INTRA:                   0.618
REMARK UNBOUND:                 0.085
REMARK  Name = 
REMARK  6 active torsions:
REMARK  status: ('A' for Active; 'I' for Inactive)
REMARK    1  A    between atoms: C_1  and  O_2
REMARK    2  A    between atoms: O_2  and  C_3
REMARK    3  A    between atoms: C_6  and  N_7
REMARK    4  A    between atoms: N_13  and  C_14
REMARK    5  A    between atoms: N_23  and  C_24
REMARK    6  A    between atoms: C_27  and  O_28
REMARK                            x       y       z     vdW  Elec       q    Type
REMARK                         _______ _______ _______ _____ _____    ______ ____
ROOT
ATOM      1  N   UNL     1      -8.347  -6.827  17.052  0.00  0.00    +0.000 N 
ATOM      2  C   UNL     1      -7.435  -6.578  18.148  0.00  0.00    +0.000 C 
ATOM      3  C   UNL     1      -7.926  -5.537  19.071  0.00  0.00    +0.000 A 
ATOM      4  C   UNL     1      -7.384  -5.318  20.316  0.00  0.00    +0.000 A 
ATOM      5  N   UNL     1      -7.794  -4.344  21.147  0.00  0.00    +0.000 NA
ATOM      6  C   UNL     1      -8.753  -3.535  20.688  0.00  0.00    +0.000 A 
ATOM      7  N   UNL     1      -9.162  -2.493  21.514  0.00  0.00    +0.000 N 
ATOM      8  N   UNL     1      -9.340  -3.693  19.493  0.00  0.00    +0.000 NA
ATOM      9  C   UNL     1      -8.929  -4.682  18.694  0.00  0.00    +0.000 A 
ATOM     10  N   UNL     1      -9.521  -4.824  17.412  0.00  0.00    +0.000 N 
ATOM     11  C   UNL     1      -9.096  -5.789  16.495  0.00  0.00    +0.000 C 
ATOM     12  O   UNL     1      -9.511  -5.811  15.336  0.00  0.00    +0.000 OA
ATOM     13  H   UNL     1      -6.496  -6.234  17.696  0.00  0.00    +0.000 HD
ATOM     14  H   UNL     1      -7.209  -7.503  18.692  0.00  0.00    +0.000 HD
ATOM     15  H   UNL     1      -6.572  -5.932  20.698  0.00  0.00    +0.000 HD
ATOM     16  H   UNL     1      -8.715  -2.545  22.418  0.00  0.00    +0.000 HD
ENDROOT
BRANCH  10  17
ATOM     17  C   UNL     1     -10.790  -4.115  17.160  0.00  0.00    +0.000 C 
ATOM     18  C   UNL     1     -11.707  -4.860  16.153  0.00  0.00    +0.000 C 
ATOM     19  C   UNL     1     -11.949  -3.882  15.007  0.00  0.00    +0.000 C 
ATOM     20  C   UNL     1     -11.803  -2.514  15.657  0.00  0.00    +0.000 C 
ATOM     21  C   UNL     1     -10.640  -2.683  16.626  0.00  0.00    +0.000 C 
ATOM     22  H   UNL     1     -11.371  -4.055  18.087  0.00  0.00    +0.000 HD
ATOM     23  H   UNL     1     -12.659  -5.099  16.641  0.00  0.00    +0.000 HD
ATOM     24  H   UNL     1     -11.304  -5.813  15.791  0.00  0.00    +0.000 HD
ATOM     25  H   UNL     1     -12.930  -4.042  14.553  0.00  0.00    +0.000 HD
ATOM     26  H   UNL     1     -11.185  -4.015  14.231  0.00  0.00    +0.000 HD
ATOM     27  H   UNL     1     -11.607  -1.731  14.918  0.00  0.00    +0.000 HD
ATOM     28  H   UNL     1     -10.679  -1.961  17.449  0.00  0.00    +0.000 HD
ATOM     29  H   UNL     1      -9.687  -2.548  16.103  0.00  0.00    +0.000 HD
BRANCH  20  30
ATOM     30  O   UNL     1     -12.996  -2.157  16.348  0.00  0.00    +0.000 OA
ATOM     31  H   UNL     1     -13.523  -1.555  15.797  0.00  0.00    +0.000 HD
ENDBRANCH  20  30
ENDBRANCH  10  17
BRANCH   7  32
ATOM     32  C   UNL     1      -9.686  -1.245  21.145  0.00  0.00    +0.000 A 
ATOM     33  C   UNL     1     -10.686  -0.663  21.937  0.00  0.00    +0.000 A 
ATOM     34  C   UNL     1     -11.295   0.534  21.550  0.00  0.00    +0.000 A 
ATOM     35  C   UNL     1     -10.896   1.160  20.375  0.00  0.00    +0.000 A 
ATOM     36  F   UNL     1     -11.487   2.303  20.001  0.00  0.00    +0.000 F 
ATOM     37  C   UNL     1      -9.900   0.614  19.580  0.00  0.00    +0.000 A 
ATOM     38  C   UNL     1      -9.305  -0.588  19.964  0.00  0.00    +0.000 A 
ATOM     39  H   UNL     1     -11.025  -1.159  22.842  0.00  0.00    +0.000 HD
ATOM     40  H   UNL     1     -12.086   0.972  22.148  0.00  0.00    +0.000 HD
ATOM     41  H   UNL     1      -9.596   1.115  18.667  0.00  0.00    +0.000 HD
ATOM     42  H   UNL     1      -8.523  -0.999  19.329  0.00  0.00    +0.000 HD
ENDBRANCH   7  32
BRANCH   1  46
ATOM     43  C   UNL     1      -9.261 -10.846  16.110  0.00  0.00    +0.000 A 
ATOM     44  C   UNL     1      -9.214 -10.431  17.441  0.00  0.00    +0.000 A 
ATOM     45  C   UNL     1      -8.933  -9.098  17.753  0.00  0.00    +0.000 A 
ATOM     46  C   UNL     1      -8.723  -8.160  16.740  0.00  0.00    +0.000 A 
ATOM     47  C   UNL     1      -8.771  -8.578  15.405  0.00  0.00    +0.000 A 
ATOM     48  C   UNL     1      -9.030  -9.915  15.097  0.00  0.00    +0.000 A 
ATOM     49  H   UNL     1      -9.374 -11.119  18.264  0.00  0.00    +0.000 HD
ATOM     50  H   UNL     1      -8.880  -8.801  18.798  0.00  0.00    +0.000 HD
ATOM     51  H   UNL     1      -8.535  -7.896  14.593  0.00  0.00    +0.000 HD
ATOM     52  H   UNL     1      -9.025 -10.239  14.059  0.00  0.00    +0.000 HD
BRANCH  43  53
ATOM     53  O   UNL     1      -9.508 -12.118  15.675  0.00  0.00    +0.000 OA
BRANCH  53  54
ATOM     54  C   UNL     1      -8.371 -12.919  15.382  0.00  0.00    +0.000 C 
ATOM     55  H   UNL     1      -8.703 -13.959  15.316  0.00  0.00    +0.000 HD
ATOM     56  H   UNL     1      -7.628 -12.857  16.183  0.00  0.00    +0.000 HD
ATOM     57  H   UNL     1      -7.936 -12.645  14.414  0.00  0.00    +0.000 HD
ENDBRANCH  53  54
ENDBRANCH  43  53
ENDBRANCH   1  46
TORSDOF 6
ENDMDL
MODEL 7
REMARK VINA RESULT:    -8.397      4.192      9.869
REMARK INTER + INTRA:         -10.767
REMARK INTER:                 -10.822
REMARK INTRA:                   0.055
REMARK UNBOUND:                 0.085
REMARK  Name = 
REMARK  6 active torsions:
REMARK  status: ('A' for Active; 'I' for Inactive)
REMARK    1  A    between atoms: C_1  and  O_2
REMARK    2  A    between atoms: O_2  and  C_3
REMARK    3  A    between atoms: C_6  and  N_7
REMARK    4  A    between atoms: N_13  and  C_14
REMARK    5  A    between atoms: N_23  and  C_24
REMARK    6  A    between atoms: C_27  and  O_28
REMARK                            x       y       z     vdW  Elec       q    Type
REMARK                         _______ _______ _______ _____ _____    ______ ____
ROOT
ATOM      1  N   UNL     1      -8.402  -4.611  19.362  0.00  0.00    +0.000 N 
ATOM      2  C   UNL     1      -7.550  -4.762  20.523  0.00  0.00    +0.000 C 
ATOM      3  C   UNL     1      -7.941  -3.874  21.634  0.00  0.00    +0.000 A 
ATOM      4  C   UNL     1      -7.470  -4.021  22.918  0.00  0.00    +0.000 A 
ATOM      5  N   UNL     1      -7.784  -3.191  23.928  0.00  0.00    +0.000 NA
ATOM      6  C   UNL     1      -8.565  -2.152  23.622  0.00  0.00    +0.000 A 
ATOM      7  N   UNL     1      -8.868  -1.255  24.642  0.00  0.00    +0.000 N 
ATOM      8  N   UNL     1      -9.076  -1.948  22.399  0.00  0.00    +0.000 NA
ATOM      9  C   UNL     1      -8.765  -2.800  21.417  0.00  0.00    +0.000 A 
ATOM     10  N   UNL     1      -9.270  -2.562  20.112  0.00  0.00    +0.000 N 
ATOM     11  C   UNL     1      -8.933  -3.367  19.021  0.00  0.00    +0.000 C 
ATOM     12  O   UNL     1      -9.255  -3.070  17.870  0.00  0.00    +0.000 OA
ATOM     13  H   UNL     1      -6.536  -4.494  20.198  0.00  0.00    +0.000 HD
ATOM     14  H   UNL     1      -7.516  -5.806  20.855  0.00  0.00    +0.000 HD
ATOM     15  H   UNL     1      -6.796  -4.831  23.186  0.00  0.00    +0.000 HD
ATOM     16  H   UNL     1      -8.507  -1.575  25.530  0.00  0.00    +0.000 HD
ENDROOT
BRANCH  10  17
ATOM     17  C   UNL     1     -10.389  -1.610  19.972  0.00  0.00    +0.000 C 
ATOM     18  C   UNL     1     -11.509  -2.129  19.032  0.00  0.00    +0.000 C 
ATOM     19  C   UNL     1     -11.637  -1.087  17.923  0.00  0.00    +0.000 C 
ATOM     20  C   UNL     1     -11.174   0.205  18.579  0.00  0.00    +0.000 C 
ATOM     21  C   UNL     1      -9.998  -0.220  19.450  0.00  0.00    +0.000 C 
ATOM     22  H   UNL     1     -10.875  -1.464  20.944  0.00  0.00    +0.000 HD
ATOM     23  H   UNL     1     -12.450  -2.190  19.590  0.00  0.00    +0.000 HD
ATOM     24  H   UNL     1     -11.332  -3.130  18.624  0.00  0.00    +0.000 HD
ATOM     25  H   UNL     1     -12.662  -1.037  17.546  0.00  0.00    +0.000 HD
ATOM     26  H   UNL     1     -10.975  -1.345  17.087  0.00  0.00    +0.000 HD
ATOM     27  H   UNL     1     -10.882   0.956  17.839  0.00  0.00    +0.000 HD
ATOM     28  H   UNL     1      -9.831   0.470  20.284  0.00  0.00    +0.000 HD
ATOM     29  H   UNL     1      -9.079  -0.259  18.854  0.00  0.00    +0.000 HD
BRANCH  20  30
ATOM     30  O   UNL     1     -12.217   0.769  19.369  0.00  0.00    +0.000 OA
ATOM     31  H   UNL     1     -12.970   0.994  18.798  0.00  0.00    +0.000 HD
ENDBRANCH  20  30
ENDBRANCH  10  17
BRANCH   7  32
ATOM     32  C   UNL     1      -9.160   0.113  24.540  0.00  0.00    +0.000 A 
ATOM     33  C   UNL     1      -8.764   0.975  25.571  0.00  0.00    +0.000 A 
ATOM     34  C   UNL     1      -9.118   2.327  25.546  0.00  0.00    +0.000 A 
ATOM     35  C   UNL     1      -9.860   2.824  24.481  0.00  0.00    +0.000 A 
ATOM     36  F   UNL     1     -10.205   4.118  24.462  0.00  0.00    +0.000 F 
ATOM     37  C   UNL     1     -10.253   1.997  23.440  0.00  0.00    +0.000 A 
ATOM     38  C   UNL     1      -9.908   0.644  23.477  0.00  0.00    +0.000 A 
ATOM     39  H   UNL     1      -8.208   0.591  26.423  0.00  0.00    +0.000 HD
ATOM     40  H   UNL     1      -8.834   2.990  26.356  0.00  0.00    +0.000 HD
ATOM     41  H   UNL     1     -10.829   2.398  22.613  0.00  0.00    +0.000 HD
ATOM     42  H   UNL     1     -10.223   0.012  22.651  0.00  0.00    +0.000 HD
ENDBRANCH   7  32
BRANCH   1  46
ATOM     43  C   UNL     1     -10.106  -7.923  17.360  0.00  0.00    +0.000 A 
ATOM     44  C   UNL     1      -8.731  -7.698  17.298  0.00  0.00    +0.000 A 
ATOM     45  C   UNL     1      -8.163  -6.616  17.977  0.00  0.00    +0.000 A 
ATOM     46  C   UNL     1      -8.958  -5.764  18.746  0.00  0.00    +0.000 A 
ATOM     47  C   UNL     1     -10.338  -5.991  18.808  0.00  0.00    +0.000 A 
ATOM     48  C   UNL     1     -10.905  -7.059  18.110  0.00  0.00    +0.000 A 
ATOM     49  H   UNL     1      -8.070  -8.333  16.718  0.00  0.00    +0.000 HD
ATOM     50  H   UNL     1      -7.092  -6.447  17.897  0.00  0.00    +0.000 HD
ATOM     51  H   UNL     1     -10.998  -5.304  19.330  0.00  0.00    +0.000 HD
ATOM     52  H   UNL     1     -11.983  -7.204  18.130  0.00  0.00    +0.000 HD
BRANCH  43  53
ATOM     53  O   UNL     1     -10.783  -8.930  16.732  0.00  0.00    +0.000 OA
BRANCH  53  54
ATOM     54  C   UNL     1     -10.060 -10.132  16.503  0.00  0.00    +0.000 C 
ATOM     55  H   UNL     1      -9.035  -9.978  16.852  0.00  0.00    +0.000 HD
ATOM     56  H   UNL     1     -10.015 -10.369  15.434  0.00  0.00    +0.000 HD
ATOM     57  H   UNL     1     -10.487 -10.963  17.076  0.00  0.00    +0.000 HD
ENDBRANCH  53  54
ENDBRANCH  43  53
ENDBRANCH   1  46
TORSDOF 6
ENDMDL
MODEL 8
REMARK VINA RESULT:    -8.285      3.139      5.078
REMARK INTER + INTRA:         -10.621
REMARK INTER:                 -10.304
REMARK INTRA:                  -0.318
REMARK UNBOUND:                 0.085
REMARK  Name = 
REMARK  6 active torsions:
REMARK  status: ('A' for Active; 'I' for Inactive)
REMARK    1  A    between atoms: C_1  and  O_2
REMARK    2  A    between atoms: O_2  and  C_3
REMARK    3  A    between atoms: C_6  and  N_7
REMARK    4  A    between atoms: N_13  and  C_14
REMARK    5  A    between atoms: N_23  and  C_24
REMARK    6  A    between atoms: C_27  and  O_28
REMARK                            x       y       z     vdW  Elec       q    Type
REMARK                         _______ _______ _______ _____ _____    ______ ____
ROOT
ATOM      1  N   UNL     1     -10.149  -0.650  19.576  0.00  0.00    +0.000 N 
ATOM      2  C   UNL     1      -9.513  -1.209  20.751  0.00  0.00    +0.000 C 
ATOM      3  C   UNL     1      -8.926  -2.539  20.500  0.00  0.00    +0.000 A 
ATOM      4  C   UNL     1      -8.043  -3.148  21.362  0.00  0.00    +0.000 A 
ATOM      5  N   UNL     1      -7.536  -4.377  21.166  0.00  0.00    +0.000 NA
ATOM      6  C   UNL     1      -7.970  -5.033  20.086  0.00  0.00    +0.000 A 
ATOM      7  N   UNL     1      -7.493  -6.325  19.887  0.00  0.00    +0.000 N 
ATOM      8  N   UNL     1      -8.816  -4.503  19.193  0.00  0.00    +0.000 NA
ATOM      9  C   UNL     1      -9.289  -3.270  19.399  0.00  0.00    +0.000 A 
ATOM     10  N   UNL     1     -10.219  -2.725  18.476  0.00  0.00    +0.000 N 
ATOM     11  C   UNL     1     -10.810  -1.472  18.661  0.00  0.00    +0.000 C 
ATOM     12  O   UNL     1     -11.720  -1.069  17.937  0.00  0.00    +0.000 OA
ATOM     13  H   UNL     1     -10.299  -1.308  21.510  0.00  0.00    +0.000 HD
ATOM     14  H   UNL     1      -8.759  -0.523  21.155  0.00  0.00    +0.000 HD
ATOM     15  H   UNL     1      -7.708  -2.655  22.272  0.00  0.00    +0.000 HD
ATOM     16  H   UNL     1      -6.790  -6.566  20.572  0.00  0.00    +0.000 HD
ENDROOT
BRANCH  10  17
ATOM     17  C   UNL     1     -10.346  -3.381  17.161  0.00  0.00    +0.000 C 
ATOM     18  C   UNL     1     -10.160  -2.397  15.975  0.00  0.00    +0.000 C 
ATOM     19  C   UNL     1     -11.449  -2.479  15.160  0.00  0.00    +0.000 C 
ATOM     20  C   UNL     1     -11.969  -3.882  15.439  0.00  0.00    +0.000 C 
ATOM     21  C   UNL     1     -11.682  -4.098  16.919  0.00  0.00    +0.000 C 
ATOM     22  H   UNL     1      -9.552  -4.128  17.041  0.00  0.00    +0.000 HD
ATOM     23  H   UNL     1      -9.314  -2.727  15.361  0.00  0.00    +0.000 HD
ATOM     24  H   UNL     1      -9.937  -1.366  16.271  0.00  0.00    +0.000 HD
ATOM     25  H   UNL     1     -11.257  -2.293  14.100  0.00  0.00    +0.000 HD
ATOM     26  H   UNL     1     -12.167  -1.732  15.517  0.00  0.00    +0.000 HD
ATOM     27  H   UNL     1     -13.035  -3.973  15.213  0.00  0.00    +0.000 HD
ATOM     28  H   UNL     1     -11.598  -5.161  17.172  0.00  0.00    +0.000 HD
ATOM     29  H   UNL     1     -12.484  -3.668  17.528  0.00  0.00    +0.000 HD
BRANCH  20  30
ATOM     30  O   UNL     1     -11.282  -4.840  14.639  0.00  0.00    +0.000 OA
ATOM     31  H   UNL     1     -10.640  -4.386  14.068  0.00  0.00    +0.000 HD
ENDBRANCH  20  30
ENDBRANCH  10  17
BRANCH   7  32
ATOM     32  C   UNL     1      -8.122  -7.394  19.232  0.00  0.00    +0.000 A 
ATOM     33  C   UNL     1      -8.321  -8.597  19.923  0.00  0.00    +0.000 A 
ATOM     34  C   UNL     1      -8.861  -9.711  19.273  0.00  0.00    +0.000 A 
ATOM     35  C   UNL     1      -9.216  -9.620  17.932  0.00  0.00    +0.000 A 
ATOM     36  F   UNL     1      -9.726 -10.691  17.309  0.00  0.00    +0.000 F 
ATOM     37  C   UNL     1      -9.043  -8.439  17.229  0.00  0.00    +0.000 A 
ATOM     38  C   UNL     1      -8.491  -7.333  17.878  0.00  0.00    +0.000 A 
ATOM     39  H   UNL     1      -8.021  -8.687  20.963  0.00  0.00    +0.000 HD
ATOM     40  H   UNL     1      -8.992 -10.650  19.799  0.00  0.00    +0.000 HD
ATOM     41  H   UNL     1      -9.328  -8.380  16.183  0.00  0.00    +0.000 HD
ATOM     42  H   UNL     1      -8.366  -6.414  17.310  0.00  0.00    +0.000 HD
ENDBRANCH   7  32
BRANCH   1  46
ATOM     43  C   UNL     1      -9.110   3.319  18.555  0.00  0.00    +0.000 A 
ATOM     44  C   UNL     1      -8.491   2.246  17.915  0.00  0.00    +0.000 A 
ATOM     45  C   UNL     1      -8.849   0.933  18.236  0.00  0.00    +0.000 A 
ATOM     46  C   UNL     1      -9.846   0.679  19.179  0.00  0.00    +0.000 A 
ATOM     47  C   UNL     1     -10.467   1.757  19.821  0.00  0.00    +0.000 A 
ATOM     48  C   UNL     1     -10.092   3.067  19.515  0.00  0.00    +0.000 A 
ATOM     49  H   UNL     1      -7.713   2.389  17.172  0.00  0.00    +0.000 HD
ATOM     50  H   UNL     1      -8.338   0.111  17.739  0.00  0.00    +0.000 HD
ATOM     51  H   UNL     1     -11.189   1.598  20.617  0.00  0.00    +0.000 HD
ATOM     52  H   UNL     1     -10.550   3.897  20.047  0.00  0.00    +0.000 HD
BRANCH  43  53
ATOM     53  O   UNL     1      -8.840   4.642  18.344  0.00  0.00    +0.000 OA
BRANCH  53  54
ATOM     54  C   UNL     1      -7.648   5.147  18.931  0.00  0.00    +0.000 C 
ATOM     55  H   UNL     1      -7.240   4.369  19.582  0.00  0.00    +0.000 HD
ATOM     56  H   UNL     1      -7.856   6.025  19.552  0.00  0.00    +0.000 HD
ATOM     57  H   UNL     1      -6.897   5.371  18.165  0.00  0.00    +0.000 HD
ENDBRANCH  53  54
ENDBRANCH  43  53
ENDBRANCH   1  46
TORSDOF 6
ENDMDL
MODEL 9
REMARK VINA RESULT:    -8.140      2.842      4.732
REMARK INTER + INTRA:         -10.435
REMARK INTER:                 -10.209
REMARK INTRA:                  -0.226
REMARK UNBOUND:                 0.085
REMARK  Name = 
REMARK  6 active torsions:
REMARK  status: ('A' for Active; 'I' for Inactive)
REMARK    1  A    between atoms: C_1  and  O_2
REMARK    2  A    between atoms: O_2  and  C_3
REMARK    3  A    between atoms: C_6  and  N_7
REMARK    4  A    between atoms: N_13  and  C_14
REMARK    5  A    between atoms: N_23  and  C_24
REMARK    6  A    between atoms: C_27  and  O_28
REMARK                            x       y       z     vdW  Elec       q    Type
REMARK                         _______ _______ _______ _____ _____    ______ ____
ROOT
ATOM      1  N   UNL     1     -10.123  -1.123  21.844  0.00  0.00    +0.000 N 
ATOM      2  C   UNL     1      -9.009  -1.919  22.315  0.00  0.00    +0.000 C 
ATOM      3  C   UNL     1      -8.537  -2.887  21.306  0.00  0.00    +0.000 A 
ATOM      4  C   UNL     1      -7.338  -3.555  21.406  0.00  0.00    +0.000 A 
ATOM      5  N   UNL     1      -6.918  -4.471  20.517  0.00  0.00    +0.000 NA
ATOM      6  C   UNL     1      -7.756  -4.756  19.516  0.00  0.00    +0.000 A 
ATOM      7  N   UNL     1      -7.361  -5.733  18.608  0.00  0.00    +0.000 N 
ATOM      8  N   UNL     1      -8.933  -4.139  19.342  0.00  0.00    +0.000 NA
ATOM      9  C   UNL     1      -9.318  -3.216  20.229  0.00  0.00    +0.000 A 
ATOM     10  N   UNL     1     -10.583  -2.592  20.070  0.00  0.00    +0.000 N 
ATOM     11  C   UNL     1     -11.085  -1.670  20.993  0.00  0.00    +0.000 C 
ATOM     12  O   UNL     1     -12.238  -1.246  20.927  0.00  0.00    +0.000 OA
ATOM     13  H   UNL     1      -9.373  -2.472  23.190  0.00  0.00    +0.000 HD
ATOM     14  H   UNL     1      -8.185  -1.282  22.656  0.00  0.00    +0.000 HD
ATOM     15  H   UNL     1      -6.656  -3.376  22.234  0.00  0.00    +0.000 HD
ATOM     16  H   UNL     1      -6.418  -6.046  18.793  0.00  0.00    +0.000 HD
ENDROOT
BRANCH  10  17
ATOM     17  C   UNL     1     -11.251  -2.719  18.761  0.00  0.00    +0.000 C 
ATOM     18  C   UNL     1     -11.895  -4.115  18.545  0.00  0.00    +0.000 C 
ATOM     19  C   UNL     1     -11.247  -4.682  17.284  0.00  0.00    +0.000 C 
ATOM     20  C   UNL     1     -10.852  -3.446  16.488  0.00  0.00    +0.000 C 
ATOM     21  C   UNL     1     -10.349  -2.469  17.543  0.00  0.00    +0.000 C 
ATOM     22  H   UNL     1     -12.083  -2.007  18.698  0.00  0.00    +0.000 HD
ATOM     23  H   UNL     1     -12.973  -3.995  18.383  0.00  0.00    +0.000 HD
ATOM     24  H   UNL     1     -11.790  -4.800  19.393  0.00  0.00    +0.000 HD
ATOM     25  H   UNL     1     -11.937  -5.338  16.748  0.00  0.00    +0.000 HD
ATOM     26  H   UNL     1     -10.355  -5.262  17.548  0.00  0.00    +0.000 HD
ATOM     27  H   UNL     1     -10.084  -3.671  15.742  0.00  0.00    +0.000 HD
ATOM     28  H   UNL     1     -10.431  -1.427  17.214  0.00  0.00    +0.000 HD
ATOM     29  H   UNL     1      -9.297  -2.669  17.775  0.00  0.00    +0.000 HD
BRANCH  20  30
ATOM     30  O   UNL     1     -11.977  -2.916  15.794  0.00  0.00    +0.000 OA
ATOM     31  H   UNL     1     -11.673  -2.302  15.106  0.00  0.00    +0.000 HD
ENDBRANCH  20  30
ENDBRANCH  10  17
BRANCH   7  32
ATOM     32  C   UNL     1      -8.168  -6.593  17.849  0.00  0.00    +0.000 A 
ATOM     33  C   UNL     1      -8.905  -7.592  18.499  0.00  0.00    +0.000 A 
ATOM     34  C   UNL     1      -9.647  -8.522  17.766  0.00  0.00    +0.000 A 
ATOM     35  C   UNL     1      -9.665  -8.448  16.378  0.00  0.00    +0.000 A 
ATOM     36  F   UNL     1     -10.370  -9.345  15.677  0.00  0.00    +0.000 F 
ATOM     37  C   UNL     1      -8.956  -7.462  15.709  0.00  0.00    +0.000 A 
ATOM     38  C   UNL     1      -8.206  -6.543  16.445  0.00  0.00    +0.000 A 
ATOM     39  H   UNL     1      -8.875  -7.676  19.582  0.00  0.00    +0.000 HD
ATOM     40  H   UNL     1     -10.197  -9.311  18.267  0.00  0.00    +0.000 HD
ATOM     41  H   UNL     1      -8.981  -7.413  14.625  0.00  0.00    +0.000 HD
ATOM     42  H   UNL     1      -7.660  -5.776  15.903  0.00  0.00    +0.000 HD
ENDBRANCH   7  32
BRANCH   1  46
ATOM     43  C   UNL     1     -10.221   3.081  22.283  0.00  0.00    +0.000 A 
ATOM     44  C   UNL     1      -9.969   2.267  23.387  0.00  0.00    +0.000 A 
ATOM     45  C   UNL     1      -9.915   0.878  23.240  0.00  0.00    +0.000 A 
ATOM     46  C   UNL     1     -10.085   0.289  21.985  0.00  0.00    +0.000 A 
ATOM     47  C   UNL     1     -10.337   1.107  20.878  0.00  0.00    +0.000 A 
ATOM     48  C   UNL     1     -10.413   2.493  21.031  0.00  0.00    +0.000 A 
ATOM     49  H   UNL     1      -9.827   2.675  24.382  0.00  0.00    +0.000 HD
ATOM     50  H   UNL     1      -9.739   0.261  24.118  0.00  0.00    +0.000 HD
ATOM     51  H   UNL     1     -10.553   0.682  19.902  0.00  0.00    +0.000 HD
ATOM     52  H   UNL     1     -10.649   3.118  20.174  0.00  0.00    +0.000 HD
BRANCH  43  53
ATOM     53  O   UNL     1     -10.314   4.444  22.296  0.00  0.00    +0.000 OA
BRANCH  53  54
ATOM     54  C   UNL     1     -11.187   5.010  23.265  0.00  0.00    +0.000 C 
ATOM     55  H   UNL     1     -11.676   4.188  23.796  0.00  0.00    +0.000 HD
ATOM     56  H   UNL     1     -11.970   5.609  22.788  0.00  0.00    +0.000 HD
ATOM     57  H   UNL     1     -10.629   5.599  24.001  0.00  0.00    +0.000 HD
ENDBRANCH  53  54
ENDBRANCH  43  53
ENDBRANCH   1  46
TORSDOF 6
ENDMDL
